
     RDKit          3D

 32 32  0  0  0  0  0  0  0  0999 V2000
    0.1209   -3.7861   -0.4426 N   0  0  0  0  0  0  0  0  0  0  0  0
   -0.7217   -2.7079   -0.2353 N   0  0  0  0  0  0  0  0  0  0  0  0
   -0.3814   -1.6368    0.3967 C   0  0  0  0  0  0  0  0  0  0  0  0
    0.9782   -1.5433    0.9330 C   0  0  0  0  0  0  0  0  0  0  0  0
    1.7977   -0.4454    0.4285 C   0  0  0  0  0  0  0  0  0  0  0  0
    1.8732    0.7233    1.1516 C   0  0  0  0  0  0  0  0  0  0  0  0
    2.6421    1.8051    0.7038 C   0  0  0  0  0  0  0  0  0  0  0  0
    3.3395    1.7166   -0.4739 C   0  0  0  0  0  0  0  0  0  0  0  0
    4.0887    2.8300   -0.8673 O   0  0  0  0  0  0  0  0  0  0  0  0
    3.2772    0.5636   -1.2062 C   0  0  0  0  0  0  0  0  0  0  0  0
    4.2664    0.4725   -2.8514 Br  0  0  0  0  0  0  0  0  0  0  0  0
    2.5177   -0.4900   -0.7534 C   0  0  0  0  0  0  0  0  0  0  0  0
   -1.3947   -0.6029    0.5209 C   0  0  0  0  0  0  0  0  0  0  0  0
   -1.1657    0.4977    1.1268 O   0  0  0  0  0  0  0  0  0  0  0  0
   -2.6978   -0.7257   -0.0097 N   0  0  0  0  0  0  0  0  0  0  0  0
   -3.6823    0.3092    0.1243 C   0  0  0  0  0  0  0  0  0  0  0  0
   -3.3276    1.6214   -0.4791 C   0  0  0  0  0  0  0  0  0  0  0  0
   -4.7453    2.7471   -0.1696 S   0  0  0  0  0  0  0  0  0  0  0  0
    0.3160   -4.5398    0.2268 H   0  0  0  0  0  0  0  0  0  0  0  0
    0.6076   -3.8367   -1.3766 H   0  0  0  0  0  0  0  0  0  0  0  0
    1.5491   -2.4893    0.8101 H   0  0  0  0  0  0  0  0  0  0  0  0
    0.8580   -1.4201    2.0516 H   0  0  0  0  0  0  0  0  0  0  0  0
    1.3537    0.8604    2.0903 H   0  0  0  0  0  0  0  0  0  0  0  0
    2.6894    2.7228    1.2903 H   0  0  0  0  0  0  0  0  0  0  0  0
    5.0768    2.8706   -0.6269 H   0  0  0  0  0  0  0  0  0  0  0  0
    2.4667   -1.3955   -1.3251 H   0  0  0  0  0  0  0  0  0  0  0  0
   -2.9609   -1.5944   -0.5170 H   0  0  0  0  0  0  0  0  0  0  0  0
   -3.7905    0.4882    1.2361 H   0  0  0  0  0  0  0  0  0  0  0  0
   -4.6921   -0.0505   -0.1844 H   0  0  0  0  0  0  0  0  0  0  0  0
   -3.1990    1.6022   -1.5725 H   0  0  0  0  0  0  0  0  0  0  0  0
   -2.4781    2.0853    0.0511 H   0  0  0  0  0  0  0  0  0  0  0  0
   -4.5819    3.3481    1.1003 H   0  0  0  0  0  0  0  0  0  0  0  0
  1  2  1  0
  2  3  2  3
  3  4  1  0
  4  5  1  0
  5  6  2  0
  6  7  1  0
  7  8  2  0
  8  9  1  0
  8 10  1  0
 10 11  1  0
 10 12  2  0
  3 13  1  0
 13 14  2  0
 13 15  1  0
 15 16  1  0
 16 17  1  0
 17 18  1  0
 12  5  1  0
  1 19  1  0
  1 20  1  0
  4 21  1  0
  4 22  1  0
  6 23  1  0
  7 24  1  0
  9 25  1  0
 12 26  1  0
 15 27  1  0
 16 28  1  0
 16 29  1  0
 17 30  1  0
 17 31  1  0
 18 32  1  0
M  END
$$$$
