@<TRIPOS>MOLECULE
*****
 32 32 0 0 0
SMALL
GASTEIGER

@<TRIPOS>ATOM
      1 N           0.1209   -3.7861   -0.4426 N.pl3   1  UNL1       -0.2821
      2 N          -0.7217   -2.7079   -0.2353 N.2     1  UNL1       -0.1889
      3 C          -0.3814   -1.6368    0.3967 C.2     1  UNL1        0.1242
      4 C           0.9782   -1.5433    0.9330 C.3     1  UNL1        0.0214
      5 C           1.7977   -0.4454    0.4285 C.ar    1  UNL1       -0.0401
      6 C           1.8732    0.7233    1.1516 C.ar    1  UNL1       -0.0547
      7 C           2.6421    1.8051    0.7038 C.ar    1  UNL1       -0.0188
      8 C           3.3395    1.7166   -0.4739 C.ar    1  UNL1        0.1308
      9 O           4.0887    2.8300   -0.8673 O.3     1  UNL1       -0.5057
     10 C           3.2772    0.5636   -1.2062 C.ar    1  UNL1        0.0595
     11 BR          4.2664    0.4725   -2.8514 Br      1  UNL1       -0.0465
     12 C           2.5177   -0.4900   -0.7534 C.ar    1  UNL1       -0.0407
     13 C          -1.3947   -0.6029    0.5209 C.2     1  UNL1        0.2601
     14 O          -1.1657    0.4977    1.1268 O.2     1  UNL1       -0.2688
     15 N          -2.6978   -0.7257   -0.0097 N.am    1  UNL1       -0.3095
     16 C          -3.6823    0.3092    0.1243 C.3     1  UNL1        0.0207
     17 C          -3.3276    1.6214   -0.4791 C.3     1  UNL1        0.0063
     18 S          -4.7453    2.7471   -0.1696 S.3     1  UNL1       -0.1767
     19 H           0.3160   -4.5398    0.2268 H       1  UNL1        0.1642
     20 H           0.6076   -3.8367   -1.3766 H       1  UNL1        0.1642
     21 H           1.5491   -2.4893    0.8101 H       1  UNL1        0.0379
     22 H           0.8580   -1.4201    2.0516 H       1  UNL1        0.0379
     23 H           1.3537    0.8604    2.0903 H       1  UNL1        0.0622
     24 H           2.6894    2.7228    1.2903 H       1  UNL1        0.0654
     25 H           5.0768    2.8706   -0.6269 H       1  UNL1        0.2922
     26 H           2.4667   -1.3955   -1.3251 H       1  UNL1        0.0633
     27 H          -2.9609   -1.5944   -0.5170 H       1  UNL1        0.1491
     28 H          -3.7905    0.4882    1.2361 H       1  UNL1        0.0470
     29 H          -4.6921   -0.0505   -0.1844 H       1  UNL1        0.0470
     30 H          -3.1990    1.6022   -1.5725 H       1  UNL1        0.0389
     31 H          -2.4781    2.0853    0.0511 H       1  UNL1        0.0389
     32 H          -4.5819    3.3481    1.1003 H       1  UNL1        0.1017
@<TRIPOS>BOND
     1     1     2    1
     2     2     3    2
     3     3     4    1
     4     4     5    1
     5     5     6   ar
     6     6     7   ar
     7     7     8   ar
     8     8     9    1
     9     8    10   ar
    10    10    11    1
    11    10    12   ar
    12     3    13    1
    13    13    14    2
    14    13    15   am
    15    15    16    1
    16    16    17    1
    17    17    18    1
    18    12     5   ar
    19     1    19    1
    20     1    20    1
    21     4    21    1
    22     4    22    1
    23     6    23    1
    24     7    24    1
    25     9    25    1
    26    12    26    1
    27    15    27    1
    28    16    28    1
    29    16    29    1
    30    17    30    1
    31    17    31    1
    32    18    32    1
