@<TRIPOS>MOLECULE
*****
 70 73 0 0 0
SMALL
GASTEIGER

@<TRIPOS>ATOM
      1 C           2.8335   -4.1014   -3.8494 C.3     1  UNL1       -0.0397
      2 C           2.7677   -2.9605   -2.9075 C.ar    1  UNL1       -0.0504
      3 C           3.0462   -3.1886   -1.5713 C.ar    1  UNL1       -0.0581
      4 C           2.9979   -2.1616   -0.6497 C.ar    1  UNL1       -0.0494
      5 C           2.6674   -0.8703   -1.0445 C.ar    1  UNL1        0.0369
      6 C           2.6558    0.2115   -0.1174 C.2     1  UNL1        0.2472
      7 O           3.8150    0.5015    0.3741 O.2     1  UNL1       -0.2700
      8 N           1.5140    0.9936    0.3099 N.am    1  UNL1       -0.2872
      9 C           1.8640    2.0301    1.2347 C.3     1  UNL1        0.0169
     10 C           2.3613    3.2993    0.6485 C.3     1  UNL1       -0.0247
     11 C           2.7063    4.3207    1.7470 C.3     1  UNL1       -0.0055
     12 N           3.1865    5.5139    1.0942 N.3     1  UNL1       -0.3299
     13 C           0.2185    0.5998   -0.1659 C.3     1  UNL1        0.0867
     14 C          -0.6848    0.2431    0.9976 C.ar    1  UNL1        0.1342
     15 N          -0.9788    1.2543    1.8782 N.ar    1  UNL1       -0.2315
     16 C          -1.7268    1.0551    2.9648 C.ar    1  UNL1        0.0796
     17 C          -2.0481    2.0370    3.8810 C.ar    1  UNL1       -0.0172
     18 C          -2.8210    1.8045    4.9984 C.ar    1  UNL1        0.0430
     19 CL         -3.2110    3.0812    6.1451 Cl      1  UNL1       -0.0835
     20 C          -3.2944    0.5087    5.1999 C.ar    1  UNL1       -0.0425
     21 C          -3.0077   -0.5040    4.3262 C.ar    1  UNL1       -0.0460
     22 C          -2.2235   -0.2224    3.2121 C.ar    1  UNL1        0.0650
     23 C          -1.9045   -1.1976    2.3087 C.ar    1  UNL1        0.2621
     24 O          -2.3464   -2.3454    2.5330 O.2     1  UNL1       -0.2669
     25 N          -1.1295   -0.9865    1.1816 N.ar    1  UNL1       -0.2903
     26 C          -0.8466   -2.0778    0.3367 C.3     1  UNL1        0.0528
     27 C          -1.6973   -2.4191   -0.7789 C.ar    1  UNL1       -0.0276
     28 C          -1.1619   -2.3666   -2.0807 C.ar    1  UNL1       -0.0569
     29 C          -1.8880   -2.6721   -3.1971 C.ar    1  UNL1       -0.0614
     30 C          -3.2142   -3.0557   -3.0883 C.ar    1  UNL1       -0.0617
     31 C          -3.7290   -3.1040   -1.8120 C.ar    1  UNL1       -0.0614
     32 C          -3.0121   -2.8004   -0.6856 C.ar    1  UNL1       -0.0569
     33 C          -0.4945    1.6121   -1.0268 C.3     1  UNL1       -0.0210
     34 C          -1.8352    0.9526   -1.4250 C.3     1  UNL1       -0.0606
     35 C          -0.8838    2.8923   -0.4096 C.3     1  UNL1       -0.0606
     36 C           2.3915   -0.6519   -2.3711 C.ar    1  UNL1       -0.0494
     37 C           2.4365   -1.6806   -3.3152 C.ar    1  UNL1       -0.0581
     38 H           3.8544   -4.3051   -4.2284 H       1  UNL1        0.0278
     39 H           2.5161   -5.0401   -3.3259 H       1  UNL1        0.0278
     40 H           2.1552   -3.9334   -4.7021 H       1  UNL1        0.0278
     41 H           3.3046   -4.1961   -1.2700 H       1  UNL1        0.0620
     42 H           3.2261   -2.4029    0.3867 H       1  UNL1        0.0625
     43 H           2.7270    1.6267    1.8622 H       1  UNL1        0.0465
     44 H           1.1081    2.2725    1.9988 H       1  UNL1        0.0465
     45 H           1.6542    3.8141    0.0004 H       1  UNL1        0.0293
     46 H           3.2922    3.1660    0.0405 H       1  UNL1        0.0293
     47 H           3.4180    3.9033    2.4707 H       1  UNL1        0.0422
     48 H           1.7286    4.5753    2.2373 H       1  UNL1        0.0422
     49 H           3.0175    5.4577    0.0734 H       1  UNL1        0.1182
     50 H           2.6752    6.3412    1.4643 H       1  UNL1        0.1182
     51 H           0.3427   -0.2842   -0.8035 H       1  UNL1        0.0584
     52 H          -1.6752    3.0352    3.7137 H       1  UNL1        0.0653
     53 H          -3.8952    0.3193    6.0664 H       1  UNL1        0.0632
     54 H          -3.3543   -1.5235    4.4453 H       1  UNL1        0.0626
     55 H          -0.8592   -3.0054    1.0221 H       1  UNL1        0.0543
     56 H           0.2214   -2.1056   -0.0213 H       1  UNL1        0.0543
     57 H          -0.1414   -2.0831   -2.2207 H       1  UNL1        0.0621
     58 H          -1.4772   -2.6326   -4.1966 H       1  UNL1        0.0618
     59 H          -3.7747   -3.2942   -3.9768 H       1  UNL1        0.0618
     60 H          -4.7590   -3.4036   -1.7266 H       1  UNL1        0.0618
     61 H          -3.4923   -2.8656    0.2522 H       1  UNL1        0.0621
     62 H           0.0788    1.7028   -1.9661 H       1  UNL1        0.0318
     63 H          -1.7568    0.3802   -2.3422 H       1  UNL1        0.0233
     64 H          -2.6230    1.7453   -1.5445 H       1  UNL1        0.0233
     65 H          -2.1668    0.3739   -0.5472 H       1  UNL1        0.0233
     66 H          -0.4828    3.7095   -1.0895 H       1  UNL1        0.0233
     67 H          -0.5352    3.1463    0.5751 H       1  UNL1        0.0233
     68 H          -1.9926    3.0984   -0.4336 H       1  UNL1        0.0233
     69 H           2.1248    0.3320   -2.7548 H       1  UNL1        0.0625
     70 H           2.2179   -1.4687   -4.3349 H       1  UNL1        0.0620
@<TRIPOS>BOND
     1     1     2    1
     2     2     3   ar
     3     3     4   ar
     4     4     5   ar
     5     5     6    1
     6     6     7    2
     7     6     8   am
     8     8     9    1
     9     9    10    1
    10    10    11    1
    11    11    12    1
    12     8    13    1
    13    13    14    1
    14    14    15   ar
    15    15    16   ar
    16    16    17   ar
    17    17    18   ar
    18    18    19    1
    19    18    20   ar
    20    20    21   ar
    21    21    22   ar
    22    22    23   ar
    23    23    24    2
    24    23    25   ar
    25    25    26    1
    26    26    27    1
    27    27    28   ar
    28    28    29   ar
    29    29    30   ar
    30    30    31   ar
    31    31    32   ar
    32    13    33    1
    33    33    34    1
    34    33    35    1
    35     5    36   ar
    36    36    37   ar
    37    37     2   ar
    38    25    14   ar
    39    32    27   ar
    40    22    16   ar
    41     1    38    1
    42     1    39    1
    43     1    40    1
    44     3    41    1
    45     4    42    1
    46     9    43    1
    47     9    44    1
    48    10    45    1
    49    10    46    1
    50    11    47    1
    51    11    48    1
    52    12    49    1
    53    12    50    1
    54    13    51    1
    55    17    52    1
    56    20    53    1
    57    21    54    1
    58    26    55    1
    59    26    56    1
    60    28    57    1
    61    29    58    1
    62    30    59    1
    63    31    60    1
    64    32    61    1
    65    33    62    1
    66    34    63    1
    67    34    64    1
    68    34    65    1
    69    35    66    1
    70    35    67    1
    71    35    68    1
    72    36    69    1
    73    37    70    1
