
     RDKit          3D

 70 73  0  0  0  0  0  0  0  0999 V2000
    2.8335   -4.1014   -3.8494 C   0  0  0  0  0  0  0  0  0  0  0  0
    2.7677   -2.9605   -2.9075 C   0  0  0  0  0  0  0  0  0  0  0  0
    3.0462   -3.1886   -1.5713 C   0  0  0  0  0  0  0  0  0  0  0  0
    2.9979   -2.1616   -0.6497 C   0  0  0  0  0  0  0  0  0  0  0  0
    2.6674   -0.8703   -1.0445 C   0  0  0  0  0  0  0  0  0  0  0  0
    2.6558    0.2115   -0.1174 C   0  0  0  0  0  0  0  0  0  0  0  0
    3.8150    0.5015    0.3741 O   0  0  0  0  0  0  0  0  0  0  0  0
    1.5140    0.9936    0.3099 N   0  0  0  0  0  0  0  0  0  0  0  0
    1.8640    2.0301    1.2347 C   0  0  0  0  0  0  0  0  0  0  0  0
    2.3613    3.2993    0.6485 C   0  0  0  0  0  0  0  0  0  0  0  0
    2.7063    4.3207    1.7470 C   0  0  0  0  0  0  0  0  0  0  0  0
    3.1865    5.5139    1.0942 N   0  0  0  0  0  0  0  0  0  0  0  0
    0.2185    0.5998   -0.1659 C   0  0  1  0  0  0  0  0  0  0  0  0
   -0.6848    0.2431    0.9976 C   0  0  0  0  0  0  0  0  0  0  0  0
   -0.9788    1.2543    1.8782 N   0  0  0  0  0  0  0  0  0  0  0  0
   -1.7268    1.0551    2.9648 C   0  0  0  0  0  0  0  0  0  0  0  0
   -2.0481    2.0370    3.8810 C   0  0  0  0  0  0  0  0  0  0  0  0
   -2.8210    1.8045    4.9984 C   0  0  0  0  0  0  0  0  0  0  0  0
   -3.2110    3.0812    6.1451 Cl  0  0  0  0  0  0  0  0  0  0  0  0
   -3.2944    0.5087    5.1999 C   0  0  0  0  0  0  0  0  0  0  0  0
   -3.0077   -0.5040    4.3262 C   0  0  0  0  0  0  0  0  0  0  0  0
   -2.2235   -0.2224    3.2121 C   0  0  0  0  0  0  0  0  0  0  0  0
   -1.9045   -1.1976    2.3087 C   0  0  0  0  0  0  0  0  0  0  0  0
   -2.3464   -2.3454    2.5330 O   0  0  0  0  0  0  0  0  0  0  0  0
   -1.1295   -0.9865    1.1816 N   0  0  0  0  0  0  0  0  0  0  0  0
   -0.8466   -2.0778    0.3367 C   0  0  0  0  0  0  0  0  0  0  0  0
   -1.6973   -2.4191   -0.7789 C   0  0  0  0  0  0  0  0  0  0  0  0
   -1.1619   -2.3666   -2.0807 C   0  0  0  0  0  0  0  0  0  0  0  0
   -1.8880   -2.6721   -3.1971 C   0  0  0  0  0  0  0  0  0  0  0  0
   -3.2142   -3.0557   -3.0883 C   0  0  0  0  0  0  0  0  0  0  0  0
   -3.7290   -3.1040   -1.8120 C   0  0  0  0  0  0  0  0  0  0  0  0
   -3.0121   -2.8004   -0.6856 C   0  0  0  0  0  0  0  0  0  0  0  0
   -0.4945    1.6121   -1.0268 C   0  0  0  0  0  0  0  0  0  0  0  0
   -1.8352    0.9526   -1.4250 C   0  0  0  0  0  0  0  0  0  0  0  0
   -0.8838    2.8923   -0.4096 C   0  0  0  0  0  0  0  0  0  0  0  0
    2.3915   -0.6519   -2.3711 C   0  0  0  0  0  0  0  0  0  0  0  0
    2.4365   -1.6806   -3.3152 C   0  0  0  0  0  0  0  0  0  0  0  0
    3.8544   -4.3051   -4.2284 H   0  0  0  0  0  0  0  0  0  0  0  0
    2.5161   -5.0401   -3.3259 H   0  0  0  0  0  0  0  0  0  0  0  0
    2.1552   -3.9334   -4.7021 H   0  0  0  0  0  0  0  0  0  0  0  0
    3.3046   -4.1961   -1.2700 H   0  0  0  0  0  0  0  0  0  0  0  0
    3.2261   -2.4029    0.3867 H   0  0  0  0  0  0  0  0  0  0  0  0
    2.7270    1.6267    1.8622 H   0  0  0  0  0  0  0  0  0  0  0  0
    1.1081    2.2725    1.9988 H   0  0  0  0  0  0  0  0  0  0  0  0
    1.6542    3.8141    0.0004 H   0  0  0  0  0  0  0  0  0  0  0  0
    3.2922    3.1660    0.0405 H   0  0  0  0  0  0  0  0  0  0  0  0
    3.4180    3.9033    2.4707 H   0  0  0  0  0  0  0  0  0  0  0  0
    1.7286    4.5753    2.2373 H   0  0  0  0  0  0  0  0  0  0  0  0
    3.0175    5.4577    0.0734 H   0  0  0  0  0  0  0  0  0  0  0  0
    2.6752    6.3412    1.4643 H   0  0  0  0  0  0  0  0  0  0  0  0
    0.3427   -0.2842   -0.8035 H   0  0  0  0  0  0  0  0  0  0  0  0
   -1.6752    3.0352    3.7137 H   0  0  0  0  0  0  0  0  0  0  0  0
   -3.8952    0.3193    6.0664 H   0  0  0  0  0  0  0  0  0  0  0  0
   -3.3543   -1.5235    4.4453 H   0  0  0  0  0  0  0  0  0  0  0  0
   -0.8592   -3.0054    1.0221 H   0  0  0  0  0  0  0  0  0  0  0  0
    0.2214   -2.1056   -0.0213 H   0  0  0  0  0  0  0  0  0  0  0  0
   -0.1414   -2.0831   -2.2207 H   0  0  0  0  0  0  0  0  0  0  0  0
   -1.4772   -2.6326   -4.1966 H   0  0  0  0  0  0  0  0  0  0  0  0
   -3.7747   -3.2942   -3.9768 H   0  0  0  0  0  0  0  0  0  0  0  0
   -4.7590   -3.4036   -1.7266 H   0  0  0  0  0  0  0  0  0  0  0  0
   -3.4923   -2.8656    0.2522 H   0  0  0  0  0  0  0  0  0  0  0  0
    0.0788    1.7028   -1.9661 H   0  0  0  0  0  0  0  0  0  0  0  0
   -1.7568    0.3802   -2.3422 H   0  0  0  0  0  0  0  0  0  0  0  0
   -2.6230    1.7453   -1.5445 H   0  0  0  0  0  0  0  0  0  0  0  0
   -2.1668    0.3739   -0.5472 H   0  0  0  0  0  0  0  0  0  0  0  0
   -0.4828    3.7095   -1.0895 H   0  0  0  0  0  0  0  0  0  0  0  0
   -0.5352    3.1463    0.5751 H   0  0  0  0  0  0  0  0  0  0  0  0
   -1.9926    3.0984   -0.4336 H   0  0  0  0  0  0  0  0  0  0  0  0
    2.1248    0.3320   -2.7548 H   0  0  0  0  0  0  0  0  0  0  0  0
    2.2179   -1.4687   -4.3349 H   0  0  0  0  0  0  0  0  0  0  0  0
  1  2  1  0
  2  3  2  0
  3  4  1  0
  4  5  2  0
  5  6  1  0
  6  7  2  0
  6  8  1  0
  8  9  1  0
  9 10  1  0
 10 11  1  0
 11 12  1  0
  8 13  1  0
 13 14  1  0
 14 15  2  0
 15 16  1  0
 16 17  2  0
 17 18  1  0
 18 19  1  0
 18 20  2  0
 20 21  1  0
 21 22  2  0
 22 23  1  0
 23 24  2  0
 23 25  1  0
 25 26  1  0
 26 27  1  0
 27 28  2  0
 28 29  1  0
 29 30  2  0
 30 31  1  0
 31 32  2  0
 13 33  1  0
 33 34  1  0
 33 35  1  0
  5 36  1  0
 36 37  2  0
 37  2  1  0
 25 14  1  0
 32 27  1  0
 22 16  1  0
  1 38  1  0
  1 39  1  0
  1 40  1  0
  3 41  1  0
  4 42  1  0
  9 43  1  0
  9 44  1  0
 10 45  1  0
 10 46  1  0
 11 47  1  0
 11 48  1  0
 12 49  1  0
 12 50  1  0
 13 51  1  6
 17 52  1  0
 20 53  1  0
 21 54  1  0
 26 55  1  0
 26 56  1  0
 28 57  1  0
 29 58  1  0
 30 59  1  0
 31 60  1  0
 32 61  1  0
 33 62  1  0
 34 63  1  0
 34 64  1  0
 34 65  1  0
 35 66  1  0
 35 67  1  0
 35 68  1  0
 36 69  1  0
 37 70  1  0
M  END
$$$$
