@<TRIPOS>MOLECULE
*****
 40 43 0 0 0
SMALL
GASTEIGER

@<TRIPOS>ATOM
      1 O           1.4088   -1.2689    2.2967 O.2     1  UNL1       -0.2737
      2 C           0.5902   -0.7187    1.5229 C.2     1  UNL1        0.2354
      3 C          -0.5831   -0.0186    2.0976 C.3     1  UNL1        0.0964
      4 N          -1.4280    0.5605    1.0814 N.am    1  UNL1       -0.2623
      5 C          -1.1677    1.8806    0.6749 C.2     1  UNL1        0.2205
      6 O          -0.0943    2.4395    1.0248 O.2     1  UNL1       -0.2752
      7 C          -2.0954    2.6824   -0.1604 C.3     1  UNL1        0.0285
      8 C          -3.0388    1.8518   -0.9483 C.3     1  UNL1       -0.0177
      9 C          -3.2487    0.4801   -0.4739 C.ar    1  UNL1       -0.0255
     10 C          -4.2908   -0.2243   -1.0515 C.ar    1  UNL1       -0.0568
     11 C          -4.5851   -1.5058   -0.6975 C.ar    1  UNL1       -0.0614
     12 C          -3.8325   -2.1400    0.2654 C.ar    1  UNL1       -0.0600
     13 C          -2.7793   -1.4731    0.8705 C.ar    1  UNL1       -0.0400
     14 C          -2.4986   -0.1562    0.4880 C.ar    1  UNL1        0.0400
     15 N           0.8299   -0.7947    0.1305 N.am    1  UNL1       -0.2781
     16 C           1.9897   -1.4940   -0.3076 C.ar    1  UNL1        0.0839
     17 S           2.0420   -3.2740   -0.6933 S.2     1  UNL1       -0.0797
     18 C           3.8420   -3.2781   -1.1468 C.ar    1  UNL1       -0.0035
     19 C           4.1817   -1.9491   -0.9541 C.ar    1  UNL1        0.0605
     20 CL          5.9229   -1.5763   -1.3139 Cl      1  UNL1       -0.0822
     21 C           3.2877   -1.0656   -0.5443 C.ar    1  UNL1        0.0658
     22 C           3.5786    0.3760   -0.3158 C.ar    1  UNL1        0.1652
     23 N           2.6973    1.3121    0.1018 N.ar    1  UNL1       -0.1295
     24 N           3.2859    2.4882    0.1999 N.ar    1  UNL1       -0.1377
     25 C           4.5736    2.3626   -0.1502 C.ar    1  UNL1        0.1175
     26 N           4.7248    1.0410   -0.4649 N.ar    1  UNL1       -0.3276
     27 H          -0.1551    0.7895    2.7468 H       1  UNL1        0.0564
     28 H          -1.1757   -0.6467    2.7567 H       1  UNL1        0.0564
     29 H          -2.6581    3.3605    0.5134 H       1  UNL1        0.0362
     30 H          -1.5041    3.3498   -0.8502 H       1  UNL1        0.0362
     31 H          -2.7124    1.8203   -2.0145 H       1  UNL1        0.0318
     32 H          -4.0487    2.3481   -0.9810 H       1  UNL1        0.0318
     33 H          -4.9177    0.2384   -1.8223 H       1  UNL1        0.0621
     34 H          -5.4083   -2.0500   -1.1596 H       1  UNL1        0.0618
     35 H          -4.0331   -3.1697    0.5812 H       1  UNL1        0.0618
     36 H          -2.1734   -1.9449    1.6230 H       1  UNL1        0.0636
     37 H           0.1535   -0.3388   -0.5274 H       1  UNL1        0.1554
     38 H           4.3498   -4.1358   -1.4540 H       1  UNL1        0.0709
     39 H           5.3130    3.1385   -0.1738 H       1  UNL1        0.1046
     40 H           5.6576    0.7032   -0.7701 H       1  UNL1        0.1683
@<TRIPOS>BOND
     1     1     2    2
     2     2     3    1
     3     3     4    1
     4     4     5   am
     5     5     6    2
     6     5     7    1
     7     7     8    1
     8     8     9    1
     9     9    10   ar
    10    10    11   ar
    11    11    12   ar
    12    12    13   ar
    13    13    14   ar
    14     2    15   am
    15    15    16    1
    16    16    17   ar
    17    17    18   ar
    18    18    19   ar
    19    19    20    1
    20    19    21   ar
    21    21    22    1
    22    22    23   ar
    23    23    24   ar
    24    24    25   ar
    25    25    26   ar
    26    14     4    1
    27    21    16   ar
    28    26    22   ar
    29    14     9   ar
    30     3    27    1
    31     3    28    1
    32     7    29    1
    33     7    30    1
    34     8    31    1
    35     8    32    1
    36    10    33    1
    37    11    34    1
    38    12    35    1
    39    13    36    1
    40    15    37    1
    41    18    38    1
    42    25    39    1
    43    26    40    1
