@<TRIPOS>MOLECULE
*****
 23 23 0 0 0
SMALL
GASTEIGER

@<TRIPOS>ATOM
      1 C           4.5639    0.0651    0.2239 C.3     1  UNL1        0.0000
      2 C           3.5973   -0.9659    0.7834 C.3     1  UNL1        0.0000
      3 HG          1.8366   -0.9801   -0.3327 Hg      1  UNL1        0.0000
      4 S          -0.0813   -0.9224   -1.7542 S.3     1  UNL1        0.0000
      5 C          -1.2722    0.1954   -1.0497 C.ar    1  UNL1        0.0000
      6 C          -1.2338    1.5336   -1.4063 C.ar    1  UNL1        0.0000
      7 C          -2.1625    2.3707   -0.8486 C.ar    1  UNL1        0.0000
      8 C          -3.1176    1.9035    0.0478 C.ar    1  UNL1        0.0000
      9 C          -3.1423    0.5597    0.3946 C.ar    1  UNL1        0.0000
     10 C          -2.2101   -0.2909   -0.1628 C.ar    1  UNL1        0.0000
     11 C          -2.2890   -1.6870    0.2410 C.2     1  UNL1        0.0000
     12 O          -1.4575   -2.7012   -0.1941 O.3     1  UNL1        0.0000
     13 O          -3.1545   -2.1380    1.0601 O.2     1  UNL1        0.0000
     14 H           4.2994    1.0346    0.6865 H       1  UNL1        0.0000
     15 H           5.6002   -0.1975    0.4498 H       1  UNL1        0.0000
     16 H           4.3259    0.1444   -0.8572 H       1  UNL1        0.0000
     17 H           4.1143   -1.9518    0.8007 H       1  UNL1        0.0000
     18 H           3.3408   -0.6869    1.8455 H       1  UNL1        0.0000
     19 H          -0.4833    1.8564   -2.0999 H       1  UNL1        0.0000
     20 H          -2.1692    3.4314   -1.1008 H       1  UNL1        0.0000
     21 H          -3.8211    2.6038    0.4543 H       1  UNL1        0.0000
     22 H          -3.9204    0.2874    1.0985 H       1  UNL1        0.0000
     23 H          -1.1638   -3.4645    0.4033 H       1  UNL1        0.0000
@<TRIPOS>BOND
     1     1     2    1
     2     2     3    1
     3     3     4    1
     4     4     5    1
     5     5     6   ar
     6     6     7   ar
     7     7     8   ar
     8     8     9   ar
     9     9    10   ar
    10    10    11    1
    11    11    12    1
    12    11    13    2
    13    10     5   ar
    14     1    14    1
    15     1    15    1
    16     1    16    1
    17     2    17    1
    18     2    18    1
    19     6    19    1
    20     7    20    1
    21     8    21    1
    22     9    22    1
    23    12    23    1
