
     RDKit          3D

 32 33  0  0  0  0  0  0  0  0999 V2000
    4.7867    0.2136    0.9267 C   0  0  0  0  0  0  0  0  0  0  0  0
    4.4562   -1.2328    0.5538 C   0  0  0  0  0  0  0  0  0  0  0  0
    3.0645   -1.3928    0.7662 O   0  0  0  0  0  0  0  0  0  0  0  0
    2.1995   -0.5803    0.0444 C   0  0  0  0  0  0  0  0  0  0  0  0
    2.6216    0.3412   -0.8372 N   0  0  0  0  0  0  0  0  0  0  0  0
    1.7823    1.1323   -1.5401 C   0  0  0  0  0  0  0  0  0  0  0  0
    2.2465    2.1045   -2.4711 C   0  0  0  0  0  0  0  0  0  0  0  0
    2.6116    2.9167   -3.2415 N   0  0  0  0  0  0  0  0  0  0  0  0
    0.4677    0.9545   -1.3146 N   0  0  0  0  0  0  0  0  0  0  0  0
   -0.0246    0.0550   -0.4504 C   0  0  0  0  0  0  0  0  0  0  0  0
   -1.4473   -0.0883   -0.2523 N   0  0  0  0  0  0  0  0  0  0  0  0
   -2.3289    0.7580   -1.0045 C   0  0  0  0  0  0  0  0  0  0  0  0
   -3.6155    1.0558   -0.2721 C   0  0  0  0  0  0  0  0  0  0  0  0
   -4.2639   -0.1879    0.2781 C   0  0  0  0  0  0  0  0  0  0  0  0
   -3.3865   -1.4117    0.1442 C   0  0  0  0  0  0  0  0  0  0  0  0
   -2.0002   -1.0380    0.6610 C   0  0  0  0  0  0  0  0  0  0  0  0
    0.8604   -0.7046    0.2209 N   0  0  0  0  0  0  0  0  0  0  0  0
    3.9894    0.6738    1.5359 H   0  0  0  0  0  0  0  0  0  0  0  0
    5.7138    0.2032    1.5289 H   0  0  0  0  0  0  0  0  0  0  0  0
    4.9741    0.8381    0.0431 H   0  0  0  0  0  0  0  0  0  0  0  0
    4.6026   -1.3038   -0.5574 H   0  0  0  0  0  0  0  0  0  0  0  0
    5.0581   -1.9547    1.1070 H   0  0  0  0  0  0  0  0  0  0  0  0
   -2.5079    0.2873   -2.0005 H   0  0  0  0  0  0  0  0  0  0  0  0
   -1.8282    1.7236   -1.2134 H   0  0  0  0  0  0  0  0  0  0  0  0
   -3.4317    1.8246    0.4884 H   0  0  0  0  0  0  0  0  0  0  0  0
   -4.2942    1.5390   -1.0349 H   0  0  0  0  0  0  0  0  0  0  0  0
   -4.4390   -0.0175    1.3695 H   0  0  0  0  0  0  0  0  0  0  0  0
   -5.2492   -0.3219   -0.1917 H   0  0  0  0  0  0  0  0  0  0  0  0
   -3.8448   -2.2263    0.7142 H   0  0  0  0  0  0  0  0  0  0  0  0
   -3.2539   -1.6754   -0.9322 H   0  0  0  0  0  0  0  0  0  0  0  0
   -1.3554   -1.9435    0.7584 H   0  0  0  0  0  0  0  0  0  0  0  0
   -2.1640   -0.5418    1.6472 H   0  0  0  0  0  0  0  0  0  0  0  0
  1  2  1  0
  2  3  1  0
  3  4  1  0
  4  5  2  0
  5  6  1  0
  6  7  1  0
  7  8  3  0
  6  9  2  0
  9 10  1  0
 10 11  1  0
 11 12  1  0
 12 13  1  0
 13 14  1  0
 14 15  1  0
 15 16  1  0
 10 17  2  0
 17  4  1  0
 16 11  1  0
  1 18  1  0
  1 19  1  0
  1 20  1  0
  2 21  1  0
  2 22  1  0
 12 23  1  0
 12 24  1  0
 13 25  1  0
 13 26  1  0
 14 27  1  0
 14 28  1  0
 15 29  1  0
 15 30  1  0
 16 31  1  0
 16 32  1  0
M  END
$$$$
