@<TRIPOS>MOLECULE
*****
 32 33 0 0 0
SMALL
GASTEIGER

@<TRIPOS>ATOM
      1 C           4.7867    0.2136    0.9267 C.3     1  UNL1       -0.0306
      2 C           4.4562   -1.2328    0.5538 C.3     1  UNL1        0.0899
      3 O           3.0645   -1.3928    0.7662 O.3     1  UNL1       -0.4626
      4 C           2.1995   -0.5803    0.0444 C.ar    1  UNL1        0.3234
      5 N           2.6216    0.3412   -0.8372 N.ar    1  UNL1       -0.1652
      6 C           1.7823    1.1323   -1.5401 C.ar    1  UNL1        0.2392
      7 C           2.2465    2.1045   -2.4711 C.1     1  UNL1        0.1402
      8 N           2.6116    2.9167   -3.2415 N.1     1  UNL1       -0.1876
      9 N           0.4677    0.9545   -1.3146 N.ar    1  UNL1       -0.1849
     10 C          -0.0246    0.0550   -0.4504 C.ar    1  UNL1        0.2247
     11 N          -1.4473   -0.0883   -0.2523 N.pl3   1  UNL1       -0.2995
     12 C          -2.3289    0.7580   -1.0045 C.3     1  UNL1        0.0149
     13 C          -3.6155    1.0558   -0.2721 C.3     1  UNL1       -0.0371
     14 C          -4.2639   -0.1879    0.2781 C.3     1  UNL1       -0.0502
     15 C          -3.3865   -1.4117    0.1442 C.3     1  UNL1       -0.0371
     16 C          -2.0002   -1.0380    0.6610 C.3     1  UNL1        0.0149
     17 N           0.8604   -0.7046    0.2209 N.ar    1  UNL1       -0.1610
     18 H           3.9894    0.6738    1.5359 H       1  UNL1        0.0262
     19 H           5.7138    0.2032    1.5289 H       1  UNL1        0.0262
     20 H           4.9741    0.8381    0.0431 H       1  UNL1        0.0262
     21 H           4.6026   -1.3038   -0.5574 H       1  UNL1        0.0695
     22 H           5.0581   -1.9547    1.1070 H       1  UNL1        0.0695
     23 H          -2.5079    0.2873   -2.0005 H       1  UNL1        0.0464
     24 H          -1.8282    1.7236   -1.2134 H       1  UNL1        0.0464
     25 H          -3.4317    1.8246    0.4884 H       1  UNL1        0.0280
     26 H          -4.2942    1.5390   -1.0349 H       1  UNL1        0.0280
     27 H          -4.4390   -0.0175    1.3695 H       1  UNL1        0.0266
     28 H          -5.2492   -0.3219   -0.1917 H       1  UNL1        0.0266
     29 H          -3.8448   -2.2263    0.7142 H       1  UNL1        0.0280
     30 H          -3.2539   -1.6754   -0.9322 H       1  UNL1        0.0280
     31 H          -1.3554   -1.9435    0.7584 H       1  UNL1        0.0464
     32 H          -2.1640   -0.5418    1.6472 H       1  UNL1        0.0464
@<TRIPOS>BOND
     1     1     2    1
     2     2     3    1
     3     3     4    1
     4     4     5   ar
     5     5     6   ar
     6     6     7    1
     7     7     8    3
     8     6     9   ar
     9     9    10   ar
    10    10    11    1
    11    11    12    1
    12    12    13    1
    13    13    14    1
    14    14    15    1
    15    15    16    1
    16    10    17   ar
    17    17     4   ar
    18    16    11    1
    19     1    18    1
    20     1    19    1
    21     1    20    1
    22     2    21    1
    23     2    22    1
    24    12    23    1
    25    12    24    1
    26    13    25    1
    27    13    26    1
    28    14    27    1
    29    14    28    1
    30    15    29    1
    31    15    30    1
    32    16    31    1
    33    16    32    1
