@<TRIPOS>MOLECULE
*****
 46 49 0 0 0
SMALL
GASTEIGER

@<TRIPOS>ATOM
      1 C          -2.5188   -1.1425   -0.2691 C.3     1  UNL1        0.0854
      2 N          -1.7342   -2.3033   -0.5408 N.3     1  UNL1       -0.3197
      3 C          -3.5790   -1.5362    0.7663 C.3     1  UNL1       -0.0173
      4 C          -4.5430   -2.6457    0.3569 C.3     1  UNL1       -0.0480
      5 C          -5.0103   -1.2162    0.5212 C.3     1  UNL1       -0.0480
      6 C          -1.7719    0.0059    0.2775 C.2     1  UNL1        0.2337
      7 O          -2.5552    0.9770    0.4819 O.2     1  UNL1       -0.2738
      8 N          -0.3743    0.0264    0.5394 N.am    1  UNL1       -0.2853
      9 C           0.5696   -1.0568    0.3241 C.3     1  UNL1        0.0411
     10 C           1.9079   -0.4075    0.4534 C.2     1  UNL1       -0.0220
     11 C           1.7173    0.8373    0.8729 C.2     1  UNL1       -0.0540
     12 C           0.2935    1.1904    1.0772 C.3     1  UNL1        0.0706
     13 C          -0.1208    2.4573    0.4900 C.ar    1  UNL1       -0.0232
     14 C          -0.2763    2.6538   -0.8485 C.ar    1  UNL1       -0.0565
     15 C          -0.6774    3.9014   -1.3324 C.ar    1  UNL1       -0.0614
     16 C          -0.9253    4.9609   -0.4769 C.ar    1  UNL1       -0.0617
     17 C          -0.7797    4.8014    0.8736 C.ar    1  UNL1       -0.0614
     18 C          -0.3827    3.5528    1.2974 C.ar    1  UNL1       -0.0565
     19 C           3.1719   -1.0340    0.1695 C.ar    1  UNL1        0.0173
     20 C           4.3642   -0.3693    0.3129 C.ar    1  UNL1       -0.0163
     21 C           5.5894   -0.9365    0.0509 C.ar    1  UNL1        0.1241
     22 F           6.7804   -0.2860    0.1897 F       1  UNL1       -0.2055
     23 C           5.6477   -2.2541   -0.3842 C.ar    1  UNL1       -0.0237
     24 C           4.4535   -2.9507   -0.5379 C.ar    1  UNL1       -0.0231
     25 C           3.2521   -2.3190   -0.2562 C.ar    1  UNL1        0.1310
     26 F           2.1497   -3.0801   -0.4368 F       1  UNL1       -0.2049
     27 H          -3.1153   -0.8238   -1.1725 H       1  UNL1        0.0557
     28 H          -1.5420   -2.4398   -1.5602 H       1  UNL1        0.1189
     29 H          -2.1288   -3.1805   -0.1088 H       1  UNL1        0.1189
     30 H          -3.2538   -1.5307    1.8283 H       1  UNL1        0.0320
     31 H          -4.4744   -3.0557   -0.6718 H       1  UNL1        0.0269
     32 H          -4.8154   -3.3634    1.1719 H       1  UNL1        0.0269
     33 H          -5.3303   -0.6768   -0.4096 H       1  UNL1        0.0269
     34 H          -5.6635   -1.0172    1.3871 H       1  UNL1        0.0269
     35 H           0.4546   -1.7823    1.1396 H       1  UNL1        0.0514
     36 H           0.4979   -1.4921   -0.6923 H       1  UNL1        0.0514
     37 H           2.4793    1.5995    1.0751 H       1  UNL1        0.0597
     38 H           0.1155    1.1658    2.1699 H       1  UNL1        0.0595
     39 H          -0.0859    1.8293   -1.5482 H       1  UNL1        0.0621
     40 H          -0.8087    4.0803   -2.4104 H       1  UNL1        0.0618
     41 H          -1.2403    5.9394   -0.8634 H       1  UNL1        0.0618
     42 H          -0.9577    5.5852    1.5794 H       1  UNL1        0.0618
     43 H          -0.2651    3.4209    2.3767 H       1  UNL1        0.0621
     44 H           4.4120    0.6583    0.6464 H       1  UNL1        0.0653
     45 H           6.5787   -2.7546   -0.6061 H       1  UNL1        0.0647
     46 H           4.4949   -3.9885   -0.8803 H       1  UNL1        0.0647
@<TRIPOS>BOND
     1     1     2    1
     2     1     3    1
     3     3     4    1
     4     4     5    1
     5     1     6    1
     6     6     7    2
     7     6     8   am
     8     8     9    1
     9     9    10    1
    10    10    11    2
    11    11    12    1
    12    12    13    1
    13    13    14   ar
    14    14    15   ar
    15    15    16   ar
    16    16    17   ar
    17    17    18   ar
    18    10    19    1
    19    19    20   ar
    20    20    21   ar
    21    21    22    1
    22    21    23   ar
    23    23    24   ar
    24    24    25   ar
    25    25    26    1
    26     5     3    1
    27    12     8    1
    28    18    13   ar
    29    25    19   ar
    30     1    27    1
    31     2    28    1
    32     2    29    1
    33     3    30    1
    34     4    31    1
    35     4    32    1
    36     5    33    1
    37     5    34    1
    38     9    35    1
    39     9    36    1
    40    11    37    1
    41    12    38    1
    42    14    39    1
    43    15    40    1
    44    16    41    1
    45    17    42    1
    46    18    43    1
    47    20    44    1
    48    23    45    1
    49    24    46    1
