
     RDKit          3D

 46 49  0  0  0  0  0  0  0  0999 V2000
   -2.5188   -1.1425   -0.2691 C   0  0  1  0  0  0  0  0  0  0  0  0
   -1.7342   -2.3033   -0.5408 N   0  0  0  0  0  0  0  0  0  0  0  0
   -3.5790   -1.5362    0.7663 C   0  0  0  0  0  0  0  0  0  0  0  0
   -4.5430   -2.6457    0.3569 C   0  0  0  0  0  0  0  0  0  0  0  0
   -5.0103   -1.2162    0.5212 C   0  0  0  0  0  0  0  0  0  0  0  0
   -1.7719    0.0059    0.2775 C   0  0  0  0  0  0  0  0  0  0  0  0
   -2.5552    0.9770    0.4819 O   0  0  0  0  0  0  0  0  0  0  0  0
   -0.3743    0.0264    0.5394 N   0  0  0  0  0  0  0  0  0  0  0  0
    0.5696   -1.0568    0.3241 C   0  0  0  0  0  0  0  0  0  0  0  0
    1.9079   -0.4075    0.4534 C   0  0  0  0  0  0  0  0  0  0  0  0
    1.7173    0.8373    0.8729 C   0  0  0  0  0  0  0  0  0  0  0  0
    0.2935    1.1904    1.0772 C   0  0  1  0  0  0  0  0  0  0  0  0
   -0.1208    2.4573    0.4900 C   0  0  0  0  0  0  0  0  0  0  0  0
   -0.2763    2.6538   -0.8485 C   0  0  0  0  0  0  0  0  0  0  0  0
   -0.6774    3.9014   -1.3324 C   0  0  0  0  0  0  0  0  0  0  0  0
   -0.9253    4.9609   -0.4769 C   0  0  0  0  0  0  0  0  0  0  0  0
   -0.7797    4.8014    0.8736 C   0  0  0  0  0  0  0  0  0  0  0  0
   -0.3827    3.5528    1.2974 C   0  0  0  0  0  0  0  0  0  0  0  0
    3.1719   -1.0340    0.1695 C   0  0  0  0  0  0  0  0  0  0  0  0
    4.3642   -0.3693    0.3129 C   0  0  0  0  0  0  0  0  0  0  0  0
    5.5894   -0.9365    0.0509 C   0  0  0  0  0  0  0  0  0  0  0  0
    6.7804   -0.2860    0.1897 F   0  0  0  0  0  0  0  0  0  0  0  0
    5.6477   -2.2541   -0.3842 C   0  0  0  0  0  0  0  0  0  0  0  0
    4.4535   -2.9507   -0.5379 C   0  0  0  0  0  0  0  0  0  0  0  0
    3.2521   -2.3190   -0.2562 C   0  0  0  0  0  0  0  0  0  0  0  0
    2.1497   -3.0801   -0.4368 F   0  0  0  0  0  0  0  0  0  0  0  0
   -3.1153   -0.8238   -1.1725 H   0  0  0  0  0  0  0  0  0  0  0  0
   -1.5420   -2.4398   -1.5602 H   0  0  0  0  0  0  0  0  0  0  0  0
   -2.1288   -3.1805   -0.1088 H   0  0  0  0  0  0  0  0  0  0  0  0
   -3.2538   -1.5307    1.8283 H   0  0  0  0  0  0  0  0  0  0  0  0
   -4.4744   -3.0557   -0.6718 H   0  0  0  0  0  0  0  0  0  0  0  0
   -4.8154   -3.3634    1.1719 H   0  0  0  0  0  0  0  0  0  0  0  0
   -5.3303   -0.6768   -0.4096 H   0  0  0  0  0  0  0  0  0  0  0  0
   -5.6635   -1.0172    1.3871 H   0  0  0  0  0  0  0  0  0  0  0  0
    0.4546   -1.7823    1.1396 H   0  0  0  0  0  0  0  0  0  0  0  0
    0.4979   -1.4921   -0.6923 H   0  0  0  0  0  0  0  0  0  0  0  0
    2.4793    1.5995    1.0751 H   0  0  0  0  0  0  0  0  0  0  0  0
    0.1155    1.1658    2.1699 H   0  0  0  0  0  0  0  0  0  0  0  0
   -0.0859    1.8293   -1.5482 H   0  0  0  0  0  0  0  0  0  0  0  0
   -0.8087    4.0803   -2.4104 H   0  0  0  0  0  0  0  0  0  0  0  0
   -1.2403    5.9394   -0.8634 H   0  0  0  0  0  0  0  0  0  0  0  0
   -0.9577    5.5852    1.5794 H   0  0  0  0  0  0  0  0  0  0  0  0
   -0.2651    3.4209    2.3767 H   0  0  0  0  0  0  0  0  0  0  0  0
    4.4120    0.6583    0.6464 H   0  0  0  0  0  0  0  0  0  0  0  0
    6.5787   -2.7546   -0.6061 H   0  0  0  0  0  0  0  0  0  0  0  0
    4.4949   -3.9885   -0.8803 H   0  0  0  0  0  0  0  0  0  0  0  0
  1  2  1  0
  1  3  1  0
  3  4  1  0
  4  5  1  0
  1  6  1  0
  6  7  2  0
  6  8  1  0
  8  9  1  0
  9 10  1  0
 10 11  2  0
 11 12  1  0
 12 13  1  0
 13 14  2  0
 14 15  1  0
 15 16  2  0
 16 17  1  0
 17 18  2  0
 10 19  1  0
 19 20  2  0
 20 21  1  0
 21 22  1  0
 21 23  2  0
 23 24  1  0
 24 25  2  0
 25 26  1  0
  5  3  1  0
 12  8  1  0
 18 13  1  0
 25 19  1  0
  1 27  1  6
  2 28  1  0
  2 29  1  0
  3 30  1  0
  4 31  1  0
  4 32  1  0
  5 33  1  0
  5 34  1  0
  9 35  1  0
  9 36  1  0
 11 37  1  0
 12 38  1  1
 14 39  1  0
 15 40  1  0
 16 41  1  0
 17 42  1  0
 18 43  1  0
 20 44  1  0
 23 45  1  0
 24 46  1  0
M  END
$$$$
