@<TRIPOS>MOLECULE
*****
 74 76 0 0 0
SMALL
GASTEIGER

@<TRIPOS>ATOM
      1 C           1.4864    0.1215    1.1262 C.3     1  UNL1       -0.0291
      2 C           1.1233    0.4957   -0.3367 C.3     1  UNL1       -0.0486
      3 C          -0.2921    1.0062   -0.2331 C.3     1  UNL1       -0.0457
      4 C          -0.7574    0.7053    1.1466 C.3     1  UNL1       -0.0139
      5 C          -2.1328    0.1601    1.2032 C.2     1  UNL1       -0.0659
      6 C          -2.4572   -0.7476    2.3221 C.3     1  UNL1       -0.0312
      7 C          -1.4745   -0.6625    3.4512 C.3     1  UNL1       -0.0488
      8 C          -0.0361   -0.6247    3.0135 C.3     1  UNL1       -0.0465
      9 C           0.1686   -0.4651    1.5350 C.3     1  UNL1       -0.0222
     10 C          -0.2364   -1.6823    0.7535 C.3     1  UNL1       -0.0587
     11 C          -3.0965    0.4221    0.3334 C.2     1  UNL1       -0.0623
     12 C          -4.4370   -0.1361    0.4255 C.2     1  UNL1       -0.0624
     13 C          -5.3321    0.1947   -0.5061 C.2     1  UNL1       -0.0647
     14 C          -4.8808    1.1184   -1.5751 C.3     1  UNL1       -0.0051
     15 C          -6.0983    1.4995   -2.3716 C.3     1  UNL1        0.0613
     16 O          -5.6250    2.1890   -3.5034 O.3     1  UNL1       -0.3914
     17 C          -6.9079    0.3394   -2.8573 C.3     1  UNL1       -0.0001
     18 C          -7.0596   -0.7807   -1.8795 C.3     1  UNL1        0.0613
     19 O          -8.3550   -1.3093   -1.9140 O.3     1  UNL1       -0.3914
     20 C          -6.7183   -0.3346   -0.4804 C.3     1  UNL1       -0.0051
     21 C           2.6555   -0.8061    1.1318 C.3     1  UNL1       -0.0224
     22 C           3.0459   -1.1629    2.5357 C.3     1  UNL1       -0.0587
     23 C           3.8491   -0.2096    0.4518 C.2     1  UNL1       -0.0845
     24 C           4.3914   -0.7384   -0.6404 C.2     1  UNL1       -0.0821
     25 C           5.5296   -0.3768   -1.4912 C.3     1  UNL1        0.0026
     26 C           6.5297   -1.5152   -1.6351 C.3     1  UNL1       -0.0563
     27 C           6.2769    0.8594   -1.0679 C.3     1  UNL1        0.0665
     28 C           6.8651    0.7555    0.3153 C.3     1  UNL1       -0.0358
     29 C           5.4280    2.1007   -1.2291 C.3     1  UNL1       -0.0358
     30 O           7.3684    0.9919   -1.9451 O.3     1  UNL1       -0.3885
     31 H           1.6515    1.0662    1.6419 H       1  UNL1        0.0312
     32 H           1.1691   -0.4412   -0.9261 H       1  UNL1        0.0268
     33 H           1.8182    1.2791   -0.7038 H       1  UNL1        0.0268
     34 H          -0.2619    2.1252   -0.3519 H       1  UNL1        0.0271
     35 H          -0.9378    0.6260   -1.0509 H       1  UNL1        0.0271
     36 H          -0.5873    1.5423    1.8247 H       1  UNL1        0.0351
     37 H          -2.7143   -1.7810    2.0113 H       1  UNL1        0.0310
     38 H          -3.4292   -0.3516    2.7446 H       1  UNL1        0.0310
     39 H          -1.6126   -1.5873    4.0493 H       1  UNL1        0.0268
     40 H          -1.7323    0.1662    4.1416 H       1  UNL1        0.0268
     41 H           0.4204    0.2512    3.5168 H       1  UNL1        0.0271
     42 H           0.5191   -1.5226    3.3445 H       1  UNL1        0.0271
     43 H           0.5208   -2.0875    0.0801 H       1  UNL1        0.0235
     44 H          -1.1270   -1.4697    0.0917 H       1  UNL1        0.0235
     45 H          -0.5035   -2.5219    1.4415 H       1  UNL1        0.0235
     46 H          -2.8296    1.0918   -0.4724 H       1  UNL1        0.0617
     47 H          -4.7083   -0.8030    1.2253 H       1  UNL1        0.0617
     48 H          -4.5642    2.0545   -1.0381 H       1  UNL1        0.0335
     49 H          -4.0829    0.7087   -2.2021 H       1  UNL1        0.0335
     50 H          -6.7336    2.2163   -1.8201 H       1  UNL1        0.0597
     51 H          -4.8418    1.6567   -3.8118 H       1  UNL1        0.2098
     52 H          -6.5333   -0.0150   -3.8537 H       1  UNL1        0.0315
     53 H          -7.9389    0.7408   -3.0567 H       1  UNL1        0.0315
     54 H          -6.3430   -1.5910   -2.1355 H       1  UNL1        0.0597
     55 H          -8.8223   -1.0811   -1.0652 H       1  UNL1        0.2098
     56 H          -7.3909    0.5450   -0.2777 H       1  UNL1        0.0335
     57 H          -6.8451   -1.1582    0.2267 H       1  UNL1        0.0335
     58 H           2.4551   -1.7663    0.6130 H       1  UNL1        0.0343
     59 H           2.6969   -2.2029    2.8059 H       1  UNL1        0.0235
     60 H           2.6473   -0.4802    3.3050 H       1  UNL1        0.0235
     61 H           4.1597   -1.1126    2.6796 H       1  UNL1        0.0235
     62 H           4.3973    0.6793    0.7399 H       1  UNL1        0.0572
     63 H           3.9468   -1.6570   -1.0681 H       1  UNL1        0.0573
     64 H           5.1579   -0.1826   -2.5237 H       1  UNL1        0.0368
     65 H           6.0185   -2.3421   -2.1635 H       1  UNL1        0.0236
     66 H           6.6882   -1.8849   -0.5809 H       1  UNL1        0.0236
     67 H           7.4480   -1.1709   -2.1081 H       1  UNL1        0.0236
     68 H           6.5734    1.6656    0.8851 H       1  UNL1        0.0257
     69 H           7.9917    0.7875    0.3179 H       1  UNL1        0.0257
     70 H           6.6242   -0.1948    0.8385 H       1  UNL1        0.0257
     71 H           5.5972    2.7689   -0.3403 H       1  UNL1        0.0257
     72 H           5.7644    2.6948   -2.1022 H       1  UNL1        0.0257
     73 H           4.3554    1.8441   -1.3539 H       1  UNL1        0.0257
     74 H           7.0972    1.4878   -2.7553 H       1  UNL1        0.2102
@<TRIPOS>BOND
     1     1     2    1
     2     2     3    1
     3     3     4    1
     4     4     5    1
     5     5     6    1
     6     6     7    1
     7     7     8    1
     8     8     9    1
     9     9    10    1
    10     5    11    2
    11    11    12    1
    12    12    13    2
    13    13    14    1
    14    14    15    1
    15    15    16    1
    16    15    17    1
    17    17    18    1
    18    18    19    1
    19    18    20    1
    20     1    21    1
    21    21    22    1
    22    21    23    1
    23    23    24    2
    24    24    25    1
    25    25    26    1
    26    25    27    1
    27    27    28    1
    28    27    29    1
    29    27    30    1
    30     9     1    1
    31    20    13    1
    32     9     4    1
    33     1    31    1
    34     2    32    1
    35     2    33    1
    36     3    34    1
    37     3    35    1
    38     4    36    1
    39     6    37    1
    40     6    38    1
    41     7    39    1
    42     7    40    1
    43     8    41    1
    44     8    42    1
    45    10    43    1
    46    10    44    1
    47    10    45    1
    48    11    46    1
    49    12    47    1
    50    14    48    1
    51    14    49    1
    52    15    50    1
    53    16    51    1
    54    17    52    1
    55    17    53    1
    56    18    54    1
    57    19    55    1
    58    20    56    1
    59    20    57    1
    60    21    58    1
    61    22    59    1
    62    22    60    1
    63    22    61    1
    64    23    62    1
    65    24    63    1
    66    25    64    1
    67    26    65    1
    68    26    66    1
    69    26    67    1
    70    28    68    1
    71    28    69    1
    72    28    70    1
    73    29    71    1
    74    29    72    1
    75    29    73    1
    76    30    74    1
