
     RDKit          3D

 45 48  0  0  0  0  0  0  0  0999 V2000
    1.2035   -0.9310    0.8512 O   0  0  0  0  0  0  0  0  0  0  0  0
    1.6111   -0.6564   -0.2968 C   0  0  0  0  0  0  0  0  0  0  0  0
    0.7567   -0.8286   -1.4608 C   0  0  0  0  0  0  0  0  0  0  0  0
   -0.5863   -1.3376   -1.1809 C   0  0  0  0  0  0  0  0  0  0  0  0
   -1.5940   -0.4728   -0.9274 N   0  0  0  0  0  0  0  0  0  0  0  0
   -2.8486   -0.8531   -0.6623 C   0  0  0  0  0  0  0  0  0  0  0  0
   -3.8838    0.0933   -0.3998 N   0  0  0  0  0  0  0  0  0  0  0  0
   -3.5676    1.5156   -0.4214 C   0  0  0  0  0  0  0  0  0  0  0  0
   -4.3036    2.1260    0.7587 C   0  0  0  0  0  0  0  0  0  0  0  0
   -5.6622    1.9808    0.6378 O   0  0  0  0  0  0  0  0  0  0  0  0
   -6.0758    1.0028   -0.2282 C   0  0  0  0  0  0  0  0  0  0  0  0
   -5.2377   -0.2771   -0.1115 C   0  0  0  0  0  0  0  0  0  0  0  0
   -3.1368   -2.2033   -0.6452 C   0  0  0  0  0  0  0  0  0  0  0  0
   -2.1220   -3.1168   -0.9020 C   0  0  0  0  0  0  0  0  0  0  0  0
   -2.2990   -4.3588   -0.9058 O   0  0  0  0  0  0  0  0  0  0  0  0
   -0.8810   -2.6688   -1.1617 N   0  0  0  0  0  0  0  0  0  0  0  0
    2.9316   -0.1712   -0.4356 N   0  0  0  0  0  0  0  0  0  0  0  0
    3.6201    0.2144   -1.6793 C   0  0  0  0  0  0  0  0  0  0  0  0
    4.5018    1.3240   -1.2158 C   0  0  0  0  0  0  0  0  0  0  0  0
    4.8516    0.9417    0.1756 C   0  0  0  0  0  0  0  0  0  0  0  0
    5.9032    1.3262    1.0027 C   0  0  0  0  0  0  0  0  0  0  0  0
    6.0117    0.8251    2.2783 C   0  0  0  0  0  0  0  0  0  0  0  0
    7.3483    1.3133    3.3306 Cl  0  0  0  0  0  0  0  0  0  0  0  0
    5.0549   -0.0641    2.7130 C   0  0  0  0  0  0  0  0  0  0  0  0
    4.0160   -0.4408    1.8886 C   0  0  0  0  0  0  0  0  0  0  0  0
    3.8925    0.0522    0.6070 C   0  0  0  0  0  0  0  0  0  0  0  0
    1.2811   -1.4289   -2.2613 H   0  0  0  0  0  0  0  0  0  0  0  0
    0.6270    0.1850   -1.9415 H   0  0  0  0  0  0  0  0  0  0  0  0
   -2.4999    1.7186   -0.3751 H   0  0  0  0  0  0  0  0  0  0  0  0
   -3.9740    1.9690   -1.3722 H   0  0  0  0  0  0  0  0  0  0  0  0
   -3.9899    3.1689    0.9477 H   0  0  0  0  0  0  0  0  0  0  0  0
   -3.9857    1.5101    1.6510 H   0  0  0  0  0  0  0  0  0  0  0  0
   -7.1521    0.7939   -0.0259 H   0  0  0  0  0  0  0  0  0  0  0  0
   -6.0224    1.3295   -1.2912 H   0  0  0  0  0  0  0  0  0  0  0  0
   -5.3900   -0.6897    0.8993 H   0  0  0  0  0  0  0  0  0  0  0  0
   -5.6483   -0.9600   -0.8887 H   0  0  0  0  0  0  0  0  0  0  0  0
   -4.1338   -2.5760   -0.4370 H   0  0  0  0  0  0  0  0  0  0  0  0
   -0.0786   -3.3043   -1.3617 H   0  0  0  0  0  0  0  0  0  0  0  0
    2.8119    0.5828   -2.3511 H   0  0  0  0  0  0  0  0  0  0  0  0
    4.1716   -0.6486   -2.0966 H   0  0  0  0  0  0  0  0  0  0  0  0
    5.4507    1.2917   -1.8001 H   0  0  0  0  0  0  0  0  0  0  0  0
    4.0232    2.3153   -1.2731 H   0  0  0  0  0  0  0  0  0  0  0  0
    6.6512    2.0275    0.6493 H   0  0  0  0  0  0  0  0  0  0  0  0
    5.1124   -0.4704    3.6988 H   0  0  0  0  0  0  0  0  0  0  0  0
    3.2410   -1.1494    2.2149 H   0  0  0  0  0  0  0  0  0  0  0  0
  1  2  2  0
  2  3  1  0
  3  4  1  0
  4  5  2  0
  5  6  1  0
  6  7  1  0
  7  8  1  0
  8  9  1  0
  9 10  1  0
 10 11  1  0
 11 12  1  0
  6 13  2  0
 13 14  1  0
 14 15  2  0
 14 16  1  0
  2 17  1  0
 17 18  1  0
 18 19  1  0
 19 20  1  0
 20 21  2  0
 21 22  1  0
 22 23  1  0
 22 24  2  0
 24 25  1  0
 25 26  2  0
 16  4  1  0
 26 17  1  0
 12  7  1  0
 26 20  1  0
  3 27  1  0
  3 28  1  0
  8 29  1  0
  8 30  1  0
  9 31  1  0
  9 32  1  0
 11 33  1  0
 11 34  1  0
 12 35  1  0
 12 36  1  0
 13 37  1  0
 16 38  1  0
 18 39  1  0
 18 40  1  0
 19 41  1  0
 19 42  1  0
 21 43  1  0
 24 44  1  0
 25 45  1  0
M  END
$$$$
