@<TRIPOS>MOLECULE
*****
 45 48 0 0 0
SMALL
GASTEIGER

@<TRIPOS>ATOM
      1 O           1.2035   -0.9310    0.8512 O.2     1  UNL1       -0.2748
      2 C           1.6111   -0.6564   -0.2968 C.2     1  UNL1        0.2271
      3 C           0.7567   -0.8286   -1.4608 C.3     1  UNL1        0.0826
      4 C          -0.5863   -1.3376   -1.1809 C.ar    1  UNL1        0.1206
      5 N          -1.5940   -0.4728   -0.9274 N.ar    1  UNL1       -0.2186
      6 C          -2.8486   -0.8531   -0.6623 C.ar    1  UNL1        0.1285
      7 N          -3.8838    0.0933   -0.3998 N.pl3   1  UNL1       -0.3106
      8 C          -3.5676    1.5156   -0.4214 C.3     1  UNL1        0.0370
      9 C          -4.3036    2.1260    0.7587 C.3     1  UNL1        0.0634
     10 O          -5.6622    1.9808    0.6378 O.3     1  UNL1       -0.3767
     11 C          -6.0758    1.0028   -0.2282 C.3     1  UNL1        0.0634
     12 C          -5.2377   -0.2771   -0.1115 C.3     1  UNL1        0.0370
     13 C          -3.1368   -2.2033   -0.6452 C.ar    1  UNL1        0.0427
     14 C          -2.1220   -3.1168   -0.9020 C.ar    1  UNL1        0.2533
     15 O          -2.2990   -4.3588   -0.9058 O.2     1  UNL1       -0.2677
     16 N          -0.8810   -2.6688   -1.1617 N.ar    1  UNL1       -0.3104
     17 N           2.9316   -0.1712   -0.4356 N.am    1  UNL1       -0.2705
     18 C           3.6201    0.2144   -1.6793 C.3     1  UNL1        0.0238
     19 C           4.5018    1.3240   -1.2158 C.3     1  UNL1       -0.0096
     20 C           4.8516    0.9417    0.1756 C.ar    1  UNL1       -0.0231
     21 C           5.9032    1.3262    1.0027 C.ar    1  UNL1       -0.0384
     22 C           6.0117    0.8251    2.2783 C.ar    1  UNL1        0.0413
     23 CL          7.3483    1.3133    3.3306 Cl      1  UNL1       -0.0835
     24 C           5.0549   -0.0641    2.7130 C.ar    1  UNL1       -0.0416
     25 C           4.0160   -0.4408    1.8886 C.ar    1  UNL1       -0.0386
     26 C           3.8925    0.0522    0.6070 C.ar    1  UNL1        0.0396
     27 H           1.2811   -1.4289   -2.2613 H       1  UNL1        0.0438
     28 H           0.6270    0.1850   -1.9415 H       1  UNL1        0.0438
     29 H          -2.4999    1.7186   -0.3751 H       1  UNL1        0.0487
     30 H          -3.9740    1.9690   -1.3722 H       1  UNL1        0.0487
     31 H          -3.9899    3.1689    0.9477 H       1  UNL1        0.0575
     32 H          -3.9857    1.5101    1.6510 H       1  UNL1        0.0575
     33 H          -7.1521    0.7939   -0.0259 H       1  UNL1        0.0575
     34 H          -6.0224    1.3295   -1.2912 H       1  UNL1        0.0575
     35 H          -5.3900   -0.6897    0.8993 H       1  UNL1        0.0487
     36 H          -5.6483   -0.9600   -0.8887 H       1  UNL1        0.0487
     37 H          -4.1338   -2.5760   -0.4370 H       1  UNL1        0.0706
     38 H          -0.0786   -3.3043   -1.3617 H       1  UNL1        0.1700
     39 H           2.8119    0.5828   -2.3511 H       1  UNL1        0.0472
     40 H           4.1716   -0.6486   -2.0966 H       1  UNL1        0.0472
     41 H           5.4507    1.2917   -1.8001 H       1  UNL1        0.0329
     42 H           4.0232    2.3153   -1.2731 H       1  UNL1        0.0329
     43 H           6.6512    2.0275    0.6493 H       1  UNL1        0.0635
     44 H           5.1124   -0.4704    3.6988 H       1  UNL1        0.0633
     45 H           3.2410   -1.1494    2.2149 H       1  UNL1        0.0637
@<TRIPOS>BOND
     1     1     2    2
     2     2     3    1
     3     3     4    1
     4     4     5   ar
     5     5     6   ar
     6     6     7    1
     7     7     8    1
     8     8     9    1
     9     9    10    1
    10    10    11    1
    11    11    12    1
    12     6    13   ar
    13    13    14   ar
    14    14    15    2
    15    14    16   ar
    16     2    17   am
    17    17    18    1
    18    18    19    1
    19    19    20    1
    20    20    21   ar
    21    21    22   ar
    22    22    23    1
    23    22    24   ar
    24    24    25   ar
    25    25    26   ar
    26    16     4   ar
    27    26    17    1
    28    12     7    1
    29    26    20   ar
    30     3    27    1
    31     3    28    1
    32     8    29    1
    33     8    30    1
    34     9    31    1
    35     9    32    1
    36    11    33    1
    37    11    34    1
    38    12    35    1
    39    12    36    1
    40    13    37    1
    41    16    38    1
    42    18    39    1
    43    18    40    1
    44    19    41    1
    45    19    42    1
    46    21    43    1
    47    24    44    1
    48    25    45    1
