
     RDKit          3D

 57 61  0  0  0  0  0  0  0  0999 V2000
    3.1804   -0.3982    0.1053 O   0  0  0  0  0  0  0  0  0  0  0  0
    3.0582    0.0462   -1.0638 C   0  0  0  0  0  0  0  0  0  0  0  0
    2.2339   -0.5905   -2.0455 N   0  0  0  0  0  0  0  0  0  0  0  0
    1.5102   -1.7819   -1.7058 C   0  0  0  0  0  0  0  0  0  0  0  0
    2.1146   -2.9910   -1.9024 C   0  0  0  0  0  0  0  0  0  0  0  0
    1.4571   -4.1595   -1.5902 C   0  0  0  0  0  0  0  0  0  0  0  0
    0.1874   -4.1122   -1.0786 C   0  0  0  0  0  0  0  0  0  0  0  0
   -0.4299   -2.9005   -0.8769 C   0  0  0  0  0  0  0  0  0  0  0  0
   -1.7951   -2.8185   -0.3280 C   0  0  0  0  0  0  0  0  0  0  0  0
   -2.5439   -3.9153    0.0182 C   0  0  0  0  0  0  0  0  0  0  0  0
   -3.8064   -3.7851    0.5236 N   0  0  0  0  0  0  0  0  0  0  0  0
   -4.7372   -4.6633    0.9349 C   0  0  0  0  0  0  0  0  0  0  0  0
   -5.8723   -4.0095    1.3681 C   0  0  0  0  0  0  0  0  0  0  0  0
   -5.6061   -2.7006    1.2086 N   0  0  0  0  0  0  0  0  0  0  0  0
   -4.3498   -2.5685    0.6953 C   0  0  0  0  0  0  0  0  0  0  0  0
   -3.5906   -1.4742    0.3450 C   0  0  0  0  0  0  0  0  0  0  0  0
   -4.1442   -0.1718    0.5173 N   0  0  0  0  0  0  0  0  0  0  0  0
   -3.3652    1.0123    0.1554 C   0  0  0  0  0  0  0  0  0  0  0  0
   -4.1165    2.2470    0.4104 C   0  0  0  0  0  0  0  0  0  0  0  0
   -4.0173    2.8604    1.6306 C   0  0  0  0  0  0  0  0  0  0  0  0
   -4.7305    4.0226    1.8568 C   0  0  0  0  0  0  0  0  0  0  0  0
   -5.5007    4.5353    0.9017 N   0  0  0  0  0  0  0  0  0  0  0  0
   -5.6066    3.9415   -0.3022 C   0  0  0  0  0  0  0  0  0  0  0  0
   -4.9169    2.7845   -0.5745 C   0  0  0  0  0  0  0  0  0  0  0  0
   -2.3521   -1.6081   -0.1506 N   0  0  0  0  0  0  0  0  0  0  0  0
    0.2529   -1.7364   -1.1991 C   0  0  0  0  0  0  0  0  0  0  0  0
    3.7727    1.2321   -1.4175 N   0  0  0  0  0  0  0  0  0  0  0  0
    4.6109    1.9205   -0.4971 C   0  0  0  0  0  0  0  0  0  0  0  0
    4.0498    2.9085    0.2774 C   0  0  0  0  0  0  0  0  0  0  0  0
    4.8154    3.6121    1.1900 C   0  0  0  0  0  0  0  0  0  0  0  0
    6.1577    3.3321    1.3371 C   0  0  0  0  0  0  0  0  0  0  0  0
    6.7121    2.3396    0.5561 C   0  0  0  0  0  0  0  0  0  0  0  0
    8.1650    2.0439    0.7224 C   0  0  0  0  0  0  0  0  0  0  0  0
    8.8576    3.1251    1.2133 F   0  0  0  0  0  0  0  0  0  0  0  0
    8.7524    1.6017   -0.4252 F   0  0  0  0  0  0  0  0  0  0  0  0
    8.2527    1.0430    1.6730 F   0  0  0  0  0  0  0  0  0  0  0  0
    5.9586    1.6241   -0.3641 C   0  0  0  0  0  0  0  0  0  0  0  0
    2.1431   -0.2070   -3.0157 H   0  0  0  0  0  0  0  0  0  0  0  0
    3.1318   -3.0906   -2.3098 H   0  0  0  0  0  0  0  0  0  0  0  0
    1.9542   -5.1268   -1.7530 H   0  0  0  0  0  0  0  0  0  0  0  0
   -0.2915   -5.0488   -0.8479 H   0  0  0  0  0  0  0  0  0  0  0  0
   -2.1440   -4.9068   -0.1043 H   0  0  0  0  0  0  0  0  0  0  0  0
   -4.5844   -5.7470    0.9159 H   0  0  0  0  0  0  0  0  0  0  0  0
   -6.7936   -4.4523    1.7582 H   0  0  0  0  0  0  0  0  0  0  0  0
   -5.0966   -0.0113    0.8961 H   0  0  0  0  0  0  0  0  0  0  0  0
   -2.3954    1.0376    0.6779 H   0  0  0  0  0  0  0  0  0  0  0  0
   -3.1329    0.9817   -0.9334 H   0  0  0  0  0  0  0  0  0  0  0  0
   -3.3829    2.4129    2.3766 H   0  0  0  0  0  0  0  0  0  0  0  0
   -4.6719    4.5269    2.8070 H   0  0  0  0  0  0  0  0  0  0  0  0
   -6.2474    4.3957   -1.0522 H   0  0  0  0  0  0  0  0  0  0  0  0
   -5.0030    2.3173   -1.5283 H   0  0  0  0  0  0  0  0  0  0  0  0
   -0.2498   -0.7998   -1.0328 H   0  0  0  0  0  0  0  0  0  0  0  0
    3.6697    1.5959   -2.3826 H   0  0  0  0  0  0  0  0  0  0  0  0
    3.0007    3.1515    0.1857 H   0  0  0  0  0  0  0  0  0  0  0  0
    4.3502    4.3822    1.7851 H   0  0  0  0  0  0  0  0  0  0  0  0
    6.7309    3.8979    2.0578 H   0  0  0  0  0  0  0  0  0  0  0  0
    6.3944    0.8436   -0.9782 H   0  0  0  0  0  0  0  0  0  0  0  0
  1  2  2  0
  2  3  1  0
  3  4  1  0
  4  5  2  0
  5  6  1  0
  6  7  2  0
  7  8  1  0
  8  9  1  0
  9 10  2  0
 10 11  1  0
 11 12  1  0
 12 13  2  0
 13 14  1  0
 14 15  2  0
 15 16  1  0
 16 17  1  0
 17 18  1  0
 18 19  1  0
 19 20  2  0
 20 21  1  0
 21 22  2  0
 22 23  1  0
 23 24  2  0
 16 25  2  0
  8 26  2  0
  2 27  1  0
 27 28  1  0
 28 29  2  0
 29 30  1  0
 30 31  2  0
 31 32  1  0
 32 33  1  0
 33 34  1  0
 33 35  1  0
 33 36  1  0
 32 37  2  0
 26  4  1  0
 37 28  1  0
 25  9  1  0
 15 11  1  0
 24 19  1  0
  3 38  1  0
  5 39  1  0
  6 40  1  0
  7 41  1  0
 10 42  1  0
 12 43  1  0
 13 44  1  0
 17 45  1  0
 18 46  1  0
 18 47  1  0
 20 48  1  0
 21 49  1  0
 23 50  1  0
 24 51  1  0
 26 52  1  0
 27 53  1  0
 29 54  1  0
 30 55  1  0
 31 56  1  0
 37 57  1  0
M  END
$$$$
