@<TRIPOS>MOLECULE
*****
 57 61 0 0 0
SMALL
GASTEIGER

@<TRIPOS>ATOM
      1 O           3.1804   -0.3982    0.1053 O.2     1  UNL1       -0.2522
      2 C           3.0582    0.0462   -1.0638 C.2     1  UNL1        0.3081
      3 N           2.2339   -0.5905   -2.0455 N.am    1  UNL1       -0.2692
      4 C           1.5102   -1.7819   -1.7058 C.ar    1  UNL1        0.0354
      5 C           2.1146   -2.9910   -1.9024 C.ar    1  UNL1       -0.0404
      6 C           1.4571   -4.1595   -1.5902 C.ar    1  UNL1       -0.0594
      7 C           0.1874   -4.1122   -1.0786 C.ar    1  UNL1       -0.0524
      8 C          -0.4299   -2.9005   -0.8769 C.ar    1  UNL1        0.0036
      9 C          -1.7951   -2.8185   -0.3280 C.ar    1  UNL1        0.0897
     10 C          -2.5439   -3.9153    0.0182 C.ar    1  UNL1        0.0373
     11 N          -3.8064   -3.7851    0.5236 N.ar    1  UNL1       -0.3018
     12 C          -4.7372   -4.6633    0.9349 C.ar    1  UNL1        0.0294
     13 C          -5.8723   -4.0095    1.3681 C.ar    1  UNL1        0.0465
     14 N          -5.6061   -2.7006    1.2086 N.ar    1  UNL1       -0.2330
     15 C          -4.3498   -2.5685    0.6953 C.ar    1  UNL1        0.1780
     16 C          -3.5906   -1.4742    0.3450 C.ar    1  UNL1        0.1629
     17 N          -4.1442   -0.1718    0.5173 N.pl3   1  UNL1       -0.3220
     18 C          -3.3652    1.0123    0.1554 C.3     1  UNL1        0.0359
     19 C          -4.1165    2.2470    0.4104 C.ar    1  UNL1       -0.0275
     20 C          -4.0173    2.8604    1.6306 C.ar    1  UNL1       -0.0389
     21 C          -4.7305    4.0226    1.8568 C.ar    1  UNL1        0.0279
     22 N          -5.5007    4.5353    0.9017 N.ar    1  UNL1       -0.2632
     23 C          -5.6066    3.9415   -0.3022 C.ar    1  UNL1        0.0279
     24 C          -4.9169    2.7845   -0.5745 C.ar    1  UNL1       -0.0389
     25 N          -2.3521   -1.6081   -0.1506 N.ar    1  UNL1       -0.2270
     26 C           0.2529   -1.7364   -1.1991 C.ar    1  UNL1       -0.0312
     27 N           3.7727    1.2321   -1.4175 N.am    1  UNL1       -0.2692
     28 C           4.6109    1.9205   -0.4971 C.ar    1  UNL1        0.0353
     29 C           4.0498    2.9085    0.2774 C.ar    1  UNL1       -0.0404
     30 C           4.8154    3.6121    1.1900 C.ar    1  UNL1       -0.0595
     31 C           6.1577    3.3321    1.3371 C.ar    1  UNL1       -0.0500
     32 C           6.7121    2.3396    0.5561 C.ar    1  UNL1        0.0566
     33 C           8.1650    2.0439    0.7224 C.3     1  UNL1        0.4175
     34 F           8.8576    3.1251    1.2133 F       1  UNL1       -0.1659
     35 F           8.7524    1.6017   -0.4252 F       1  UNL1       -0.1659
     36 F           8.2527    1.0430    1.6730 F       1  UNL1       -0.1659
     37 C           5.9586    1.6241   -0.3641 C.ar    1  UNL1       -0.0288
     38 H           2.1431   -0.2070   -3.0157 H       1  UNL1        0.1564
     39 H           3.1318   -3.0906   -2.3098 H       1  UNL1        0.0636
     40 H           1.9542   -5.1268   -1.7530 H       1  UNL1        0.0618
     41 H          -0.2915   -5.0488   -0.8479 H       1  UNL1        0.0624
     42 H          -2.1440   -4.9068   -0.1043 H       1  UNL1        0.0835
     43 H          -4.5844   -5.7470    0.9159 H       1  UNL1        0.0829
     44 H          -6.7936   -4.4523    1.7582 H       1  UNL1        0.0845
     45 H          -5.0966   -0.0113    0.8961 H       1  UNL1        0.1479
     46 H          -2.3954    1.0376    0.6779 H       1  UNL1        0.0511
     47 H          -3.1329    0.9817   -0.9334 H       1  UNL1        0.0511
     48 H          -3.3829    2.4129    2.3766 H       1  UNL1        0.0636
     49 H          -4.6719    4.5269    2.8070 H       1  UNL1        0.0829
     50 H          -6.2474    4.3957   -1.0522 H       1  UNL1        0.0829
     51 H          -5.0030    2.3173   -1.5283 H       1  UNL1        0.0636
     52 H          -0.2498   -0.7998   -1.0328 H       1  UNL1        0.0643
     53 H           3.6697    1.5959   -2.3826 H       1  UNL1        0.1564
     54 H           3.0007    3.1515    0.1857 H       1  UNL1        0.0636
     55 H           4.3502    4.3822    1.7851 H       1  UNL1        0.0618
     56 H           6.7309    3.8979    2.0578 H       1  UNL1        0.0623
     57 H           6.3944    0.8436   -0.9782 H       1  UNL1        0.0642
@<TRIPOS>BOND
     1     1     2    2
     2     2     3   am
     3     3     4    1
     4     4     5   ar
     5     5     6   ar
     6     6     7   ar
     7     7     8   ar
     8     8     9    1
     9     9    10   ar
    10    10    11   ar
    11    11    12   ar
    12    12    13   ar
    13    13    14   ar
    14    14    15   ar
    15    15    16   ar
    16    16    17    1
    17    17    18    1
    18    18    19    1
    19    19    20   ar
    20    20    21   ar
    21    21    22   ar
    22    22    23   ar
    23    23    24   ar
    24    16    25   ar
    25     8    26   ar
    26     2    27   am
    27    27    28    1
    28    28    29   ar
    29    29    30   ar
    30    30    31   ar
    31    31    32   ar
    32    32    33    1
    33    33    34    1
    34    33    35    1
    35    33    36    1
    36    32    37   ar
    37    26     4   ar
    38    37    28   ar
    39    25     9   ar
    40    15    11   ar
    41    24    19   ar
    42     3    38    1
    43     5    39    1
    44     6    40    1
    45     7    41    1
    46    10    42    1
    47    12    43    1
    48    13    44    1
    49    17    45    1
    50    18    46    1
    51    18    47    1
    52    20    48    1
    53    21    49    1
    54    23    50    1
    55    24    51    1
    56    26    52    1
    57    27    53    1
    58    29    54    1
    59    30    55    1
    60    31    56    1
    61    37    57    1
