@<TRIPOS>MOLECULE
*****
 70 73 0 0 0
SMALL
GASTEIGER

@<TRIPOS>ATOM
      1 C          -7.7398   -3.8442   -0.7735 C.3     1  UNL1       -0.0128
      2 N          -6.8633   -2.8723   -0.1979 N.3     1  UNL1       -0.3052
      3 C          -6.1708   -2.0503   -1.1381 C.3     1  UNL1        0.0003
      4 C          -4.7085   -2.3850   -1.2740 C.3     1  UNL1       -0.0216
      5 C          -3.9659   -2.3503    0.0299 C.3     1  UNL1        0.0257
      6 N          -3.2480   -1.0964    0.0950 N.am    1  UNL1       -0.3083
      7 C          -1.8202   -1.0975    0.1801 C.2     1  UNL1        0.2491
      8 O          -1.3013   -2.2485    0.1908 O.2     1  UNL1       -0.2700
      9 C          -1.0942    0.1524    0.2453 C.ar    1  UNL1        0.0945
     10 C          -1.7860    1.3484    0.2228 C.ar    1  UNL1        0.0466
     11 N          -1.1316    2.5134    0.2822 N.ar    1  UNL1       -0.2218
     12 C           0.1922    2.5798    0.3645 C.ar    1  UNL1        0.2212
     13 N           0.8859    3.8022    0.4270 N.pl3   1  UNL1       -0.2835
     14 C           0.3257    5.0821    0.3752 C.ar    1  UNL1        0.0363
     15 C           1.1506    6.2039    0.6189 C.ar    1  UNL1       -0.0220
     16 C           0.6927    7.4915    0.5807 C.ar    1  UNL1        0.0441
     17 CL          1.7994    8.8431    0.8998 Cl      1  UNL1       -0.0834
     18 C          -0.6226    7.7437    0.2960 C.ar    1  UNL1       -0.0249
     19 C          -1.4655    6.6998    0.0521 C.ar    1  UNL1        0.0441
     20 CL         -3.1455    7.0039   -0.3125 Cl      1  UNL1       -0.0834
     21 C          -0.9770    5.3937    0.0961 C.ar    1  UNL1       -0.0220
     22 N           0.8625    1.4203    0.3864 N.ar    1  UNL1       -0.1987
     23 C           0.2661    0.2081    0.3297 C.ar    1  UNL1        0.1363
     24 N           1.0942   -0.9380    0.3621 N.pl3   1  UNL1       -0.3255
     25 C           2.5285   -0.7708    0.4534 C.3     1  UNL1        0.0221
     26 C           3.1780   -2.1193    0.4775 C.3     1  UNL1       -0.0331
     27 C           4.6713   -2.0220    0.7224 C.3     1  UNL1       -0.0357
     28 C           5.1278   -0.6877    0.1646 C.3     1  UNL1        0.0100
     29 N           6.5282   -0.6483   -0.1266 N.3     1  UNL1       -0.3054
     30 C           7.2935   -0.8923    1.0649 C.3     1  UNL1       -0.0128
     31 C           6.9222   -1.4753   -1.2323 C.3     1  UNL1       -0.0128
     32 C           4.3521   -0.4703   -1.1248 C.3     1  UNL1       -0.0357
     33 C           2.9734    0.0462   -0.7509 C.3     1  UNL1       -0.0331
     34 C          -4.8910   -2.5361    1.2098 C.3     1  UNL1       -0.0216
     35 C          -5.9854   -3.5027    0.7647 C.3     1  UNL1        0.0003
     36 H          -7.2335   -4.8151   -0.9689 H       1  UNL1        0.0391
     37 H          -8.2187   -3.4134   -1.6718 H       1  UNL1        0.0391
     38 H          -8.5740   -4.1009   -0.0577 H       1  UNL1        0.0391
     39 H          -6.3572   -0.9886   -0.9030 H       1  UNL1        0.0427
     40 H          -6.6298   -2.2293   -2.1428 H       1  UNL1        0.0427
     41 H          -4.2833   -1.6348   -1.9984 H       1  UNL1        0.0295
     42 H          -4.6148   -3.3709   -1.7703 H       1  UNL1        0.0295
     43 H          -3.2432   -3.1742    0.0538 H       1  UNL1        0.0499
     44 H          -3.8363   -0.2374    0.0751 H       1  UNL1        0.1493
     45 H          -2.8819    1.3962    0.1563 H       1  UNL1        0.0839
     46 H           1.9380    3.7237    0.5215 H       1  UNL1        0.1550
     47 H           2.1923    6.0227    0.8455 H       1  UNL1        0.0651
     48 H          -0.9604    8.7843    0.2729 H       1  UNL1        0.0647
     49 H          -1.6857    4.5953   -0.1125 H       1  UNL1        0.0651
     50 H           0.7313   -1.8830    0.3243 H       1  UNL1        0.1478
     51 H           2.7277   -0.2161    1.3908 H       1  UNL1        0.0498
     52 H           2.9539   -2.6599   -0.4588 H       1  UNL1        0.0284
     53 H           2.7475   -2.6807    1.3345 H       1  UNL1        0.0284
     54 H           4.9147   -2.0766    1.7898 H       1  UNL1        0.0281
     55 H           5.1436   -2.8731    0.2021 H       1  UNL1        0.0281
     56 H           4.8848    0.0738    0.9107 H       1  UNL1        0.0462
     57 H           6.7446   -0.4632    1.9283 H       1  UNL1        0.0391
     58 H           7.4712   -1.9696    1.2648 H       1  UNL1        0.0391
     59 H           8.2779   -0.3627    1.0285 H       1  UNL1        0.0391
     60 H           7.2090   -0.8521   -2.1140 H       1  UNL1        0.0391
     61 H           6.1339   -2.1803   -1.5653 H       1  UNL1        0.0391
     62 H           7.8416   -2.0183   -0.9296 H       1  UNL1        0.0391
     63 H           4.2351   -1.4192   -1.6670 H       1  UNL1        0.0281
     64 H           4.9187    0.2706   -1.7182 H       1  UNL1        0.0281
     65 H           3.0777    1.0941   -0.4080 H       1  UNL1        0.0284
     66 H           2.2774   -0.0313   -1.5839 H       1  UNL1        0.0284
     67 H          -4.3599   -3.0556    2.0515 H       1  UNL1        0.0295
     68 H          -5.3743   -1.6088    1.5296 H       1  UNL1        0.0295
     69 H          -6.5808   -3.7422    1.6648 H       1  UNL1        0.0427
     70 H          -5.5143   -4.4286    0.3659 H       1  UNL1        0.0427
@<TRIPOS>BOND
     1     1     2    1
     2     2     3    1
     3     3     4    1
     4     4     5    1
     5     5     6    1
     6     6     7   am
     7     7     8    2
     8     7     9    1
     9     9    10   ar
    10    10    11   ar
    11    11    12   ar
    12    12    13    1
    13    13    14    1
    14    14    15   ar
    15    15    16   ar
    16    16    17    1
    17    16    18   ar
    18    18    19   ar
    19    19    20    1
    20    19    21   ar
    21    12    22   ar
    22    22    23   ar
    23    23    24    1
    24    24    25    1
    25    25    26    1
    26    26    27    1
    27    27    28    1
    28    28    29    1
    29    29    30    1
    30    29    31    1
    31    28    32    1
    32    32    33    1
    33     5    34    1
    34    34    35    1
    35    35     2    1
    36    23     9   ar
    37    33    25    1
    38    21    14   ar
    39     1    36    1
    40     1    37    1
    41     1    38    1
    42     3    39    1
    43     3    40    1
    44     4    41    1
    45     4    42    1
    46     5    43    1
    47     6    44    1
    48    10    45    1
    49    13    46    1
    50    15    47    1
    51    18    48    1
    52    21    49    1
    53    24    50    1
    54    25    51    1
    55    26    52    1
    56    26    53    1
    57    27    54    1
    58    27    55    1
    59    28    56    1
    60    30    57    1
    61    30    58    1
    62    30    59    1
    63    31    60    1
    64    31    61    1
    65    31    62    1
    66    32    63    1
    67    32    64    1
    68    33    65    1
    69    33    66    1
    70    34    67    1
    71    34    68    1
    72    35    69    1
    73    35    70    1
