
     RDKit          3D

 70 73  0  0  0  0  0  0  0  0999 V2000
   -7.7398   -3.8442   -0.7735 C   0  0  0  0  0  0  0  0  0  0  0  0
   -6.8633   -2.8723   -0.1979 N   0  0  0  0  0  0  0  0  0  0  0  0
   -6.1708   -2.0503   -1.1381 C   0  0  0  0  0  0  0  0  0  0  0  0
   -4.7085   -2.3850   -1.2740 C   0  0  0  0  0  0  0  0  0  0  0  0
   -3.9659   -2.3503    0.0299 C   0  0  0  0  0  0  0  0  0  0  0  0
   -3.2480   -1.0964    0.0950 N   0  0  0  0  0  0  0  0  0  0  0  0
   -1.8202   -1.0975    0.1801 C   0  0  0  0  0  0  0  0  0  0  0  0
   -1.3013   -2.2485    0.1908 O   0  0  0  0  0  0  0  0  0  0  0  0
   -1.0942    0.1524    0.2453 C   0  0  0  0  0  0  0  0  0  0  0  0
   -1.7860    1.3484    0.2228 C   0  0  0  0  0  0  0  0  0  0  0  0
   -1.1316    2.5134    0.2822 N   0  0  0  0  0  0  0  0  0  0  0  0
    0.1922    2.5798    0.3645 C   0  0  0  0  0  0  0  0  0  0  0  0
    0.8859    3.8022    0.4270 N   0  0  0  0  0  0  0  0  0  0  0  0
    0.3257    5.0821    0.3752 C   0  0  0  0  0  0  0  0  0  0  0  0
    1.1506    6.2039    0.6189 C   0  0  0  0  0  0  0  0  0  0  0  0
    0.6927    7.4915    0.5807 C   0  0  0  0  0  0  0  0  0  0  0  0
    1.7994    8.8431    0.8998 Cl  0  0  0  0  0  0  0  0  0  0  0  0
   -0.6226    7.7437    0.2960 C   0  0  0  0  0  0  0  0  0  0  0  0
   -1.4655    6.6998    0.0521 C   0  0  0  0  0  0  0  0  0  0  0  0
   -3.1455    7.0039   -0.3125 Cl  0  0  0  0  0  0  0  0  0  0  0  0
   -0.9770    5.3937    0.0961 C   0  0  0  0  0  0  0  0  0  0  0  0
    0.8625    1.4203    0.3864 N   0  0  0  0  0  0  0  0  0  0  0  0
    0.2661    0.2081    0.3297 C   0  0  0  0  0  0  0  0  0  0  0  0
    1.0942   -0.9380    0.3621 N   0  0  0  0  0  0  0  0  0  0  0  0
    2.5285   -0.7708    0.4534 C   0  0  0  0  0  0  0  0  0  0  0  0
    3.1780   -2.1193    0.4775 C   0  0  0  0  0  0  0  0  0  0  0  0
    4.6713   -2.0220    0.7224 C   0  0  0  0  0  0  0  0  0  0  0  0
    5.1278   -0.6877    0.1646 C   0  0  0  0  0  0  0  0  0  0  0  0
    6.5282   -0.6483   -0.1266 N   0  0  0  0  0  0  0  0  0  0  0  0
    7.2935   -0.8923    1.0649 C   0  0  0  0  0  0  0  0  0  0  0  0
    6.9222   -1.4753   -1.2323 C   0  0  0  0  0  0  0  0  0  0  0  0
    4.3521   -0.4703   -1.1248 C   0  0  0  0  0  0  0  0  0  0  0  0
    2.9734    0.0462   -0.7509 C   0  0  0  0  0  0  0  0  0  0  0  0
   -4.8910   -2.5361    1.2098 C   0  0  0  0  0  0  0  0  0  0  0  0
   -5.9854   -3.5027    0.7647 C   0  0  0  0  0  0  0  0  0  0  0  0
   -7.2335   -4.8151   -0.9689 H   0  0  0  0  0  0  0  0  0  0  0  0
   -8.2187   -3.4134   -1.6718 H   0  0  0  0  0  0  0  0  0  0  0  0
   -8.5740   -4.1009   -0.0577 H   0  0  0  0  0  0  0  0  0  0  0  0
   -6.3572   -0.9886   -0.9030 H   0  0  0  0  0  0  0  0  0  0  0  0
   -6.6298   -2.2293   -2.1428 H   0  0  0  0  0  0  0  0  0  0  0  0
   -4.2833   -1.6348   -1.9984 H   0  0  0  0  0  0  0  0  0  0  0  0
   -4.6148   -3.3709   -1.7703 H   0  0  0  0  0  0  0  0  0  0  0  0
   -3.2432   -3.1742    0.0538 H   0  0  0  0  0  0  0  0  0  0  0  0
   -3.8363   -0.2374    0.0751 H   0  0  0  0  0  0  0  0  0  0  0  0
   -2.8819    1.3962    0.1563 H   0  0  0  0  0  0  0  0  0  0  0  0
    1.9380    3.7237    0.5215 H   0  0  0  0  0  0  0  0  0  0  0  0
    2.1923    6.0227    0.8455 H   0  0  0  0  0  0  0  0  0  0  0  0
   -0.9604    8.7843    0.2729 H   0  0  0  0  0  0  0  0  0  0  0  0
   -1.6857    4.5953   -0.1125 H   0  0  0  0  0  0  0  0  0  0  0  0
    0.7313   -1.8830    0.3243 H   0  0  0  0  0  0  0  0  0  0  0  0
    2.7277   -0.2161    1.3908 H   0  0  0  0  0  0  0  0  0  0  0  0
    2.9539   -2.6599   -0.4588 H   0  0  0  0  0  0  0  0  0  0  0  0
    2.7475   -2.6807    1.3345 H   0  0  0  0  0  0  0  0  0  0  0  0
    4.9147   -2.0766    1.7898 H   0  0  0  0  0  0  0  0  0  0  0  0
    5.1436   -2.8731    0.2021 H   0  0  0  0  0  0  0  0  0  0  0  0
    4.8848    0.0738    0.9107 H   0  0  0  0  0  0  0  0  0  0  0  0
    6.7446   -0.4632    1.9283 H   0  0  0  0  0  0  0  0  0  0  0  0
    7.4712   -1.9696    1.2648 H   0  0  0  0  0  0  0  0  0  0  0  0
    8.2779   -0.3627    1.0285 H   0  0  0  0  0  0  0  0  0  0  0  0
    7.2090   -0.8521   -2.1140 H   0  0  0  0  0  0  0  0  0  0  0  0
    6.1339   -2.1803   -1.5653 H   0  0  0  0  0  0  0  0  0  0  0  0
    7.8416   -2.0183   -0.9296 H   0  0  0  0  0  0  0  0  0  0  0  0
    4.2351   -1.4192   -1.6670 H   0  0  0  0  0  0  0  0  0  0  0  0
    4.9187    0.2706   -1.7182 H   0  0  0  0  0  0  0  0  0  0  0  0
    3.0777    1.0941   -0.4080 H   0  0  0  0  0  0  0  0  0  0  0  0
    2.2774   -0.0313   -1.5839 H   0  0  0  0  0  0  0  0  0  0  0  0
   -4.3599   -3.0556    2.0515 H   0  0  0  0  0  0  0  0  0  0  0  0
   -5.3743   -1.6088    1.5296 H   0  0  0  0  0  0  0  0  0  0  0  0
   -6.5808   -3.7422    1.6648 H   0  0  0  0  0  0  0  0  0  0  0  0
   -5.5143   -4.4286    0.3659 H   0  0  0  0  0  0  0  0  0  0  0  0
  1  2  1  0
  2  3  1  0
  3  4  1  0
  4  5  1  0
  5  6  1  0
  6  7  1  0
  7  8  2  0
  7  9  1  0
  9 10  2  0
 10 11  1  0
 11 12  2  0
 12 13  1  0
 13 14  1  0
 14 15  2  0
 15 16  1  0
 16 17  1  0
 16 18  2  0
 18 19  1  0
 19 20  1  0
 19 21  2  0
 12 22  1  0
 22 23  2  0
 23 24  1  0
 24 25  1  0
 25 26  1  0
 26 27  1  0
 27 28  1  0
 28 29  1  0
 29 30  1  0
 29 31  1  0
 28 32  1  0
 32 33  1  0
  5 34  1  0
 34 35  1  0
 35  2  1  0
 23  9  1  0
 33 25  1  0
 21 14  1  0
  1 36  1  0
  1 37  1  0
  1 38  1  0
  3 39  1  0
  3 40  1  0
  4 41  1  0
  4 42  1  0
  5 43  1  0
  6 44  1  0
 10 45  1  0
 13 46  1  0
 15 47  1  0
 18 48  1  0
 21 49  1  0
 24 50  1  0
 25 51  1  0
 26 52  1  0
 26 53  1  0
 27 54  1  0
 27 55  1  0
 28 56  1  0
 30 57  1  0
 30 58  1  0
 30 59  1  0
 31 60  1  0
 31 61  1  0
 31 62  1  0
 32 63  1  0
 32 64  1  0
 33 65  1  0
 33 66  1  0
 34 67  1  0
 34 68  1  0
 35 69  1  0
 35 70  1  0
M  END
$$$$
