@<TRIPOS>MOLECULE
*****
 34 36 0 0 0
SMALL
GASTEIGER

@<TRIPOS>ATOM
      1 C          -2.3412    0.4124   -0.6889 C.3     1  UNL1        0.0179
      2 C          -2.7174   -0.8419   -1.4016 C.3     1  UNL1       -0.0150
      3 C          -4.0822   -0.6793   -2.0348 C.3     1  UNL1        0.0908
      4 F          -4.4495   -1.8416   -2.7162 F       1  UNL1       -0.2490
      5 C          -3.2900    0.7947    0.4063 C.3     1  UNL1        0.0202
      6 N          -3.3071   -0.2175    1.4636 N.am    1  UNL1       -0.3107
      7 C          -1.9896   -0.3821    2.0336 C.2     1  UNL1        0.2458
      8 O          -1.7497   -0.7417    3.2385 O.2     1  UNL1       -0.2701
      9 C          -0.8238   -0.1158    1.1608 C.ar    1  UNL1        0.0581
     10 C          -0.9364    0.2825   -0.1765 C.ar    1  UNL1        0.0334
     11 N           0.3031    0.4454   -0.6733 N.ar    1  UNL1       -0.3559
     12 C           1.1974    0.1641    0.3020 C.ar    1  UNL1        0.0660
     13 C           0.5412   -0.1906    1.4629 C.ar    1  UNL1       -0.0225
     14 C           2.6556    0.2199    0.1709 C.ar    1  UNL1        0.0921
     15 N           3.4669   -0.0730    1.1819 N.ar    1  UNL1       -0.2132
     16 C           4.7944    0.0006    0.9868 C.ar    1  UNL1        0.2131
     17 N           5.7611   -0.2929    2.0055 N.pl3   1  UNL1       -0.3275
     18 N           5.3550    0.3564   -0.1818 N.ar    1  UNL1       -0.2231
     19 C           4.5877    0.6632   -1.2372 C.ar    1  UNL1        0.0332
     20 C           3.2178    0.5901   -1.0455 C.ar    1  UNL1       -0.0160
     21 H          -2.3631    1.2510   -1.4289 H       1  UNL1        0.0379
     22 H          -1.9876   -1.1602   -2.1520 H       1  UNL1        0.0297
     23 H          -2.7604   -1.6866   -0.6514 H       1  UNL1        0.0297
     24 H          -4.8605   -0.4713   -1.2627 H       1  UNL1        0.0615
     25 H          -4.1098    0.1653   -2.7498 H       1  UNL1        0.0615
     26 H          -2.9150    1.7772    0.8044 H       1  UNL1        0.0468
     27 H          -4.2745    0.9939   -0.0251 H       1  UNL1        0.0468
     28 H          -4.0295   -0.8394    1.8994 H       1  UNL1        0.1490
     29 H           0.4796    0.7437   -1.6638 H       1  UNL1        0.1657
     30 H           1.0055   -0.4624    2.3893 H       1  UNL1        0.0647
     31 H           5.5392    0.3846    2.7788 H       1  UNL1        0.1452
     32 H           6.4739   -1.0372    1.8853 H       1  UNL1        0.1452
     33 H           5.0282    0.9524   -2.1875 H       1  UNL1        0.0831
     34 H           2.5809    0.8361   -1.8929 H       1  UNL1        0.0655
@<TRIPOS>BOND
     1     1     2    1
     2     2     3    1
     3     3     4    1
     4     1     5    1
     5     5     6    1
     6     6     7   am
     7     7     8    2
     8     7     9    1
     9     9    10   ar
    10    10    11   ar
    11    11    12   ar
    12    12    13   ar
    13    12    14    1
    14    14    15   ar
    15    15    16   ar
    16    16    17    1
    17    16    18   ar
    18    18    19   ar
    19    19    20   ar
    20    10     1    1
    21    20    14   ar
    22    13     9   ar
    23     1    21    1
    24     2    22    1
    25     2    23    1
    26     3    24    1
    27     3    25    1
    28     5    26    1
    29     5    27    1
    30     6    28    1
    31    11    29    1
    32    13    30    1
    33    17    31    1
    34    17    32    1
    35    19    33    1
    36    20    34    1
