@<TRIPOS>MOLECULE
*****
 38 40 0 0 0
SMALL
GASTEIGER

@<TRIPOS>ATOM
      1 C          -2.1912   -0.0973   -0.5692 C.1     1  UNL1       -0.0642
      2 C          -3.3666   -0.2043   -0.3019 C.1     1  UNL1       -0.0415
      3 C          -4.7606   -0.3556    0.0222 C.ar    1  UNL1        0.1137
      4 C          -5.1747   -1.0893    1.1264 C.ar    1  UNL1       -0.0278
      5 C          -6.5131   -1.2290    1.4294 C.ar    1  UNL1       -0.0577
      6 C          -7.4067   -0.5997    0.5744 C.ar    1  UNL1       -0.0435
      7 C          -6.9552    0.1191   -0.5108 C.ar    1  UNL1        0.0290
      8 N          -5.6470    0.2343   -0.7758 N.ar    1  UNL1       -0.2467
      9 C          -0.8075    0.0360   -0.9073 C.2     1  UNL1       -0.0009
     10 C          -0.1971   -0.6950   -1.8345 C.2     1  UNL1       -0.0709
     11 C           1.2706   -0.4671   -2.1079 C.3     1  UNL1       -0.0152
     12 C           2.0690   -0.3971   -0.8267 C.3     1  UNL1        0.0244
     13 N           3.2517    0.3992   -1.0983 N.pl3   1  UNL1       -0.3395
     14 C           4.2305    0.5120   -0.0846 C.ar    1  UNL1        0.0457
     15 C           4.0987   -0.1340    1.1164 C.ar    1  UNL1       -0.0379
     16 C           5.0899    0.0193    2.0851 C.ar    1  UNL1       -0.0419
     17 C           6.1718    0.8065    1.8242 C.ar    1  UNL1        0.0277
     18 N           6.2905    1.4394    0.6330 N.ar    1  UNL1       -0.2614
     19 C           5.3326    1.3011   -0.3237 C.ar    1  UNL1        0.0484
     20 C           1.3287    0.3112    0.2820 C.3     1  UNL1       -0.0297
     21 C           0.1023    1.0161   -0.2493 C.3     1  UNL1       -0.0184
     22 H          -4.4641   -1.5674    1.7737 H       1  UNL1        0.0645
     23 H          -6.8587   -1.8008    2.2919 H       1  UNL1        0.0619
     24 H          -8.4587   -0.6897    0.7837 H       1  UNL1        0.0633
     25 H          -7.7321    0.5804   -1.1286 H       1  UNL1        0.0830
     26 H          -0.7833   -1.4312   -2.3608 H       1  UNL1        0.0581
     27 H           1.6086   -1.3668   -2.6606 H       1  UNL1        0.0326
     28 H           1.3354    0.4483   -2.7063 H       1  UNL1        0.0326
     29 H           2.3162   -1.4314   -0.5204 H       1  UNL1        0.0500
     30 H           3.3758    0.8831   -2.0340 H       1  UNL1        0.1464
     31 H           3.2767   -0.7628    1.3614 H       1  UNL1        0.0637
     32 H           5.0151   -0.4743    3.0374 H       1  UNL1        0.0633
     33 H           6.9460    0.9264    2.5806 H       1  UNL1        0.0829
     34 H           5.4172    1.8047   -1.2844 H       1  UNL1        0.0848
     35 H           0.9469   -0.4084    1.0346 H       1  UNL1        0.0286
     36 H           1.9366    1.0970    0.7620 H       1  UNL1        0.0286
     37 H          -0.4862    1.4926    0.5564 H       1  UNL1        0.0320
     38 H           0.3920    1.7748   -0.9899 H       1  UNL1        0.0320
@<TRIPOS>BOND
     1     1     2    3
     2     2     3    1
     3     3     4   ar
     4     4     5   ar
     5     5     6   ar
     6     6     7   ar
     7     7     8   ar
     8     1     9    1
     9     9    10    2
    10    10    11    1
    11    11    12    1
    12    12    13    1
    13    13    14    1
    14    14    15   ar
    15    15    16   ar
    16    16    17   ar
    17    17    18   ar
    18    18    19   ar
    19    12    20    1
    20    20    21    1
    21     8     3   ar
    22    21     9    1
    23    19    14   ar
    24     4    22    1
    25     5    23    1
    26     6    24    1
    27     7    25    1
    28    10    26    1
    29    11    27    1
    30    11    28    1
    31    12    29    1
    32    13    30    1
    33    15    31    1
    34    16    32    1
    35    17    33    1
    36    19    34    1
    37    20    35    1
    38    20    36    1
    39    21    37    1
    40    21    38    1
