
     RDKit          3D

 38 40  0  0  0  0  0  0  0  0999 V2000
   -2.1912   -0.0973   -0.5692 C   0  0  0  0  0  0  0  0  0  0  0  0
   -3.3666   -0.2043   -0.3019 C   0  0  0  0  0  0  0  0  0  0  0  0
   -4.7606   -0.3556    0.0222 C   0  0  0  0  0  0  0  0  0  0  0  0
   -5.1747   -1.0893    1.1264 C   0  0  0  0  0  0  0  0  0  0  0  0
   -6.5131   -1.2290    1.4294 C   0  0  0  0  0  0  0  0  0  0  0  0
   -7.4067   -0.5997    0.5744 C   0  0  0  0  0  0  0  0  0  0  0  0
   -6.9552    0.1191   -0.5108 C   0  0  0  0  0  0  0  0  0  0  0  0
   -5.6470    0.2343   -0.7758 N   0  0  0  0  0  0  0  0  0  0  0  0
   -0.8075    0.0360   -0.9073 C   0  0  0  0  0  0  0  0  0  0  0  0
   -0.1971   -0.6950   -1.8345 C   0  0  0  0  0  0  0  0  0  0  0  0
    1.2706   -0.4671   -2.1079 C   0  0  0  0  0  0  0  0  0  0  0  0
    2.0690   -0.3971   -0.8267 C   0  0  0  0  0  0  0  0  0  0  0  0
    3.2517    0.3992   -1.0983 N   0  0  0  0  0  0  0  0  0  0  0  0
    4.2305    0.5120   -0.0846 C   0  0  0  0  0  0  0  0  0  0  0  0
    4.0987   -0.1340    1.1164 C   0  0  0  0  0  0  0  0  0  0  0  0
    5.0899    0.0193    2.0851 C   0  0  0  0  0  0  0  0  0  0  0  0
    6.1718    0.8065    1.8242 C   0  0  0  0  0  0  0  0  0  0  0  0
    6.2905    1.4394    0.6330 N   0  0  0  0  0  0  0  0  0  0  0  0
    5.3326    1.3011   -0.3237 C   0  0  0  0  0  0  0  0  0  0  0  0
    1.3287    0.3112    0.2820 C   0  0  0  0  0  0  0  0  0  0  0  0
    0.1023    1.0161   -0.2493 C   0  0  0  0  0  0  0  0  0  0  0  0
   -4.4641   -1.5674    1.7737 H   0  0  0  0  0  0  0  0  0  0  0  0
   -6.8587   -1.8008    2.2919 H   0  0  0  0  0  0  0  0  0  0  0  0
   -8.4587   -0.6897    0.7837 H   0  0  0  0  0  0  0  0  0  0  0  0
   -7.7321    0.5804   -1.1286 H   0  0  0  0  0  0  0  0  0  0  0  0
   -0.7833   -1.4312   -2.3608 H   0  0  0  0  0  0  0  0  0  0  0  0
    1.6086   -1.3668   -2.6606 H   0  0  0  0  0  0  0  0  0  0  0  0
    1.3354    0.4483   -2.7063 H   0  0  0  0  0  0  0  0  0  0  0  0
    2.3162   -1.4314   -0.5204 H   0  0  0  0  0  0  0  0  0  0  0  0
    3.3758    0.8831   -2.0340 H   0  0  0  0  0  0  0  0  0  0  0  0
    3.2767   -0.7628    1.3614 H   0  0  0  0  0  0  0  0  0  0  0  0
    5.0151   -0.4743    3.0374 H   0  0  0  0  0  0  0  0  0  0  0  0
    6.9460    0.9264    2.5806 H   0  0  0  0  0  0  0  0  0  0  0  0
    5.4172    1.8047   -1.2844 H   0  0  0  0  0  0  0  0  0  0  0  0
    0.9469   -0.4084    1.0346 H   0  0  0  0  0  0  0  0  0  0  0  0
    1.9366    1.0970    0.7620 H   0  0  0  0  0  0  0  0  0  0  0  0
   -0.4862    1.4926    0.5564 H   0  0  0  0  0  0  0  0  0  0  0  0
    0.3920    1.7748   -0.9899 H   0  0  0  0  0  0  0  0  0  0  0  0
  1  2  3  0
  2  3  1  0
  3  4  2  0
  4  5  1  0
  5  6  2  0
  6  7  1  0
  7  8  2  0
  1  9  1  0
  9 10  2  0
 10 11  1  0
 11 12  1  0
 12 13  1  0
 13 14  1  0
 14 15  2  0
 15 16  1  0
 16 17  2  0
 17 18  1  0
 18 19  2  0
 12 20  1  0
 20 21  1  0
  8  3  1  0
 21  9  1  0
 19 14  1  0
  4 22  1  0
  5 23  1  0
  6 24  1  0
  7 25  1  0
 10 26  1  0
 11 27  1  0
 11 28  1  0
 12 29  1  0
 13 30  1  0
 15 31  1  0
 16 32  1  0
 17 33  1  0
 19 34  1  0
 20 35  1  0
 20 36  1  0
 21 37  1  0
 21 38  1  0
M  END
$$$$
