@<TRIPOS>MOLECULE
*****
 56 60 0 0 0
SMALL
GASTEIGER

@<TRIPOS>ATOM
      1 C           3.7906    0.8227   -2.8012 C.3     1  UNL1       -0.0274
      2 C           3.2900    0.9247   -1.3783 C.3     1  UNL1        0.1037
      3 O           3.2318   -0.3933   -0.8659 O.3     1  UNL1       -0.4725
      4 C           1.9970   -0.8609   -0.4066 C.ar    1  UNL1        0.2265
      5 N           0.8952   -0.0941   -0.4452 N.ar    1  UNL1       -0.2121
      6 C          -0.2911   -0.5640    0.0040 C.ar    1  UNL1        0.0798
      7 C          -1.4993    0.2631   -0.0331 C.ar    1  UNL1        0.0380
      8 C          -1.6249    1.5504   -0.4920 C.ar    1  UNL1        0.0586
      9 N          -2.9266    1.9007   -0.3272 N.ar    1  UNL1       -0.1787
     10 N          -3.5932    0.8948    0.2062 N.ar    1  UNL1       -0.2676
     11 C          -4.9853    0.7992    0.5606 C.3     1  UNL1        0.0568
     12 C          -5.4901    2.1721    0.8929 C.3     1  UNL1       -0.0069
     13 C          -6.9864    2.1953    1.0702 C.3     1  UNL1        0.0496
     14 O          -7.6675    1.5594    0.0533 O.3     1  UNL1       -0.3796
     15 C          -7.2626    0.2388   -0.0975 C.3     1  UNL1        0.0496
     16 C          -5.8278    0.2647   -0.5806 C.3     1  UNL1       -0.0069
     17 C          -2.7229   -0.1393    0.3990 C.ar    1  UNL1        0.0350
     18 C          -0.3284   -1.8483    0.4989 C.ar    1  UNL1       -0.0076
     19 C           0.7908   -2.6495    0.5465 C.ar    1  UNL1        0.0999
     20 N           1.0436   -3.9042    0.9639 N.ar    1  UNL1       -0.1712
     21 N           2.3139   -4.2283    0.7963 N.ar    1  UNL1       -0.2732
     22 C           2.9079   -5.5106    1.1461 C.3     1  UNL1        0.0302
     23 C           2.9057   -3.1500    0.2526 C.ar    1  UNL1        0.0380
     24 C           1.9791   -2.1402    0.0820 C.ar    1  UNL1        0.0812
     25 C           4.3040    1.7061   -0.5715 C.3     1  UNL1        0.0196
     26 C           3.8718    1.8517    0.8720 C.3     1  UNL1        0.0182
     27 N           5.1185    2.1944    1.5286 N.am    1  UNL1       -0.3149
     28 C           6.1589    1.5369    0.8172 C.2     1  UNL1        0.2135
     29 O           7.3601    1.4477    1.1645 O.2     1  UNL1       -0.2758
     30 C           5.6062    0.9532   -0.4325 C.3     1  UNL1        0.0315
     31 H           4.7332    0.2373   -2.7647 H       1  UNL1        0.0265
     32 H           3.9466    1.7991   -3.2807 H       1  UNL1        0.0265
     33 H           3.0462    0.1882   -3.3529 H       1  UNL1        0.0265
     34 H           2.3187    1.4186   -1.3428 H       1  UNL1        0.0734
     35 H          -0.8145    2.1344   -0.8984 H       1  UNL1        0.0854
     36 H          -5.1198    0.1191    1.4165 H       1  UNL1        0.0546
     37 H          -5.0470    2.4466    1.8916 H       1  UNL1        0.0308
     38 H          -5.1169    2.9115    0.1730 H       1  UNL1        0.0308
     39 H          -7.2110    1.7987    2.0789 H       1  UNL1        0.0560
     40 H          -7.2979    3.2654    1.0551 H       1  UNL1        0.0560
     41 H          -7.2712   -0.2405    0.8916 H       1  UNL1        0.0560
     42 H          -7.9393   -0.2479   -0.8216 H       1  UNL1        0.0560
     43 H          -5.7979    0.9813   -1.4409 H       1  UNL1        0.0308
     44 H          -5.5306   -0.7613   -0.8737 H       1  UNL1        0.0308
     45 H          -2.9558   -1.1107    0.8201 H       1  UNL1        0.0833
     46 H          -1.2694   -2.2622    0.8708 H       1  UNL1        0.0661
     47 H           3.6680   -5.7413    0.3499 H       1  UNL1        0.0473
     48 H           3.3507   -5.4150    2.1399 H       1  UNL1        0.0473
     49 H           2.1103   -6.2758    1.0696 H       1  UNL1        0.0473
     50 H           3.9512   -3.0625   -0.0195 H       1  UNL1        0.0834
     51 H           4.4404    2.7181   -1.0193 H       1  UNL1        0.0356
     52 H           3.1029    2.6366    0.9952 H       1  UNL1        0.0466
     53 H           3.5491    0.8746    1.2635 H       1  UNL1        0.0466
     54 H           5.1997    2.8089    2.3619 H       1  UNL1        0.1487
     55 H           6.2532    1.1028   -1.3071 H       1  UNL1        0.0363
     56 H           5.3422   -0.1171   -0.2728 H       1  UNL1        0.0363
@<TRIPOS>BOND
     1     1     2    1
     2     2     3    1
     3     3     4    1
     4     4     5   ar
     5     5     6   ar
     6     6     7    1
     7     7     8   ar
     8     8     9   ar
     9     9    10   ar
    10    10    11    1
    11    11    12    1
    12    12    13    1
    13    13    14    1
    14    14    15    1
    15    15    16    1
    16    10    17   ar
    17     6    18   ar
    18    18    19   ar
    19    19    20   ar
    20    20    21   ar
    21    21    22    1
    22    21    23   ar
    23    23    24   ar
    24     2    25    1
    25    25    26    1
    26    26    27    1
    27    27    28   am
    28    28    29    2
    29    28    30    1
    30    24     4   ar
    31    30    25    1
    32    17     7   ar
    33    24    19   ar
    34    16    11    1
    35     1    31    1
    36     1    32    1
    37     1    33    1
    38     2    34    1
    39     8    35    1
    40    11    36    1
    41    12    37    1
    42    12    38    1
    43    13    39    1
    44    13    40    1
    45    15    41    1
    46    15    42    1
    47    16    43    1
    48    16    44    1
    49    17    45    1
    50    18    46    1
    51    22    47    1
    52    22    48    1
    53    22    49    1
    54    23    50    1
    55    25    51    1
    56    26    52    1
    57    26    53    1
    58    27    54    1
    59    30    55    1
    60    30    56    1
