@<TRIPOS>MOLECULE
*****
 43 46 0 0 0
SMALL
GASTEIGER

@<TRIPOS>ATOM
      1 N          -2.9368    2.4884    2.4980 N.pl3   1  UNL1       -0.3134
      2 C          -3.3315    1.5353    1.5154 C.2     1  UNL1        0.2764
      3 N          -2.5126    0.6084    1.1889 N.2     1  UNL1       -0.2194
      4 C          -2.9395   -0.3609    0.1771 C.3     1  UNL1        0.1603
      5 C          -1.7442   -1.0340   -0.3971 C.ar    1  UNL1        0.0228
      6 C          -0.4632   -0.7546    0.0849 C.ar    1  UNL1       -0.0321
      7 C           0.6649   -1.3727   -0.3988 C.ar    1  UNL1        0.0342
      8 N           1.9795   -1.0892    0.0925 N.am    1  UNL1       -0.2801
      9 C           2.7643   -0.0770   -0.4869 C.2     1  UNL1        0.2698
     10 O           2.2049    0.5437   -1.4634 O.2     1  UNL1       -0.2681
     11 C           4.1023    0.3078   -0.0867 C.ar    1  UNL1        0.1657
     12 N           4.8826    1.2776   -0.6249 N.ar    1  UNL1       -0.1604
     13 N           6.0248    1.3336   -0.0013 N.ar    1  UNL1       -0.2091
     14 C           7.1196    2.2617   -0.3084 C.3     1  UNL1        0.3342
     15 F           6.8698    2.9478   -1.4602 F       1  UNL1       -0.1832
     16 F           8.3027    1.5711   -0.4743 F       1  UNL1       -0.1832
     17 C           6.0831    0.4179    0.9813 C.ar    1  UNL1        0.0503
     18 C           4.8439   -0.2387    0.9215 C.ar    1  UNL1        0.0909
     19 CL          4.4754   -1.5285    2.0366 Cl      1  UNL1       -0.0795
     20 C           0.5631   -2.3130   -1.4017 C.ar    1  UNL1       -0.0377
     21 C          -0.6963   -2.5961   -1.8852 C.ar    1  UNL1       -0.0243
     22 C          -1.8475   -1.9676   -1.3949 C.ar    1  UNL1        0.1292
     23 F          -3.0131   -2.3212   -1.9802 F       1  UNL1       -0.2051
     24 C          -3.7260   -1.4137    0.9358 C.3     1  UNL1        0.2686
     25 F          -4.8231   -0.8813    1.5857 F       1  UNL1       -0.2062
     26 F          -4.0171   -2.5211    0.2166 F       1  UNL1       -0.2062
     27 C          -3.6776    0.3243   -0.9047 C.3     1  UNL1        0.0344
     28 C          -5.1329    0.1297   -1.0921 C.3     1  UNL1       -0.0064
     29 C          -4.6548    1.3688   -0.4866 C.3     1  UNL1        0.1091
     30 O          -4.6012    1.6031    0.9063 O.2     1  UNL1       -0.4622
     31 H          -3.1441    2.2864    3.4853 H       1  UNL1        0.1466
     32 H          -2.4601    3.3426    2.1899 H       1  UNL1        0.1466
     33 H          -0.3845   -0.0212    0.8671 H       1  UNL1        0.0640
     34 H           2.3280   -1.6467    0.8775 H       1  UNL1        0.1552
     35 H           7.2400    2.8994    0.5851 H       1  UNL1        0.1295
     36 H           6.9064    0.2384    1.6585 H       1  UNL1        0.0843
     37 H           1.4586   -2.8009   -1.7821 H       1  UNL1        0.0637
     38 H          -0.7767   -3.3268   -2.6648 H       1  UNL1        0.0647
     39 H          -3.0336   -1.7432    1.7673 H       1  UNL1        0.1047
     40 H          -3.0346    0.6508   -1.7747 H       1  UNL1        0.0366
     41 H          -5.6365   -0.6581   -0.5348 H       1  UNL1        0.0306
     42 H          -5.4873    0.2060   -2.1507 H       1  UNL1        0.0306
     43 H          -4.7389    2.3234   -1.0702 H       1  UNL1        0.0737
@<TRIPOS>BOND
     1     1     2    1
     2     2     3    2
     3     3     4    1
     4     4     5    1
     5     5     6   ar
     6     6     7   ar
     7     7     8    1
     8     8     9   am
     9     9    10    2
    10     9    11    1
    11    11    12   ar
    12    12    13   ar
    13    13    14    1
    14    14    15    1
    15    14    16    1
    16    13    17   ar
    17    17    18   ar
    18    18    19    1
    19     7    20   ar
    20    20    21   ar
    21    21    22   ar
    22    22    23    1
    23     4    24    1
    24    24    25    1
    25    24    26    1
    26     4    27    1
    27    27    28    1
    28    28    29    1
    29    29    30    1
    30    30     2    1
    31    22     5   ar
    32    29    27    1
    33    18    11   ar
    34     1    31    1
    35     1    32    1
    36     6    33    1
    37     8    34    1
    38    14    35    1
    39    17    36    1
    40    20    37    1
    41    21    38    1
    42    24    39    1
    43    27    40    1
    44    28    41    1
    45    28    42    1
    46    29    43    1
