
     RDKit          3D

 67 68  0  0  0  0  0  0  0  0999 V2000
    3.8627    0.0285    1.5975 C   0  0  0  0  0  0  0  0  0  0  0  0
    2.7087   -0.8760    1.1848 C   0  0  0  0  0  0  0  0  0  0  0  0
    3.0855   -2.3042    1.3998 C   0  0  0  0  0  0  0  0  0  0  0  0
    2.3284   -0.5148   -0.1690 N   0  0  0  0  0  0  0  0  0  0  0  0
    1.2148   -1.2645   -0.6347 C   0  0  0  0  0  0  0  0  0  0  0  0
   -0.0786   -0.9035    0.0583 C   0  0  0  0  0  0  0  0  0  0  0  0
   -0.4689    0.4881   -0.2073 C   0  0  2  0  0  0  0  0  0  0  0  0
    0.4886    1.5383    0.2325 C   0  0  0  0  0  0  0  0  0  0  0  0
    1.1537    2.3028   -0.7033 C   0  0  0  0  0  0  0  0  0  0  0  0
    2.0263    3.3202   -0.3957 C   0  0  0  0  0  0  0  0  0  0  0  0
    2.2824    3.6303    0.9203 C   0  0  0  0  0  0  0  0  0  0  0  0
    1.6435    2.8964    1.8938 C   0  0  0  0  0  0  0  0  0  0  0  0
    0.7834    1.8929    1.5134 C   0  0  0  0  0  0  0  0  0  0  0  0
   -1.8419    0.8940    0.2003 C   0  0  0  0  0  0  0  0  0  0  0  0
   -2.9875    0.1920    0.4509 C   0  0  0  0  0  0  0  0  0  0  0  0
   -2.9420   -1.1690    0.2656 O   0  0  0  0  0  0  0  0  0  0  0  0
   -3.5760   -1.8003   -0.8028 C   0  0  0  0  0  0  0  0  0  0  0  0
   -4.1677   -0.9279   -1.5260 O   0  0  0  0  0  0  0  0  0  0  0  0
   -3.6610   -3.2271   -1.1973 C   0  0  0  0  0  0  0  0  0  0  0  0
   -2.2981   -3.8184   -1.4854 C   0  0  0  0  0  0  0  0  0  0  0  0
   -4.2722   -4.0945   -0.1135 C   0  0  0  0  0  0  0  0  0  0  0  0
   -4.1778    0.7366    0.8668 C   0  0  0  0  0  0  0  0  0  0  0  0
   -4.2623    2.0759    1.0534 C   0  0  0  0  0  0  0  0  0  0  0  0
   -3.1690    2.8725    0.8281 C   0  0  0  0  0  0  0  0  0  0  0  0
   -3.2672    4.3391    1.0356 C   0  0  0  0  0  0  0  0  0  0  0  0
   -3.6591    4.9828   -0.1134 O   0  0  0  0  0  0  0  0  0  0  0  0
   -2.0186    2.2722    0.4177 C   0  0  0  0  0  0  0  0  0  0  0  0
    3.4441   -0.4298   -1.0613 C   0  0  0  0  0  0  0  0  0  0  0  0
    3.1785    0.2203   -2.3920 C   0  0  0  0  0  0  0  0  0  0  0  0
    4.0328   -1.8154   -1.3693 C   0  0  0  0  0  0  0  0  0  0  0  0
    3.7609    1.0516    1.1825 H   0  0  0  0  0  0  0  0  0  0  0  0
    3.8146    0.1330    2.7074 H   0  0  0  0  0  0  0  0  0  0  0  0
    4.8368   -0.3787    1.2760 H   0  0  0  0  0  0  0  0  0  0  0  0
    1.8785   -0.6386    1.8539 H   0  0  0  0  0  0  0  0  0  0  0  0
    2.3664   -3.0400    0.9879 H   0  0  0  0  0  0  0  0  0  0  0  0
    3.0784   -2.4562    2.5374 H   0  0  0  0  0  0  0  0  0  0  0  0
    4.1075   -2.5842    1.1218 H   0  0  0  0  0  0  0  0  0  0  0  0
    1.3767   -2.3701   -0.5989 H   0  0  0  0  0  0  0  0  0  0  0  0
    1.0339   -0.9941   -1.7160 H   0  0  0  0  0  0  0  0  0  0  0  0
   -0.8157   -1.6382   -0.3017 H   0  0  0  0  0  0  0  0  0  0  0  0
    0.0742   -1.1609    1.1271 H   0  0  0  0  0  0  0  0  0  0  0  0
   -0.4980    0.5770   -1.3461 H   0  0  0  0  0  0  0  0  0  0  0  0
    1.0058    2.1192   -1.7804 H   0  0  0  0  0  0  0  0  0  0  0  0
    2.5176    3.8831   -1.1860 H   0  0  0  0  0  0  0  0  0  0  0  0
    2.9628    4.4247    1.1908 H   0  0  0  0  0  0  0  0  0  0  0  0
    1.8176    3.1101    2.9396 H   0  0  0  0  0  0  0  0  0  0  0  0
    0.2958    1.3328    2.3031 H   0  0  0  0  0  0  0  0  0  0  0  0
   -4.3002   -3.3438   -2.0744 H   0  0  0  0  0  0  0  0  0  0  0  0
   -1.7017   -4.0249   -0.5741 H   0  0  0  0  0  0  0  0  0  0  0  0
   -1.6841   -3.1399   -2.1289 H   0  0  0  0  0  0  0  0  0  0  0  0
   -2.4024   -4.7747   -2.0357 H   0  0  0  0  0  0  0  0  0  0  0  0
   -4.3791   -5.1135   -0.5411 H   0  0  0  0  0  0  0  0  0  0  0  0
   -5.2453   -3.6434    0.1553 H   0  0  0  0  0  0  0  0  0  0  0  0
   -3.6204   -4.0731    0.7784 H   0  0  0  0  0  0  0  0  0  0  0  0
   -5.0171    0.0959    1.0363 H   0  0  0  0  0  0  0  0  0  0  0  0
   -5.2016    2.4897    1.3795 H   0  0  0  0  0  0  0  0  0  0  0  0
   -3.9020    4.6067    1.9115 H   0  0  0  0  0  0  0  0  0  0  0  0
   -2.2339    4.7025    1.2672 H   0  0  0  0  0  0  0  0  0  0  0  0
   -4.5590    5.3781   -0.0944 H   0  0  0  0  0  0  0  0  0  0  0  0
   -1.1794    2.9646    0.2550 H   0  0  0  0  0  0  0  0  0  0  0  0
    4.2505    0.1959   -0.5811 H   0  0  0  0  0  0  0  0  0  0  0  0
    3.3532    1.3393   -2.3118 H   0  0  0  0  0  0  0  0  0  0  0  0
    2.2228   -0.0039   -2.8670 H   0  0  0  0  0  0  0  0  0  0  0  0
    4.0038   -0.1321   -3.0793 H   0  0  0  0  0  0  0  0  0  0  0  0
    3.3565   -2.6347   -1.1262 H   0  0  0  0  0  0  0  0  0  0  0  0
    5.0414   -1.8922   -0.9254 H   0  0  0  0  0  0  0  0  0  0  0  0
    4.1988   -1.9047   -2.4899 H   0  0  0  0  0  0  0  0  0  0  0  0
  1  2  1  0
  2  3  1  0
  2  4  1  0
  4  5  1  0
  5  6  1  0
  6  7  1  0
  7  8  1  0
  8  9  2  0
  9 10  1  0
 10 11  2  0
 11 12  1  0
 12 13  2  0
  7 14  1  0
 14 15  2  0
 15 16  1  0
 16 17  1  0
 17 18  2  0
 17 19  1  0
 19 20  1  0
 19 21  1  0
 15 22  1  0
 22 23  2  0
 23 24  1  0
 24 25  1  0
 25 26  1  0
 24 27  2  0
  4 28  1  0
 28 29  1  0
 28 30  1  0
 13  8  1  0
 27 14  1  0
  1 31  1  0
  1 32  1  0
  1 33  1  0
  2 34  1  0
  3 35  1  0
  3 36  1  0
  3 37  1  0
  5 38  1  0
  5 39  1  0
  6 40  1  0
  6 41  1  0
  7 42  1  6
  9 43  1  0
 10 44  1  0
 11 45  1  0
 12 46  1  0
 13 47  1  0
 19 48  1  0
 20 49  1  0
 20 50  1  0
 20 51  1  0
 21 52  1  0
 21 53  1  0
 21 54  1  0
 22 55  1  0
 23 56  1  0
 25 57  1  0
 25 58  1  0
 26 59  1  0
 27 60  1  0
 28 61  1  0
 29 62  1  0
 29 63  1  0
 29 64  1  0
 30 65  1  0
 30 66  1  0
 30 67  1  0
M  END
$$$$
