@<TRIPOS>MOLECULE
*****
 56 60 0 0 0
SMALL
GASTEIGER

@<TRIPOS>ATOM
      1 C           5.0734   -0.0412   -1.7506 C.3     1  UNL1       -0.0424
      2 C           3.8731    0.4136   -0.9183 C.3     1  UNL1        0.0483
      3 N           2.9953   -0.7035   -0.7711 N.am    1  UNL1       -0.3071
      4 C           1.6482   -0.5711   -1.2596 C.2     1  UNL1        0.2340
      5 O           1.2991    0.5130   -1.7931 O.2     1  UNL1       -0.2738
      6 C           0.6629   -1.6474   -1.1619 C.3     1  UNL1        0.1028
      7 C           1.0239   -2.8743   -1.9443 C.3     1  UNL1       -0.0212
      8 C           0.3678   -2.7479   -3.2772 C.3     1  UNL1       -0.0185
      9 C          -1.0868   -2.9646   -3.4383 C.3     1  UNL1       -0.0294
     10 C          -0.5922   -1.6013   -3.1285 C.3     1  UNL1        0.0301
     11 N          -0.5894   -1.2246   -1.7364 N.am    1  UNL1       -0.2851
     12 C          -1.6565   -0.5438   -1.0476 C.2     1  UNL1        0.2379
     13 O          -2.7054   -0.2255   -1.6577 O.2     1  UNL1       -0.2735
     14 C          -1.5046   -0.2260    0.3751 C.3     1  UNL1        0.1185
     15 N          -2.6993    0.4618    0.8598 N.ar    1  UNL1       -0.2527
     16 N          -2.9466    1.7501    0.8829 N.ar    1  UNL1       -0.1649
     17 C          -4.1768    2.0008    1.4126 C.ar    1  UNL1        0.1546
     18 C          -4.7736    3.3155    1.5894 C.2     1  UNL1        0.2622
     19 N          -6.0682    3.4073    2.1604 N.am    1  UNL1       -0.3240
     20 O          -4.1565    4.3517    1.2439 O.2     1  UNL1       -0.2687
     21 C          -4.7265    0.7804    1.7392 C.ar    1  UNL1        0.0351
     22 C          -5.9359    0.4055    2.3017 C.ar    1  UNL1       -0.0322
     23 C          -6.2059   -0.9281    2.5113 C.ar    1  UNL1        0.0283
     24 N          -5.2701   -1.8258    2.1560 N.ar    1  UNL1       -0.2611
     25 C          -4.0929   -1.4888    1.6104 C.ar    1  UNL1        0.0532
     26 C          -3.7717   -0.1500    1.3776 C.ar    1  UNL1        0.0882
     27 C           4.4002    0.9823    0.3237 C.ar    1  UNL1        0.0091
     28 C           4.6630    2.3560    0.3899 C.ar    1  UNL1       -0.0540
     29 C           5.1557    2.9641    1.5189 C.ar    1  UNL1       -0.0599
     30 C           5.4143    2.2264    2.6520 C.ar    1  UNL1       -0.0406
     31 C           5.1678    0.8815    2.6187 C.ar    1  UNL1        0.0764
     32 CL          5.4948   -0.0592    4.0566 Cl      1  UNL1       -0.0806
     33 C           4.6657    0.2645    1.4664 C.ar    1  UNL1        0.1465
     34 F           4.4391   -1.0643    1.4747 F       1  UNL1       -0.2036
     35 H           4.8625   -0.9554   -2.3140 H       1  UNL1        0.0251
     36 H           5.3320    0.8114   -2.4294 H       1  UNL1        0.0251
     37 H           5.9647   -0.2169   -1.1196 H       1  UNL1        0.0251
     38 H           3.3442    1.2482   -1.4594 H       1  UNL1        0.0546
     39 H           3.2211   -1.6089   -0.3515 H       1  UNL1        0.1493
     40 H           0.5583   -1.8972   -0.0844 H       1  UNL1        0.0597
     41 H           0.5538   -3.7491   -1.4179 H       1  UNL1        0.0291
     42 H           2.0962   -3.0844   -1.9800 H       1  UNL1        0.0291
     43 H           1.0262   -2.7753   -4.1617 H       1  UNL1        0.0320
     44 H          -1.4044   -3.1889   -4.4939 H       1  UNL1        0.0286
     45 H          -1.7033   -3.4592   -2.6898 H       1  UNL1        0.0286
     46 H          -0.5320   -0.8172   -3.9066 H       1  UNL1        0.0503
     47 H          -0.6356    0.4491    0.5783 H       1  UNL1        0.0605
     48 H          -1.4079   -1.1700    0.9479 H       1  UNL1        0.0605
     49 H          -6.8861    3.3161    1.5049 H       1  UNL1        0.1453
     50 H          -6.2483    3.5555    3.1611 H       1  UNL1        0.1453
     51 H          -6.6693    1.1484    2.5775 H       1  UNL1        0.0640
     52 H          -7.1473   -1.2653    2.9523 H       1  UNL1        0.0830
     53 H          -3.3332   -2.2196    1.3222 H       1  UNL1        0.0851
     54 H           4.4609    2.9548   -0.5062 H       1  UNL1        0.0622
     55 H           5.3616    4.0269    1.5778 H       1  UNL1        0.0618
     56 H           5.8008    2.7101    3.5352 H       1  UNL1        0.0633
@<TRIPOS>BOND
     1     1     2    1
     2     2     3    1
     3     3     4   am
     4     4     5    2
     5     4     6    1
     6     6     7    1
     7     7     8    1
     8     8     9    1
     9     9    10    1
    10    10    11    1
    11    11    12   am
    12    12    13    2
    13    12    14    1
    14    14    15    1
    15    15    16   ar
    16    16    17   ar
    17    17    18    1
    18    18    19   am
    19    18    20    2
    20    17    21   ar
    21    21    22   ar
    22    22    23   ar
    23    23    24   ar
    24    24    25   ar
    25    25    26   ar
    26     2    27    1
    27    27    28   ar
    28    28    29   ar
    29    29    30   ar
    30    30    31   ar
    31    31    32    1
    32    31    33   ar
    33    33    34    1
    34    11     6    1
    35    26    15   ar
    36    33    27   ar
    37    10     8    1
    38    26    21   ar
    39     1    35    1
    40     1    36    1
    41     1    37    1
    42     2    38    1
    43     3    39    1
    44     6    40    1
    45     7    41    1
    46     7    42    1
    47     8    43    1
    48     9    44    1
    49     9    45    1
    50    10    46    1
    51    14    47    1
    52    14    48    1
    53    19    49    1
    54    19    50    1
    55    22    51    1
    56    23    52    1
    57    25    53    1
    58    28    54    1
    59    29    55    1
    60    30    56    1
