
     RDKit          3D

 56 60  0  0  0  0  0  0  0  0999 V2000
    5.0734   -0.0412   -1.7506 C   0  0  0  0  0  0  0  0  0  0  0  0
    3.8731    0.4136   -0.9183 C   0  0  1  0  0  0  0  0  0  0  0  0
    2.9953   -0.7035   -0.7711 N   0  0  0  0  0  0  0  0  0  0  0  0
    1.6482   -0.5711   -1.2596 C   0  0  0  0  0  0  0  0  0  0  0  0
    1.2991    0.5130   -1.7931 O   0  0  0  0  0  0  0  0  0  0  0  0
    0.6629   -1.6474   -1.1619 C   0  0  2  0  0  0  0  0  0  0  0  0
    1.0239   -2.8743   -1.9443 C   0  0  0  0  0  0  0  0  0  0  0  0
    0.3678   -2.7479   -3.2772 C   0  0  1  0  0  0  0  0  0  0  0  0
   -1.0868   -2.9646   -3.4383 C   0  0  0  0  0  0  0  0  0  0  0  0
   -0.5922   -1.6013   -3.1285 C   0  0  1  0  0  0  0  0  0  0  0  0
   -0.5894   -1.2246   -1.7364 N   0  0  0  0  0  0  0  0  0  0  0  0
   -1.6565   -0.5438   -1.0476 C   0  0  0  0  0  0  0  0  0  0  0  0
   -2.7054   -0.2255   -1.6577 O   0  0  0  0  0  0  0  0  0  0  0  0
   -1.5046   -0.2260    0.3751 C   0  0  0  0  0  0  0  0  0  0  0  0
   -2.6993    0.4618    0.8598 N   0  0  0  0  0  0  0  0  0  0  0  0
   -2.9466    1.7501    0.8829 N   0  0  0  0  0  0  0  0  0  0  0  0
   -4.1768    2.0008    1.4126 C   0  0  0  0  0  0  0  0  0  0  0  0
   -4.7736    3.3155    1.5894 C   0  0  0  0  0  0  0  0  0  0  0  0
   -6.0682    3.4073    2.1604 N   0  0  0  0  0  0  0  0  0  0  0  0
   -4.1565    4.3517    1.2439 O   0  0  0  0  0  0  0  0  0  0  0  0
   -4.7265    0.7804    1.7392 C   0  0  0  0  0  0  0  0  0  0  0  0
   -5.9359    0.4055    2.3017 C   0  0  0  0  0  0  0  0  0  0  0  0
   -6.2059   -0.9281    2.5113 C   0  0  0  0  0  0  0  0  0  0  0  0
   -5.2701   -1.8258    2.1560 N   0  0  0  0  0  0  0  0  0  0  0  0
   -4.0929   -1.4888    1.6104 C   0  0  0  0  0  0  0  0  0  0  0  0
   -3.7717   -0.1500    1.3776 C   0  0  0  0  0  0  0  0  0  0  0  0
    4.4002    0.9823    0.3237 C   0  0  0  0  0  0  0  0  0  0  0  0
    4.6630    2.3560    0.3899 C   0  0  0  0  0  0  0  0  0  0  0  0
    5.1557    2.9641    1.5189 C   0  0  0  0  0  0  0  0  0  0  0  0
    5.4143    2.2264    2.6520 C   0  0  0  0  0  0  0  0  0  0  0  0
    5.1678    0.8815    2.6187 C   0  0  0  0  0  0  0  0  0  0  0  0
    5.4948   -0.0592    4.0566 Cl  0  0  0  0  0  0  0  0  0  0  0  0
    4.6657    0.2645    1.4664 C   0  0  0  0  0  0  0  0  0  0  0  0
    4.4391   -1.0643    1.4747 F   0  0  0  0  0  0  0  0  0  0  0  0
    4.8625   -0.9554   -2.3140 H   0  0  0  0  0  0  0  0  0  0  0  0
    5.3320    0.8114   -2.4294 H   0  0  0  0  0  0  0  0  0  0  0  0
    5.9647   -0.2169   -1.1196 H   0  0  0  0  0  0  0  0  0  0  0  0
    3.3442    1.2482   -1.4594 H   0  0  0  0  0  0  0  0  0  0  0  0
    3.2211   -1.6089   -0.3515 H   0  0  0  0  0  0  0  0  0  0  0  0
    0.5583   -1.8972   -0.0844 H   0  0  0  0  0  0  0  0  0  0  0  0
    0.5538   -3.7491   -1.4179 H   0  0  0  0  0  0  0  0  0  0  0  0
    2.0962   -3.0844   -1.9800 H   0  0  0  0  0  0  0  0  0  0  0  0
    1.0262   -2.7753   -4.1617 H   0  0  0  0  0  0  0  0  0  0  0  0
   -1.4044   -3.1889   -4.4939 H   0  0  0  0  0  0  0  0  0  0  0  0
   -1.7033   -3.4592   -2.6898 H   0  0  0  0  0  0  0  0  0  0  0  0
   -0.5320   -0.8172   -3.9066 H   0  0  0  0  0  0  0  0  0  0  0  0
   -0.6356    0.4491    0.5783 H   0  0  0  0  0  0  0  0  0  0  0  0
   -1.4079   -1.1700    0.9479 H   0  0  0  0  0  0  0  0  0  0  0  0
   -6.8861    3.3161    1.5049 H   0  0  0  0  0  0  0  0  0  0  0  0
   -6.2483    3.5555    3.1611 H   0  0  0  0  0  0  0  0  0  0  0  0
   -6.6693    1.1484    2.5775 H   0  0  0  0  0  0  0  0  0  0  0  0
   -7.1473   -1.2653    2.9523 H   0  0  0  0  0  0  0  0  0  0  0  0
   -3.3332   -2.2196    1.3222 H   0  0  0  0  0  0  0  0  0  0  0  0
    4.4609    2.9548   -0.5062 H   0  0  0  0  0  0  0  0  0  0  0  0
    5.3616    4.0269    1.5778 H   0  0  0  0  0  0  0  0  0  0  0  0
    5.8008    2.7101    3.5352 H   0  0  0  0  0  0  0  0  0  0  0  0
  1  2  1  0
  2  3  1  0
  3  4  1  0
  4  5  2  0
  4  6  1  0
  6  7  1  0
  7  8  1  0
  8  9  1  0
  9 10  1  0
 10 11  1  0
 11 12  1  0
 12 13  2  0
 12 14  1  0
 14 15  1  0
 15 16  1  0
 16 17  2  0
 17 18  1  0
 18 19  1  0
 18 20  2  0
 17 21  1  0
 21 22  2  0
 22 23  1  0
 23 24  2  0
 24 25  1  0
 25 26  2  0
  2 27  1  0
 27 28  2  0
 28 29  1  0
 29 30  2  0
 30 31  1  0
 31 32  1  0
 31 33  2  0
 33 34  1  0
 11  6  1  0
 26 15  1  0
 33 27  1  0
 10  8  1  0
 26 21  1  0
  1 35  1  0
  1 36  1  0
  1 37  1  0
  2 38  1  6
  3 39  1  0
  6 40  1  1
  7 41  1  0
  7 42  1  0
  8 43  1  6
  9 44  1  0
  9 45  1  0
 10 46  1  6
 14 47  1  0
 14 48  1  0
 19 49  1  0
 19 50  1  0
 22 51  1  0
 23 52  1  0
 25 53  1  0
 28 54  1  0
 29 55  1  0
 30 56  1  0
M  END
$$$$
