@<TRIPOS>MOLECULE
*****
 52 55 0 0 0
SMALL
GASTEIGER

@<TRIPOS>ATOM
      1 C           5.0614   -1.6146    2.7533 C.3     1  UNL1       -0.0127
      2 N           3.8417   -1.4018    1.9885 N.3     1  UNL1       -0.3029
      3 C           4.1551   -1.2591    0.5734 C.3     1  UNL1        0.0114
      4 C           3.5845    0.0292    0.0238 C.3     1  UNL1        0.0117
      5 N           2.1455    0.1038    0.2444 N.3     1  UNL1       -0.2999
      6 C           1.6554    1.4191   -0.0908 C.3     1  UNL1        0.0004
      7 C           0.1557    1.5029   -0.0863 C.3     1  UNL1       -0.0240
      8 C          -0.3576    0.5248   -1.1258 C.3     1  UNL1        0.0185
      9 N          -1.8098    0.5288   -1.2345 N.pl3   1  UNL1       -0.2983
     10 C          -2.4020    1.6212   -1.9313 C.ar    1  UNL1        0.0479
     11 C          -1.5668    2.5917   -2.4681 C.ar    1  UNL1       -0.0393
     12 C          -2.0600    3.7067   -3.1613 C.ar    1  UNL1       -0.0599
     13 C          -3.4030    3.8768   -3.3346 C.ar    1  UNL1       -0.0606
     14 C          -4.2185    2.9085   -2.7991 C.ar    1  UNL1       -0.0462
     15 C          -3.7377    1.8167   -2.1202 C.ar    1  UNL1        0.0341
     16 S          -4.8845    0.6063   -1.4801 S.3     1  UNL1       -0.0857
     17 C          -3.8886   -0.6103   -0.6542 C.ar    1  UNL1        0.0341
     18 C          -4.5404   -1.6258   -0.0431 C.ar    1  UNL1       -0.0457
     19 C          -3.8542   -2.6263    0.6347 C.ar    1  UNL1       -0.0490
     20 C          -2.4864   -2.5896    0.6901 C.ar    1  UNL1        0.0566
     21 C          -1.7168   -3.6316    1.4041 C.3     1  UNL1        0.4175
     22 F          -1.9090   -4.9040    0.8610 F       1  UNL1       -0.1659
     23 F          -2.1007   -3.6658    2.7520 F       1  UNL1       -0.1659
     24 F          -0.3748   -3.3391    1.3058 F       1  UNL1       -0.1659
     25 C          -1.8289   -1.5334    0.0539 C.ar    1  UNL1       -0.0276
     26 C          -2.5173   -0.5293   -0.6275 C.ar    1  UNL1        0.0484
     27 C           1.8269   -0.1622    1.6335 C.3     1  UNL1        0.0117
     28 C           3.1094   -0.2563    2.4352 C.3     1  UNL1        0.0114
     29 H           4.8146   -1.6697    3.8213 H       1  UNL1        0.0391
     30 H           5.7182   -0.7373    2.4980 H       1  UNL1        0.0391
     31 H           5.5284   -2.5436    2.3452 H       1  UNL1        0.0391
     32 H           3.8341   -2.1328   -0.0290 H       1  UNL1        0.0439
     33 H           5.2567   -1.1929    0.4903 H       1  UNL1        0.0439
     34 H           4.0975    0.9131    0.4097 H       1  UNL1        0.0439
     35 H           3.7644    0.0008   -1.0804 H       1  UNL1        0.0439
     36 H           2.0781    1.6827   -1.1025 H       1  UNL1        0.0427
     37 H           2.1092    2.1881    0.6043 H       1  UNL1        0.0427
     38 H          -0.2184    2.5175   -0.1668 H       1  UNL1        0.0293
     39 H          -0.1894    1.1278    0.9295 H       1  UNL1        0.0293
     40 H           0.0213    0.8111   -2.1497 H       1  UNL1        0.0468
     41 H           0.1071   -0.4371   -0.9412 H       1  UNL1        0.0468
     42 H          -0.5037    2.5777   -2.4130 H       1  UNL1        0.0636
     43 H          -1.3916    4.4607   -3.5769 H       1  UNL1        0.0618
     44 H          -3.8084    4.7230   -3.8620 H       1  UNL1        0.0618
     45 H          -5.3057    3.0148   -2.9203 H       1  UNL1        0.0629
     46 H          -5.6154   -1.6800   -0.0695 H       1  UNL1        0.0629
     47 H          -4.3837   -3.4455    1.1267 H       1  UNL1        0.0623
     48 H          -0.7728   -1.5460    0.1373 H       1  UNL1        0.0642
     49 H           1.2668    0.6824    2.1006 H       1  UNL1        0.0439
     50 H           1.2142   -1.0715    1.7700 H       1  UNL1        0.0439
     51 H           2.8389   -0.4349    3.5195 H       1  UNL1        0.0439
     52 H           3.6609    0.7045    2.3625 H       1  UNL1        0.0439
@<TRIPOS>BOND
     1     1     2    1
     2     2     3    1
     3     3     4    1
     4     4     5    1
     5     5     6    1
     6     6     7    1
     7     7     8    1
     8     8     9    1
     9     9    10    1
    10    10    11   ar
    11    11    12   ar
    12    12    13   ar
    13    13    14   ar
    14    14    15   ar
    15    15    16    1
    16    16    17    1
    17    17    18   ar
    18    18    19   ar
    19    19    20   ar
    20    20    21    1
    21    21    22    1
    22    21    23    1
    23    21    24    1
    24    20    25   ar
    25    25    26   ar
    26     5    27    1
    27    27    28    1
    28    28     2    1
    29    26     9    1
    30    15    10   ar
    31    26    17   ar
    32     1    29    1
    33     1    30    1
    34     1    31    1
    35     3    32    1
    36     3    33    1
    37     4    34    1
    38     4    35    1
    39     6    36    1
    40     6    37    1
    41     7    38    1
    42     7    39    1
    43     8    40    1
    44     8    41    1
    45    11    42    1
    46    12    43    1
    47    13    44    1
    48    14    45    1
    49    18    46    1
    50    19    47    1
    51    25    48    1
    52    27    49    1
    53    27    50    1
    54    28    51    1
    55    28    52    1
