
     RDKit          3D

 52 55  0  0  0  0  0  0  0  0999 V2000
    5.0614   -1.6146    2.7533 C   0  0  0  0  0  0  0  0  0  0  0  0
    3.8417   -1.4018    1.9885 N   0  0  0  0  0  0  0  0  0  0  0  0
    4.1551   -1.2591    0.5734 C   0  0  0  0  0  0  0  0  0  0  0  0
    3.5845    0.0292    0.0238 C   0  0  0  0  0  0  0  0  0  0  0  0
    2.1455    0.1038    0.2444 N   0  0  0  0  0  0  0  0  0  0  0  0
    1.6554    1.4191   -0.0908 C   0  0  0  0  0  0  0  0  0  0  0  0
    0.1557    1.5029   -0.0863 C   0  0  0  0  0  0  0  0  0  0  0  0
   -0.3576    0.5248   -1.1258 C   0  0  0  0  0  0  0  0  0  0  0  0
   -1.8098    0.5288   -1.2345 N   0  0  0  0  0  0  0  0  0  0  0  0
   -2.4020    1.6212   -1.9313 C   0  0  0  0  0  0  0  0  0  0  0  0
   -1.5668    2.5917   -2.4681 C   0  0  0  0  0  0  0  0  0  0  0  0
   -2.0600    3.7067   -3.1613 C   0  0  0  0  0  0  0  0  0  0  0  0
   -3.4030    3.8768   -3.3346 C   0  0  0  0  0  0  0  0  0  0  0  0
   -4.2185    2.9085   -2.7991 C   0  0  0  0  0  0  0  0  0  0  0  0
   -3.7377    1.8167   -2.1202 C   0  0  0  0  0  0  0  0  0  0  0  0
   -4.8845    0.6063   -1.4801 S   0  0  0  0  0  0  0  0  0  0  0  0
   -3.8886   -0.6103   -0.6542 C   0  0  0  0  0  0  0  0  0  0  0  0
   -4.5404   -1.6258   -0.0431 C   0  0  0  0  0  0  0  0  0  0  0  0
   -3.8542   -2.6263    0.6347 C   0  0  0  0  0  0  0  0  0  0  0  0
   -2.4864   -2.5896    0.6901 C   0  0  0  0  0  0  0  0  0  0  0  0
   -1.7168   -3.6316    1.4041 C   0  0  0  0  0  0  0  0  0  0  0  0
   -1.9090   -4.9040    0.8610 F   0  0  0  0  0  0  0  0  0  0  0  0
   -2.1007   -3.6658    2.7520 F   0  0  0  0  0  0  0  0  0  0  0  0
   -0.3748   -3.3391    1.3058 F   0  0  0  0  0  0  0  0  0  0  0  0
   -1.8289   -1.5334    0.0539 C   0  0  0  0  0  0  0  0  0  0  0  0
   -2.5173   -0.5293   -0.6275 C   0  0  0  0  0  0  0  0  0  0  0  0
    1.8269   -0.1622    1.6335 C   0  0  0  0  0  0  0  0  0  0  0  0
    3.1094   -0.2563    2.4352 C   0  0  0  0  0  0  0  0  0  0  0  0
    4.8146   -1.6697    3.8213 H   0  0  0  0  0  0  0  0  0  0  0  0
    5.7182   -0.7373    2.4980 H   0  0  0  0  0  0  0  0  0  0  0  0
    5.5284   -2.5436    2.3452 H   0  0  0  0  0  0  0  0  0  0  0  0
    3.8341   -2.1328   -0.0290 H   0  0  0  0  0  0  0  0  0  0  0  0
    5.2567   -1.1929    0.4903 H   0  0  0  0  0  0  0  0  0  0  0  0
    4.0975    0.9131    0.4097 H   0  0  0  0  0  0  0  0  0  0  0  0
    3.7644    0.0008   -1.0804 H   0  0  0  0  0  0  0  0  0  0  0  0
    2.0781    1.6827   -1.1025 H   0  0  0  0  0  0  0  0  0  0  0  0
    2.1092    2.1881    0.6043 H   0  0  0  0  0  0  0  0  0  0  0  0
   -0.2184    2.5175   -0.1668 H   0  0  0  0  0  0  0  0  0  0  0  0
   -0.1894    1.1278    0.9295 H   0  0  0  0  0  0  0  0  0  0  0  0
    0.0213    0.8111   -2.1497 H   0  0  0  0  0  0  0  0  0  0  0  0
    0.1071   -0.4371   -0.9412 H   0  0  0  0  0  0  0  0  0  0  0  0
   -0.5037    2.5777   -2.4130 H   0  0  0  0  0  0  0  0  0  0  0  0
   -1.3916    4.4607   -3.5769 H   0  0  0  0  0  0  0  0  0  0  0  0
   -3.8084    4.7230   -3.8620 H   0  0  0  0  0  0  0  0  0  0  0  0
   -5.3057    3.0148   -2.9203 H   0  0  0  0  0  0  0  0  0  0  0  0
   -5.6154   -1.6800   -0.0695 H   0  0  0  0  0  0  0  0  0  0  0  0
   -4.3837   -3.4455    1.1267 H   0  0  0  0  0  0  0  0  0  0  0  0
   -0.7728   -1.5460    0.1373 H   0  0  0  0  0  0  0  0  0  0  0  0
    1.2668    0.6824    2.1006 H   0  0  0  0  0  0  0  0  0  0  0  0
    1.2142   -1.0715    1.7700 H   0  0  0  0  0  0  0  0  0  0  0  0
    2.8389   -0.4349    3.5195 H   0  0  0  0  0  0  0  0  0  0  0  0
    3.6609    0.7045    2.3625 H   0  0  0  0  0  0  0  0  0  0  0  0
  1  2  1  0
  2  3  1  0
  3  4  1  0
  4  5  1  0
  5  6  1  0
  6  7  1  0
  7  8  1  0
  8  9  1  0
  9 10  1  0
 10 11  2  0
 11 12  1  0
 12 13  2  0
 13 14  1  0
 14 15  2  0
 15 16  1  0
 16 17  1  0
 17 18  2  0
 18 19  1  0
 19 20  2  0
 20 21  1  0
 21 22  1  0
 21 23  1  0
 21 24  1  0
 20 25  1  0
 25 26  2  0
  5 27  1  0
 27 28  1  0
 28  2  1  0
 26  9  1  0
 15 10  1  0
 26 17  1  0
  1 29  1  0
  1 30  1  0
  1 31  1  0
  3 32  1  0
  3 33  1  0
  4 34  1  0
  4 35  1  0
  6 36  1  0
  6 37  1  0
  7 38  1  0
  7 39  1  0
  8 40  1  0
  8 41  1  0
 11 42  1  0
 12 43  1  0
 13 44  1  0
 14 45  1  0
 18 46  1  0
 19 47  1  0
 25 48  1  0
 27 49  1  0
 27 50  1  0
 28 51  1  0
 28 52  1  0
M  END
$$$$
