@<TRIPOS>MOLECULE
*****
 72 76 0 0 0
SMALL
GASTEIGER

@<TRIPOS>ATOM
      1 C           6.4291   -2.2219   -1.6468 C.3     1  UNL1       -0.0219
      2 C           6.5287   -0.8677   -0.9862 C.ar    1  UNL1        0.0485
      3 N           7.5849   -0.1089   -1.3307 N.ar    1  UNL1       -0.2371
      4 C           7.7573    1.1088   -0.7956 C.ar    1  UNL1        0.1199
      5 N           8.8593    1.9030   -1.1536 N.pl3   1  UNL1       -0.3430
      6 C           6.8156    1.5415    0.1105 C.ar    1  UNL1        0.0200
      7 C           5.6995    0.7826    0.4965 C.ar    1  UNL1        0.1301
      8 C           5.5611   -0.4860   -0.0887 C.ar    1  UNL1        0.0324
      9 C           4.4994   -1.4372    0.1952 C.3     1  UNL1        0.0423
     10 N           3.2864   -1.2039   -0.6320 N.am    1  UNL1       -0.3070
     11 C           2.1183   -1.9029   -0.4392 C.2     1  UNL1        0.2473
     12 O           2.3790   -2.7551    0.5472 O.2     1  UNL1       -0.2701
     13 C           0.7417   -1.9640   -0.9794 C.ar    1  UNL1        0.0741
     14 C           0.0248   -3.1855   -1.0370 C.ar    1  UNL1        0.0615
     15 N          -1.1669   -2.8659   -1.4976 N.ar    1  UNL1       -0.1786
     16 N          -1.2449   -1.5261   -1.7333 N.ar    1  UNL1       -0.2662
     17 C          -0.0908   -0.9534   -1.4275 C.ar    1  UNL1        0.0380
     18 C          -2.5279   -1.0049   -2.2119 C.3     1  UNL1        0.0699
     19 C          -3.4872   -1.1679   -1.0791 C.ar    1  UNL1        0.0155
     20 C          -4.6275   -1.8786   -1.2887 C.ar    1  UNL1       -0.0530
     21 C          -5.5698   -2.1277   -0.3106 C.ar    1  UNL1       -0.0563
     22 C          -5.3608   -1.6388    0.9513 C.ar    1  UNL1       -0.0227
     23 C          -6.3603   -1.8994    2.0103 C.3     1  UNL1        0.0666
     24 N          -7.3808   -0.8684    2.0956 N.ar    1  UNL1       -0.2671
     25 C          -8.5244   -0.9245    1.3914 C.ar    1  UNL1        0.0258
     26 C          -9.2847    0.1872    1.6844 C.ar    1  UNL1       -0.0242
     27 C          -8.5461    0.9094    2.5935 C.ar    1  UNL1        0.0494
     28 N          -7.4144    0.2239    2.7995 N.ar    1  UNL1       -0.1794
     29 C          -4.2049   -0.9171    1.1660 C.ar    1  UNL1       -0.0147
     30 C          -3.2377   -0.6444    0.2119 C.ar    1  UNL1        0.1257
     31 O          -2.1329    0.0602    0.4556 O.3     1  UNL1       -0.4916
     32 C          -1.5079    1.2259    0.6725 C.3     1  UNL1        0.0899
     33 C          -1.6162    2.3116   -0.3768 C.3     1  UNL1       -0.0152
     34 C          -0.8140    3.4829    0.0648 C.3     1  UNL1       -0.0317
     35 C           0.6601    3.4323    0.2028 C.2     1  UNL1       -0.0877
     36 C           1.6376    2.6168    0.0573 C.2     1  UNL1       -0.0847
     37 C           3.1314    2.6137    0.2076 C.3     1  UNL1       -0.0004
     38 C           3.4389    1.5500    1.2899 C.3     1  UNL1        0.0930
     39 O           4.7958    1.2813    1.4097 O.3     1  UNL1       -0.4912
     40 H           6.7488   -2.9557   -0.8787 H       1  UNL1        0.0293
     41 H           7.1070   -2.2958   -2.4926 H       1  UNL1        0.0293
     42 H           5.3717   -2.4493   -1.9003 H       1  UNL1        0.0293
     43 H           9.0851    2.1199   -2.1486 H       1  UNL1        0.1437
     44 H           9.5004    2.3106   -0.4324 H       1  UNL1        0.1437
     45 H           7.0124    2.5432    0.5244 H       1  UNL1        0.0689
     46 H           4.1476   -1.2930    1.2530 H       1  UNL1        0.0513
     47 H           4.8701   -2.4517    0.1034 H       1  UNL1        0.0513
     48 H           3.5054   -0.4886   -1.3000 H       1  UNL1        0.1493
     49 H           0.3765   -4.1921   -0.7619 H       1  UNL1        0.0855
     50 H           0.1784    0.1593   -1.5285 H       1  UNL1        0.0834
     51 H          -2.5856   -0.0639   -2.7014 H       1  UNL1        0.0560
     52 H          -2.9248   -1.7143   -3.0278 H       1  UNL1        0.0560
     53 H          -4.8664   -2.3051   -2.2794 H       1  UNL1        0.0622
     54 H          -6.4676   -2.6938   -0.5040 H       1  UNL1        0.0621
     55 H          -5.8302   -2.0175    2.9896 H       1  UNL1        0.0558
     56 H          -6.8749   -2.8610    1.8403 H       1  UNL1        0.0558
     57 H          -8.8546   -1.6896    0.6918 H       1  UNL1        0.0826
     58 H         -10.2647    0.4072    1.2586 H       1  UNL1        0.0648
     59 H          -8.8636    1.8455    3.0286 H       1  UNL1        0.0848
     60 H          -4.1202   -0.5834    2.2146 H       1  UNL1        0.0657
     61 H          -0.3989    1.0218    0.7973 H       1  UNL1        0.0696
     62 H          -1.8232    1.7400    1.6516 H       1  UNL1        0.0696
     63 H          -2.6864    2.6655   -0.4569 H       1  UNL1        0.0301
     64 H          -1.2894    1.8896   -1.3461 H       1  UNL1        0.0301
     65 H          -1.3200    3.8178    1.0208 H       1  UNL1        0.0308
     66 H          -1.0979    4.3899   -0.6057 H       1  UNL1        0.0308
     67 H           0.8398    4.5508    0.5698 H       1  UNL1        0.0569
     68 H           1.5257    1.5108   -0.2989 H       1  UNL1        0.0570
     69 H           3.6237    2.2294   -0.7389 H       1  UNL1        0.0340
     70 H           3.6884    3.4621    0.5122 H       1  UNL1        0.0340
     71 H           3.0511    2.0054    2.2648 H       1  UNL1        0.0699
     72 H           2.7877    0.7051    1.0828 H       1  UNL1        0.0699
@<TRIPOS>BOND
     1     1     2    1
     2     2     3   ar
     3     3     4   ar
     4     4     5    1
     5     4     6   ar
     6     6     7   ar
     7     7     8   ar
     8     8     9    1
     9     9    10    1
    10    10    11   am
    11    11    12    2
    12    11    13    1
    13    13    14   ar
    14    14    15   ar
    15    15    16   ar
    16    16    17   ar
    17    16    18    1
    18    18    19    1
    19    19    20   ar
    20    20    21   ar
    21    21    22   ar
    22    22    23    1
    23    23    24    1
    24    24    25   ar
    25    25    26   ar
    26    26    27   ar
    27    27    28   ar
    28    22    29   ar
    29    29    30   ar
    30    30    31    1
    31    31    32    1
    32    32    33    1
    33    33    34    1
    34    34    35    1
    35    35    36    2
    36    36    37    1
    37    37    38    1
    38    38    39    1
    39     8     2   ar
    40    17    13   ar
    41    30    19   ar
    42    39     7    1
    43    28    24   ar
    44     1    40    1
    45     1    41    1
    46     1    42    1
    47     5    43    1
    48     5    44    1
    49     6    45    1
    50     9    46    1
    51     9    47    1
    52    10    48    1
    53    14    49    1
    54    17    50    1
    55    18    51    1
    56    18    52    1
    57    20    53    1
    58    21    54    1
    59    23    55    1
    60    23    56    1
    61    25    57    1
    62    26    58    1
    63    27    59    1
    64    29    60    1
    65    32    61    1
    66    32    62    1
    67    33    63    1
    68    33    64    1
    69    34    65    1
    70    34    66    1
    71    35    67    1
    72    36    68    1
    73    37    69    1
    74    37    70    1
    75    38    71    1
    76    38    72    1
