
     RDKit          3D

 53 56  0  0  0  0  0  0  0  0999 V2000
    4.5878    3.5717   -2.0219 C   0  0  0  0  0  3  0  0  0  0  0  0
    4.4284    2.4816   -1.4850 N   0  0  0  0  0  4  0  0  0  0  0  0
    4.2748    1.2780   -0.9017 C   0  0  0  0  0  0  0  0  0  0  0  0
    3.1312    1.0046   -0.1243 C   0  0  0  0  0  0  0  0  0  0  0  0
    2.9314   -0.1503    0.4757 N   0  0  0  0  0  0  0  0  0  0  0  0
    3.7993   -1.1736    0.4006 C   0  0  0  0  0  0  0  0  0  0  0  0
    3.5002   -2.3472    1.0367 C   0  0  0  0  0  0  0  0  0  0  0  0
    2.2993   -2.4883    1.8014 N   0  0  0  0  0  0  0  0  0  0  0  0
    1.4233   -1.4168    2.0455 C   0  0  0  0  0  0  0  0  0  0  0  0
    1.8259   -0.4531    2.9540 C   0  0  0  0  0  0  0  0  0  0  0  0
    1.0175    0.6377    3.1628 C   0  0  0  0  0  0  0  0  0  0  0  0
   -0.1696    0.7559    2.4728 C   0  0  0  0  0  0  0  0  0  0  0  0
   -0.9914    1.8444    2.6655 F   0  0  0  0  0  0  0  0  0  0  0  0
   -0.6085   -0.1904    1.5566 C   0  0  0  0  0  0  0  0  0  0  0  0
   -1.8865   -0.0386    0.8357 C   0  0  2  0  0  0  0  0  0  0  0  0
   -3.0507    0.0388    1.8274 C   0  0  0  0  0  0  0  0  0  0  0  0
   -2.1392   -1.2102   -0.0739 C   0  0  0  0  0  0  0  0  0  0  0  0
   -3.6144   -0.8898   -1.0147 S   0  0  0  0  0  6  0  0  0  0  0  0
   -4.8306   -1.5477   -0.4025 O   0  0  0  0  0  0  0  0  0  0  0  0
   -3.4227   -1.5336   -2.3906 O   0  0  0  0  0  0  0  0  0  0  0  0
   -3.8402    0.8424   -1.1554 C   0  0  0  0  0  0  0  0  0  0  0  0
   -4.1054    1.1491   -2.6457 C   0  0  0  0  0  0  0  0  0  0  0  0
   -5.0140    1.3804   -0.3594 C   0  0  0  0  0  0  0  0  0  0  0  0
   -2.6147    1.5865   -0.8276 C   0  0  0  0  0  0  0  0  0  0  0  0
   -2.3541    2.8559   -1.5090 N   0  0  0  0  0  0  0  0  0  0  0  0
   -1.8010    1.1699    0.0347 N   0  0  0  0  0  0  0  0  0  0  0  0
    0.2202   -1.2822    1.3611 C   0  0  0  0  0  0  0  0  0  0  0  0
    4.4050   -3.3424    0.9020 N   0  0  0  0  0  0  0  0  0  0  0  0
    5.5266   -3.2069    0.1955 C   0  0  0  0  0  0  0  0  0  0  0  0
    5.8399   -2.0104   -0.4601 C   0  0  0  0  0  0  0  0  0  0  0  0
    6.9600   -1.8840   -1.1603 F   0  0  0  0  0  0  0  0  0  0  0  0
    4.9370   -0.9416   -0.3557 C   0  0  0  0  0  0  0  0  0  0  0  0
    5.1763    0.2508   -0.9938 C   0  0  0  0  0  0  0  0  0  0  0  0
    2.4112    1.8231   -0.0500 H   0  0  0  0  0  0  0  0  0  0  0  0
    2.0874   -3.4322    2.1810 H   0  0  0  0  0  0  0  0  0  0  0  0
    2.7827   -0.5876    3.4880 H   0  0  0  0  0  0  0  0  0  0  0  0
    1.3010    1.4121    3.8728 H   0  0  0  0  0  0  0  0  0  0  0  0
   -3.8922   -0.5704    1.4587 H   0  0  0  0  0  0  0  0  0  0  0  0
   -3.4077    1.0669    1.9777 H   0  0  0  0  0  0  0  0  0  0  0  0
   -2.7668   -0.4386    2.8079 H   0  0  0  0  0  0  0  0  0  0  0  0
   -2.2269   -2.1455    0.5164 H   0  0  0  0  0  0  0  0  0  0  0  0
   -1.3127   -1.2577   -0.8126 H   0  0  0  0  0  0  0  0  0  0  0  0
   -4.5768    2.1702   -2.6438 H   0  0  0  0  0  0  0  0  0  0  0  0
   -4.8554    0.4569   -3.0413 H   0  0  0  0  0  0  0  0  0  0  0  0
   -3.2033    1.1778   -3.2378 H   0  0  0  0  0  0  0  0  0  0  0  0
   -4.6603    2.2361    0.2747 H   0  0  0  0  0  0  0  0  0  0  0  0
   -5.7664    1.8308   -1.0629 H   0  0  0  0  0  0  0  0  0  0  0  0
   -5.5439    0.6194    0.2097 H   0  0  0  0  0  0  0  0  0  0  0  0
   -1.6813    3.4824   -1.0486 H   0  0  0  0  0  0  0  0  0  0  0  0
   -2.8127    3.0934   -2.3804 H   0  0  0  0  0  0  0  0  0  0  0  0
   -0.0633   -2.0603    0.6622 H   0  0  0  0  0  0  0  0  0  0  0  0
    6.2755   -4.0081    0.0699 H   0  0  0  0  0  0  0  0  0  0  0  0
    6.0711    0.3907   -1.5671 H   0  0  0  0  0  0  0  0  0  0  0  0
  1  2  3  0
  2  3  1  0
  3  4  2  0
  4  5  1  0
  5  6  2  0
  6  7  1  0
  7  8  1  0
  8  9  1  0
  9 10  2  0
 10 11  1  0
 11 12  2  0
 12 13  1  0
 12 14  1  0
 14 15  1  0
 15 16  1  1
 15 17  1  0
 17 18  1  0
 18 19  2  0
 18 20  2  0
 18 21  1  0
 21 22  1  0
 21 23  1  0
 21 24  1  0
 24 25  1  0
 24 26  2  0
 14 27  2  0
  7 28  2  0
 28 29  1  0
 29 30  2  0
 30 31  1  0
 30 32  1  0
 32 33  2  0
 33  3  1  0
 32  6  1  0
 27  9  1  0
 26 15  1  0
  4 34  1  0
  8 35  1  0
 10 36  1  0
 11 37  1  0
 16 38  1  0
 16 39  1  0
 16 40  1  0
 17 41  1  0
 17 42  1  0
 22 43  1  0
 22 44  1  0
 22 45  1  0
 23 46  1  0
 23 47  1  0
 23 48  1  0
 25 49  1  0
 25 50  1  0
 27 51  1  0
 29 52  1  0
 33 53  1  0
M  CHG  2   1  -1   2   1
M  END
$$$$
