@<TRIPOS>MOLECULE
*****
 53 56 0 0 0
SMALL
GASTEIGER

@<TRIPOS>ATOM
      1 C           4.5878    3.5717   -2.0219 C.2     1  UNL1       -0.2277
      2 N           4.4284    2.4816   -1.4850 N.1     1  UNL1       -0.2653
      3 C           4.2748    1.2780   -0.9017 C.ar    1  UNL1        0.3099
      4 C           3.1312    1.0046   -0.1243 C.ar    1  UNL1        0.1143
      5 N           2.9314   -0.1503    0.4757 N.ar    1  UNL1       -0.2438
      6 C           3.7993   -1.1736    0.4006 C.ar    1  UNL1        0.1141
      7 C           3.5002   -2.3472    1.0367 C.ar    1  UNL1        0.1492
      8 N           2.2993   -2.4883    1.8014 N.pl3   1  UNL1       -0.2977
      9 C           1.4233   -1.4168    2.0455 C.ar    1  UNL1        0.0330
     10 C           1.8259   -0.4531    2.9540 C.ar    1  UNL1       -0.0378
     11 C           1.0175    0.6377    3.1628 C.ar    1  UNL1       -0.0243
     12 C          -0.1696    0.7559    2.4728 C.ar    1  UNL1        0.1311
     13 F          -0.9914    1.8444    2.6655 F       1  UNL1       -0.2050
     14 C          -0.6085   -0.1904    1.5566 C.ar    1  UNL1        0.0420
     15 C          -1.8865   -0.0386    0.8357 C.3     1  UNL1        0.1959
     16 C          -3.0507    0.0388    1.8274 C.3     1  UNL1       -0.0112
     17 C          -2.1392   -1.2102   -0.0739 C.3     1  UNL1        0.1183
     18 S          -3.6144   -0.8898   -1.0147 S.O2    1  UNL1       -0.0101
     19 O          -4.8306   -1.5477   -0.4025 O.2     1  UNL1       -0.1731
     20 O          -3.4227   -1.5336   -2.3906 O.2     1  UNL1       -0.1731
     21 C          -3.8402    0.8424   -1.1554 C.3     1  UNL1        0.1831
     22 C          -4.1054    1.1491   -2.6457 C.3     1  UNL1       -0.0288
     23 C          -5.0140    1.3804   -0.3594 C.3     1  UNL1       -0.0288
     24 C          -2.6147    1.5865   -0.8276 C.2     1  UNL1        0.3067
     25 N          -2.3541    2.8559   -1.5090 N.pl3   1  UNL1       -0.2488
     26 N          -1.8010    1.1699    0.0347 N.2     1  UNL1       -0.0727
     27 C           0.2202   -1.2822    1.3611 C.ar    1  UNL1       -0.0301
     28 N           4.4050   -3.3424    0.9020 N.ar    1  UNL1       -0.2351
     29 C           5.5266   -3.2069    0.1955 C.ar    1  UNL1        0.0656
     30 C           5.8399   -2.0104   -0.4601 C.ar    1  UNL1        0.1509
     31 F           6.9600   -1.8840   -1.1603 F       1  UNL1       -0.2032
     32 C           4.9370   -0.9416   -0.3557 C.ar    1  UNL1        0.0477
     33 C           5.1763    0.2508   -0.9938 C.ar    1  UNL1        0.0382
     34 H           2.4112    1.8231   -0.0500 H       1  UNL1        0.0908
     35 H           2.0874   -3.4322    2.1810 H       1  UNL1        0.1536
     36 H           2.7827   -0.5876    3.4880 H       1  UNL1        0.0637
     37 H           1.3010    1.4121    3.8728 H       1  UNL1        0.0647
     38 H          -3.8922   -0.5704    1.4587 H       1  UNL1        0.0279
     39 H          -3.4077    1.0669    1.9777 H       1  UNL1        0.0279
     40 H          -2.7668   -0.4386    2.8079 H       1  UNL1        0.0279
     41 H          -2.2269   -2.1455    0.5164 H       1  UNL1        0.0550
     42 H          -1.3127   -1.2577   -0.8126 H       1  UNL1        0.0550
     43 H          -4.5768    2.1702   -2.6438 H       1  UNL1        0.0256
     44 H          -4.8554    0.4569   -3.0413 H       1  UNL1        0.0256
     45 H          -3.2033    1.1778   -3.2378 H       1  UNL1        0.0256
     46 H          -4.6603    2.2361    0.2747 H       1  UNL1        0.0256
     47 H          -5.7664    1.8308   -1.0629 H       1  UNL1        0.0256
     48 H          -5.5439    0.6194    0.2097 H       1  UNL1        0.0256
     49 H          -1.6813    3.4824   -1.0486 H       1  UNL1        0.2881
     50 H          -2.8127    3.0934   -2.3804 H       1  UNL1        0.2881
     51 H          -0.0633   -2.0603    0.6622 H       1  UNL1        0.0641
     52 H           6.2755   -4.0081    0.0699 H       1  UNL1        0.0860
     53 H           6.0711    0.3907   -1.5671 H       1  UNL1        0.0702
@<TRIPOS>UNITY_ATOM_ATTR
1 1
charge -1
2 1
charge 1
@<TRIPOS>BOND
     1     1     2    3
     2     2     3    1
     3     3     4   ar
     4     4     5   ar
     5     5     6   ar
     6     6     7   ar
     7     7     8    1
     8     8     9    1
     9     9    10   ar
    10    10    11   ar
    11    11    12   ar
    12    12    13    1
    13    12    14   ar
    14    14    15    1
    15    15    16    1
    16    15    17    1
    17    17    18    1
    18    18    19    2
    19    18    20    2
    20    18    21    1
    21    21    22    1
    22    21    23    1
    23    21    24    1
    24    24    25    1
    25    24    26    2
    26    14    27   ar
    27     7    28   ar
    28    28    29   ar
    29    29    30   ar
    30    30    31    1
    31    30    32   ar
    32    32    33   ar
    33    33     3   ar
    34    32     6   ar
    35    27     9   ar
    36    26    15    1
    37     4    34    1
    38     8    35    1
    39    10    36    1
    40    11    37    1
    41    16    38    1
    42    16    39    1
    43    16    40    1
    44    17    41    1
    45    17    42    1
    46    22    43    1
    47    22    44    1
    48    22    45    1
    49    23    46    1
    50    23    47    1
    51    23    48    1
    52    25    49    1
    53    25    50    1
    54    27    51    1
    55    29    52    1
    56    33    53    1
