@<TRIPOS>MOLECULE
*****
 77 80 0 0 0
SMALL
GASTEIGER

@<TRIPOS>ATOM
      1 C           5.0679    3.6902   -0.9346 C.3     1  UNL1       -0.0155
      2 C           5.9008    4.2767    0.1760 C.3     1  UNL1       -0.0583
      3 C           5.5535    4.2636   -2.2456 C.3     1  UNL1       -0.0492
      4 C           4.7692    3.7223   -3.4193 C.3     1  UNL1       -0.0647
      5 C           4.9534    2.2359   -0.9047 C.ar    1  UNL1       -0.0024
      6 C           5.9901    1.4945   -1.4116 C.ar    1  UNL1        0.1203
      7 O           7.1745    1.9096   -1.9735 O.3     1  UNL1       -0.5065
      8 C           5.9036    0.1052   -1.3859 C.ar    1  UNL1       -0.0192
      9 C           4.7751   -0.5277   -0.8491 C.ar    1  UNL1       -0.0461
     10 C           3.6823    0.1689   -0.3149 C.ar    1  UNL1        0.0365
     11 C           3.8697    1.5593   -0.3905 C.ar    1  UNL1       -0.0426
     12 C           2.5069   -0.4284    0.2974 C.2     1  UNL1        0.2155
     13 O           1.5058    0.4424    0.6947 O.2     1  UNL1       -0.4922
     14 N           2.6837   -1.6295    0.3236 N.2     1  UNL1       -0.2421
     15 C           2.3314   -2.8650    0.6031 C.3     1  UNL1        0.1037
     16 C           2.6234   -3.9264   -0.5192 C.3     1  UNL1        0.0219
     17 N           2.1427   -5.2074    0.0099 N.3     1  UNL1       -0.3138
     18 C           2.7724   -5.6147    1.2106 C.3     1  UNL1       -0.0039
     19 C           2.5215   -4.9282    2.4808 C.3     1  UNL1       -0.0370
     20 C           1.4237   -3.9597    2.5868 C.3     1  UNL1       -0.0124
     21 C           1.0733   -3.3350    1.2167 C.3     1  UNL1        0.1269
     22 O          -0.0260   -2.4999    1.2604 O.3     1  UNL1       -0.4557
     23 C          -1.2929   -2.8163    0.8513 C.2     1  UNL1        0.3395
     24 O          -1.2351   -4.0325    0.4469 O.2     1  UNL1       -0.2450
     25 C          -2.5922   -2.1760    0.7603 C.ar    1  UNL1        0.0590
     26 C          -2.7352   -0.8665    1.1460 C.ar    1  UNL1       -0.0471
     27 C          -3.9820   -0.2925    1.0783 C.ar    1  UNL1       -0.0501
     28 C          -5.1287   -0.9734    0.6312 C.ar    1  UNL1        0.0224
     29 C          -4.8588   -2.2818    0.2721 C.ar    1  UNL1       -0.0501
     30 C          -3.6548   -2.9309    0.3081 C.ar    1  UNL1       -0.0471
     31 C          -6.4739   -0.4824    0.4793 C.2     1  UNL1        0.1967
     32 O          -7.3681   -1.3819    0.6087 O.2     1  UNL1       -0.2865
     33 C          -7.0694    0.8089    0.2083 C.ar    1  UNL1        0.0671
     34 C          -8.4336    0.9350    0.3052 C.ar    1  UNL1        0.1279
     35 O          -9.2993   -0.0831    0.6820 O.3     1  UNL1       -0.5061
     36 C          -9.0326    2.1683    0.0103 C.ar    1  UNL1       -0.0160
     37 C          -8.2621    3.2631   -0.3795 C.ar    1  UNL1       -0.0165
     38 C          -6.8611    3.2014   -0.4990 C.ar    1  UNL1        0.1210
     39 O          -6.1146    4.2649   -0.8790 O.3     1  UNL1       -0.4951
     40 C          -6.6787    5.5098   -1.1829 C.3     1  UNL1        0.0788
     41 C          -6.3738    1.9358   -0.1832 C.ar    1  UNL1       -0.0056
     42 H           4.0414    4.1561   -0.7934 H       1  UNL1        0.0347
     43 H           6.3277    5.2775   -0.0952 H       1  UNL1        0.0236
     44 H           5.2456    4.4481    1.0495 H       1  UNL1        0.0236
     45 H           6.6968    3.5639    0.5086 H       1  UNL1        0.0236
     46 H           6.6264    4.0928   -2.3259 H       1  UNL1        0.0268
     47 H           5.3971    5.3764   -2.2769 H       1  UNL1        0.0268
     48 H           3.7041    3.5341   -3.1372 H       1  UNL1        0.0230
     49 H           5.2968    2.8183   -3.7504 H       1  UNL1        0.0230
     50 H           4.7787    4.4816   -4.2300 H       1  UNL1        0.0230
     51 H           8.0656    1.4427   -1.8321 H       1  UNL1        0.2921
     52 H           6.6572   -0.5965   -1.7613 H       1  UNL1        0.0654
     53 H           4.7180   -1.6255   -0.8364 H       1  UNL1        0.0626
     54 H           3.0793    2.1890   -0.0090 H       1  UNL1        0.0629
     55 H           0.7823    0.0758    1.2975 H       1  UNL1        0.2937
     56 H           3.1674   -3.2658    1.3659 H       1  UNL1        0.0595
     57 H           3.6691   -3.9403   -0.7900 H       1  UNL1        0.0446
     58 H           1.9756   -3.6591   -1.3543 H       1  UNL1        0.0446
     59 H           2.3005   -5.9123   -0.7336 H       1  UNL1        0.1220
     60 H           2.4911   -6.7178    1.3306 H       1  UNL1        0.0424
     61 H           3.9052   -5.6701    1.0921 H       1  UNL1        0.0424
     62 H           2.2860   -5.7495    3.2518 H       1  UNL1        0.0279
     63 H           3.4592   -4.4734    2.9325 H       1  UNL1        0.0279
     64 H           1.7809   -3.0545    3.1742 H       1  UNL1        0.0302
     65 H           0.5039   -4.2907    3.1081 H       1  UNL1        0.0302
     66 H           0.7008   -4.2715    0.6662 H       1  UNL1        0.0756
     67 H          -1.9126   -0.2316    1.5113 H       1  UNL1        0.0626
     68 H          -4.1621    0.7390    1.3831 H       1  UNL1        0.0625
     69 H          -5.6973   -2.8971   -0.0948 H       1  UNL1        0.0625
     70 H          -3.5648   -3.9623    0.0001 H       1  UNL1        0.0626
     71 H          -9.3018   -0.5126    1.5855 H       1  UNL1        0.2922
     72 H         -10.1142    2.2431    0.0969 H       1  UNL1        0.0655
     73 H          -8.8925    4.1404   -0.5674 H       1  UNL1        0.0655
     74 H          -6.1196    6.0086   -2.0147 H       1  UNL1        0.0660
     75 H          -7.7301    5.4972   -1.4819 H       1  UNL1        0.0660
     76 H          -6.6148    6.1351   -0.2573 H       1  UNL1        0.0660
     77 H          -5.2993    1.8942   -0.2886 H       1  UNL1        0.0662
@<TRIPOS>BOND
     1     1     2    1
     2     1     3    1
     3     3     4    1
     4     1     5    1
     5     5     6   ar
     6     6     7    1
     7     6     8   ar
     8     8     9   ar
     9     9    10   ar
    10    10    11   ar
    11    10    12    1
    12    12    13    1
    13    12    14    2
    14    14    15    1
    15    15    16    1
    16    16    17    1
    17    17    18    1
    18    18    19    1
    19    19    20    1
    20    20    21    1
    21    21    22    1
    22    22    23    1
    23    23    24    2
    24    23    25    1
    25    25    26   ar
    26    26    27   ar
    27    27    28   ar
    28    28    29   ar
    29    29    30   ar
    30    28    31    1
    31    31    32    2
    32    31    33    1
    33    33    34   ar
    34    34    35    1
    35    34    36   ar
    36    36    37   ar
    37    37    38   ar
    38    38    39    1
    39    39    40    1
    40    38    41   ar
    41    11     5   ar
    42    21    15    1
    43    30    25   ar
    44    41    33   ar
    45     1    42    1
    46     2    43    1
    47     2    44    1
    48     2    45    1
    49     3    46    1
    50     3    47    1
    51     4    48    1
    52     4    49    1
    53     4    50    1
    54     7    51    1
    55     8    52    1
    56     9    53    1
    57    11    54    1
    58    13    55    1
    59    15    56    1
    60    16    57    1
    61    16    58    1
    62    17    59    1
    63    18    60    1
    64    18    61    1
    65    19    62    1
    66    19    63    1
    67    20    64    1
    68    20    65    1
    69    21    66    1
    70    26    67    1
    71    27    68    1
    72    29    69    1
    73    30    70    1
    74    35    71    1
    75    36    72    1
    76    37    73    1
    77    40    74    1
    78    40    75    1
    79    40    76    1
    80    41    77    1
