@<TRIPOS>MOLECULE
*****
 63 66 0 0 0
SMALL
GASTEIGER

@<TRIPOS>ATOM
      1 C           8.9993    0.6144    2.6407 C.3     1  UNL1       -0.0014
      2 C           7.5813    0.8623    2.8989 C.2     1  UNL1        0.1601
      3 O           7.2299    1.4691    3.9564 O.2     1  UNL1       -0.2924
      4 C           6.5633    0.4211    1.9570 C.ar    1  UNL1        0.0172
      5 C           6.9135   -0.2309    0.7931 C.ar    1  UNL1       -0.0495
      6 C           5.9135   -0.6428   -0.0962 C.ar    1  UNL1       -0.0400
      7 C           4.5884   -0.4215    0.1468 C.ar    1  UNL1        0.0298
      8 N           3.6162   -0.8333   -0.7809 N.pl3   1  UNL1       -0.3269
      9 C           3.9668   -1.1575   -2.1270 C.3     1  UNL1        0.0280
     10 C           2.9759   -0.8172   -3.1733 C.3     1  UNL1        0.0305
     11 N           1.6146   -0.7847   -2.5589 N.am    1  UNL1       -0.2974
     12 C           0.6283   -0.0288   -3.1344 C.2     1  UNL1        0.2297
     13 O           0.9916    0.5912   -4.2708 O.2     1  UNL1       -0.2742
     14 C          -0.7253    0.2499   -2.7981 C.3     1  UNL1        0.0759
     15 N          -1.2524   -0.2296   -1.5874 N.3     1  UNL1       -0.2933
     16 C          -0.8799    0.4267   -0.3861 C.3     1  UNL1        0.0001
     17 C          -2.2422    0.8483    0.2262 C.3     1  UNL1       -0.0279
     18 C          -3.1147   -0.3487   -0.1938 C.3     1  UNL1        0.0497
     19 C          -4.5462   -0.0874   -0.0258 C.2     1  UNL1        0.2216
     20 O          -5.2682   -0.1091   -1.0725 O.2     1  UNL1       -0.2751
     21 N          -5.0724    0.1758    1.2716 N.am    1  UNL1       -0.2852
     22 C          -6.4528    0.4261    1.4097 C.ar    1  UNL1        0.0350
     23 C          -6.9760    1.6995    1.3615 C.ar    1  UNL1       -0.0369
     24 C          -8.3483    1.9185    1.5040 C.ar    1  UNL1       -0.0170
     25 C          -9.2117    0.8497    1.6975 C.ar    1  UNL1        0.1352
     26 O         -10.5783    1.0747    1.8394 O.3     1  UNL1       -0.5053
     27 C          -8.6927   -0.4133    1.7450 C.ar    1  UNL1        0.0840
     28 CL         -9.7478   -1.7742    1.9815 Cl      1  UNL1       -0.0797
     29 C          -7.3465   -0.6136    1.6041 C.ar    1  UNL1       -0.0186
     30 C          -2.6466   -0.5179   -1.6058 C.3     1  UNL1        0.0105
     31 C           1.4868   -1.6317   -1.4228 C.3     1  UNL1        0.0305
     32 C           2.2264   -0.9167   -0.2897 C.3     1  UNL1        0.0280
     33 C           4.2654    0.2376    1.3284 C.ar    1  UNL1       -0.0400
     34 C           5.2312    0.6485    2.2109 C.ar    1  UNL1       -0.0495
     35 H           9.2293    0.7766    1.5689 H       1  UNL1        0.0309
     36 H           9.6159    1.3077    3.2881 H       1  UNL1        0.0309
     37 H           9.2824   -0.4227    2.9771 H       1  UNL1        0.0309
     38 H           7.9591   -0.4297    0.5584 H       1  UNL1        0.0625
     39 H           6.2369   -1.1532   -0.9918 H       1  UNL1        0.0636
     40 H           4.8956   -0.5486   -2.3650 H       1  UNL1        0.0479
     41 H           4.3002   -2.2237   -2.1613 H       1  UNL1        0.0479
     42 H           3.1637    0.0995   -3.7425 H       1  UNL1        0.0480
     43 H           2.9362   -1.6527   -3.9292 H       1  UNL1        0.0480
     44 H          -0.8059    1.4180   -2.8065 H       1  UNL1        0.0522
     45 H          -1.4303   -0.0073   -3.6785 H       1  UNL1        0.0522
     46 H          -0.4559   -0.3147    0.3564 H       1  UNL1        0.0427
     47 H          -0.2093    1.2779   -0.4752 H       1  UNL1        0.0427
     48 H          -2.6090    1.7275   -0.2958 H       1  UNL1        0.0285
     49 H          -2.1667    0.9326    1.3111 H       1  UNL1        0.0285
     50 H          -2.7648   -1.2151    0.4319 H       1  UNL1        0.0407
     51 H          -4.4409    0.1841    2.1136 H       1  UNL1        0.1548
     52 H          -6.3139    2.5447    1.2111 H       1  UNL1        0.0637
     53 H          -8.7593    2.9127    1.4677 H       1  UNL1        0.0655
     54 H         -11.1406    1.0305    0.9803 H       1  UNL1        0.2922
     55 H          -6.9050   -1.6067    1.6372 H       1  UNL1        0.0652
     56 H          -3.2271    0.1729   -2.2631 H       1  UNL1        0.0434
     57 H          -2.7504   -1.5791   -1.9650 H       1  UNL1        0.0434
     58 H           0.4466   -1.8218   -1.1799 H       1  UNL1        0.0480
     59 H           2.0260   -2.6270   -1.6079 H       1  UNL1        0.0480
     60 H           2.1604   -1.4329    0.6659 H       1  UNL1        0.0479
     61 H           1.8884    0.1381   -0.2820 H       1  UNL1        0.0479
     62 H           3.2046    0.4047    1.5053 H       1  UNL1        0.0636
     63 H           4.9432    1.1531    3.1069 H       1  UNL1        0.0625
@<TRIPOS>BOND
     1     1     2    1
     2     2     3    2
     3     2     4    1
     4     4     5   ar
     5     5     6   ar
     6     6     7   ar
     7     7     8    1
     8     8     9    1
     9     9    10    1
    10    10    11    1
    11    11    12   am
    12    12    13    2
    13    12    14    1
    14    14    15    1
    15    15    16    1
    16    16    17    1
    17    17    18    1
    18    18    19    1
    19    19    20    2
    20    19    21   am
    21    21    22    1
    22    22    23   ar
    23    23    24   ar
    24    24    25   ar
    25    25    26    1
    26    25    27   ar
    27    27    28    1
    28    27    29   ar
    29    18    30    1
    30    11    31    1
    31    31    32    1
    32     7    33   ar
    33    33    34   ar
    34    34     4   ar
    35    32     8    1
    36    30    15    1
    37    29    22   ar
    38     1    35    1
    39     1    36    1
    40     1    37    1
    41     5    38    1
    42     6    39    1
    43     9    40    1
    44     9    41    1
    45    10    42    1
    46    10    43    1
    47    14    44    1
    48    14    45    1
    49    16    46    1
    50    16    47    1
    51    17    48    1
    52    17    49    1
    53    18    50    1
    54    21    51    1
    55    23    52    1
    56    24    53    1
    57    26    54    1
    58    29    55    1
    59    30    56    1
    60    30    57    1
    61    31    58    1
    62    31    59    1
    63    32    60    1
    64    32    61    1
    65    33    62    1
    66    34    63    1
