
     RDKit          3D

 63 66  0  0  0  0  0  0  0  0999 V2000
    8.9993    0.6144    2.6407 C   0  0  0  0  0  0  0  0  0  0  0  0
    7.5813    0.8623    2.8989 C   0  0  0  0  0  0  0  0  0  0  0  0
    7.2299    1.4691    3.9564 O   0  0  0  0  0  0  0  0  0  0  0  0
    6.5633    0.4211    1.9570 C   0  0  0  0  0  0  0  0  0  0  0  0
    6.9135   -0.2309    0.7931 C   0  0  0  0  0  0  0  0  0  0  0  0
    5.9135   -0.6428   -0.0962 C   0  0  0  0  0  0  0  0  0  0  0  0
    4.5884   -0.4215    0.1468 C   0  0  0  0  0  0  0  0  0  0  0  0
    3.6162   -0.8333   -0.7809 N   0  0  0  0  0  0  0  0  0  0  0  0
    3.9668   -1.1575   -2.1270 C   0  0  0  0  0  0  0  0  0  0  0  0
    2.9759   -0.8172   -3.1733 C   0  0  0  0  0  0  0  0  0  0  0  0
    1.6146   -0.7847   -2.5589 N   0  0  0  0  0  0  0  0  0  0  0  0
    0.6283   -0.0288   -3.1344 C   0  0  0  0  0  0  0  0  0  0  0  0
    0.9916    0.5912   -4.2708 O   0  0  0  0  0  0  0  0  0  0  0  0
   -0.7253    0.2499   -2.7981 C   0  0  0  0  0  0  0  0  0  0  0  0
   -1.2524   -0.2296   -1.5874 N   0  0  0  0  0  0  0  0  0  0  0  0
   -0.8799    0.4267   -0.3861 C   0  0  0  0  0  0  0  0  0  0  0  0
   -2.2422    0.8483    0.2262 C   0  0  0  0  0  0  0  0  0  0  0  0
   -3.1147   -0.3487   -0.1938 C   0  0  1  0  0  0  0  0  0  0  0  0
   -4.5462   -0.0874   -0.0258 C   0  0  0  0  0  0  0  0  0  0  0  0
   -5.2682   -0.1091   -1.0725 O   0  0  0  0  0  0  0  0  0  0  0  0
   -5.0724    0.1758    1.2716 N   0  0  0  0  0  0  0  0  0  0  0  0
   -6.4528    0.4261    1.4097 C   0  0  0  0  0  0  0  0  0  0  0  0
   -6.9760    1.6995    1.3615 C   0  0  0  0  0  0  0  0  0  0  0  0
   -8.3483    1.9185    1.5040 C   0  0  0  0  0  0  0  0  0  0  0  0
   -9.2117    0.8497    1.6975 C   0  0  0  0  0  0  0  0  0  0  0  0
  -10.5783    1.0747    1.8394 O   0  0  0  0  0  0  0  0  0  0  0  0
   -8.6927   -0.4133    1.7450 C   0  0  0  0  0  0  0  0  0  0  0  0
   -9.7478   -1.7742    1.9815 Cl  0  0  0  0  0  0  0  0  0  0  0  0
   -7.3465   -0.6136    1.6041 C   0  0  0  0  0  0  0  0  0  0  0  0
   -2.6466   -0.5179   -1.6058 C   0  0  0  0  0  0  0  0  0  0  0  0
    1.4868   -1.6317   -1.4228 C   0  0  0  0  0  0  0  0  0  0  0  0
    2.2264   -0.9167   -0.2897 C   0  0  0  0  0  0  0  0  0  0  0  0
    4.2654    0.2376    1.3284 C   0  0  0  0  0  0  0  0  0  0  0  0
    5.2312    0.6485    2.2109 C   0  0  0  0  0  0  0  0  0  0  0  0
    9.2293    0.7766    1.5689 H   0  0  0  0  0  0  0  0  0  0  0  0
    9.6159    1.3077    3.2881 H   0  0  0  0  0  0  0  0  0  0  0  0
    9.2824   -0.4227    2.9771 H   0  0  0  0  0  0  0  0  0  0  0  0
    7.9591   -0.4297    0.5584 H   0  0  0  0  0  0  0  0  0  0  0  0
    6.2369   -1.1532   -0.9918 H   0  0  0  0  0  0  0  0  0  0  0  0
    4.8956   -0.5486   -2.3650 H   0  0  0  0  0  0  0  0  0  0  0  0
    4.3002   -2.2237   -2.1613 H   0  0  0  0  0  0  0  0  0  0  0  0
    3.1637    0.0995   -3.7425 H   0  0  0  0  0  0  0  0  0  0  0  0
    2.9362   -1.6527   -3.9292 H   0  0  0  0  0  0  0  0  0  0  0  0
   -0.8059    1.4180   -2.8065 H   0  0  0  0  0  0  0  0  0  0  0  0
   -1.4303   -0.0073   -3.6785 H   0  0  0  0  0  0  0  0  0  0  0  0
   -0.4559   -0.3147    0.3564 H   0  0  0  0  0  0  0  0  0  0  0  0
   -0.2093    1.2779   -0.4752 H   0  0  0  0  0  0  0  0  0  0  0  0
   -2.6090    1.7275   -0.2958 H   0  0  0  0  0  0  0  0  0  0  0  0
   -2.1667    0.9326    1.3111 H   0  0  0  0  0  0  0  0  0  0  0  0
   -2.7648   -1.2151    0.4319 H   0  0  0  0  0  0  0  0  0  0  0  0
   -4.4409    0.1841    2.1136 H   0  0  0  0  0  0  0  0  0  0  0  0
   -6.3139    2.5447    1.2111 H   0  0  0  0  0  0  0  0  0  0  0  0
   -8.7593    2.9127    1.4677 H   0  0  0  0  0  0  0  0  0  0  0  0
  -11.1406    1.0305    0.9803 H   0  0  0  0  0  0  0  0  0  0  0  0
   -6.9050   -1.6067    1.6372 H   0  0  0  0  0  0  0  0  0  0  0  0
   -3.2271    0.1729   -2.2631 H   0  0  0  0  0  0  0  0  0  0  0  0
   -2.7504   -1.5791   -1.9650 H   0  0  0  0  0  0  0  0  0  0  0  0
    0.4466   -1.8218   -1.1799 H   0  0  0  0  0  0  0  0  0  0  0  0
    2.0260   -2.6270   -1.6079 H   0  0  0  0  0  0  0  0  0  0  0  0
    2.1604   -1.4329    0.6659 H   0  0  0  0  0  0  0  0  0  0  0  0
    1.8884    0.1381   -0.2820 H   0  0  0  0  0  0  0  0  0  0  0  0
    3.2046    0.4047    1.5053 H   0  0  0  0  0  0  0  0  0  0  0  0
    4.9432    1.1531    3.1069 H   0  0  0  0  0  0  0  0  0  0  0  0
  1  2  1  0
  2  3  2  0
  2  4  1  0
  4  5  2  0
  5  6  1  0
  6  7  2  0
  7  8  1  0
  8  9  1  0
  9 10  1  0
 10 11  1  0
 11 12  1  0
 12 13  2  0
 12 14  1  0
 14 15  1  0
 15 16  1  0
 16 17  1  0
 17 18  1  0
 18 19  1  0
 19 20  2  0
 19 21  1  0
 21 22  1  0
 22 23  2  0
 23 24  1  0
 24 25  2  0
 25 26  1  0
 25 27  1  0
 27 28  1  0
 27 29  2  0
 18 30  1  0
 11 31  1  0
 31 32  1  0
  7 33  1  0
 33 34  2  0
 34  4  1  0
 32  8  1  0
 30 15  1  0
 29 22  1  0
  1 35  1  0
  1 36  1  0
  1 37  1  0
  5 38  1  0
  6 39  1  0
  9 40  1  0
  9 41  1  0
 10 42  1  0
 10 43  1  0
 14 44  1  0
 14 45  1  0
 16 46  1  0
 16 47  1  0
 17 48  1  0
 17 49  1  0
 18 50  1  1
 21 51  1  0
 23 52  1  0
 24 53  1  0
 26 54  1  0
 29 55  1  0
 30 56  1  0
 30 57  1  0
 31 58  1  0
 31 59  1  0
 32 60  1  0
 32 61  1  0
 33 62  1  0
 34 63  1  0
M  END
$$$$
