@<TRIPOS>MOLECULE
*****
 33 33 0 0 0
SMALL
GASTEIGER

@<TRIPOS>ATOM
      1 C           5.7559    0.2759    1.5452 C.3     1  UNL1        0.0535
      2 N           4.9455   -0.5767    0.6784 N.pl3   1  UNL1       -0.2776
      3 C           3.8128   -0.1229   -0.0698 C.cat   1  UNL1        0.3972
      4 N           2.7657   -0.9851   -0.4720 N.pl3   1  UNL1       -0.2741
      5 C           1.4397   -0.4981   -0.7714 C.3     1  UNL1        0.0737
      6 C           0.6608    0.0403    0.3775 C.3     1  UNL1        0.0247
      7 S          -1.0028    0.6496   -0.1038 S.3     1  UNL1       -0.1514
      8 C          -2.0607   -0.6957   -0.6545 C.3     1  UNL1        0.0378
      9 C          -3.4109   -0.1789   -1.0300 C.ar    1  UNL1        0.0715
     10 C          -4.2587    0.1523    0.0339 C.ar    1  UNL1        0.0362
     11 C          -4.0749    0.0878    1.5102 C.3     1  UNL1       -0.0227
     12 N          -5.4271    0.5992   -0.5039 N.ar    1  UNL1       -0.3482
     13 C          -5.3223    0.5524   -1.8448 C.ar    1  UNL1        0.0939
     14 N          -4.0967    0.0796   -2.1410 N.ar    1  UNL1       -0.2398
     15 N           3.8051    1.1138   -0.3514 N.pl3   1  UNL1        0.0103
     16 C           2.7854    1.7167   -1.0694 C.1     1  UNL1        0.2954
     17 N           1.9247    2.2500   -1.6806 N.1     1  UNL1       -0.1505
     18 H           5.3651    0.2864    2.6033 H       1  UNL1        0.0618
     19 H           5.7655    1.3185    1.2090 H       1  UNL1        0.0618
     20 H           6.8066   -0.0866    1.5054 H       1  UNL1        0.0618
     21 H           5.2214   -1.5868    0.6085 H       1  UNL1        0.2576
     22 H           3.1256   -1.9945   -0.5088 H       1  UNL1        0.2579
     23 H           0.9062   -1.5342   -0.8928 H       1  UNL1        0.0663
     24 H           1.2091   -0.1869   -1.7800 H       1  UNL1        0.0663
     25 H           0.4025   -0.7795    1.1300 H       1  UNL1        0.0407
     26 H           1.1796    0.7566    1.0422 H       1  UNL1        0.0407
     27 H          -1.6655   -1.1913   -1.5846 H       1  UNL1        0.0441
     28 H          -2.1700   -1.4944    0.0999 H       1  UNL1        0.0441
     29 H          -3.2984   -0.6579    1.7943 H       1  UNL1        0.0292
     30 H          -3.6849    1.0696    1.8442 H       1  UNL1        0.0292
     31 H          -5.0358   -0.1522    2.0040 H       1  UNL1        0.0292
     32 H          -6.2799    0.9288    0.0067 H       1  UNL1        0.1665
     33 H          -6.0887    0.8443   -2.5341 H       1  UNL1        0.1027
@<TRIPOS>BOND
     1     1     2    1
     2     2     3    1
     3     3     4    1
     4     4     5    1
     5     5     6    1
     6     6     7    1
     7     7     8    1
     8     8     9    1
     9     9    10   ar
    10    10    11    1
    11    10    12   ar
    12    12    13   ar
    13    13    14   ar
    14     3    15    2
    15    15    16    1
    16    16    17    3
    17    14     9   ar
    18     1    18    1
    19     1    19    1
    20     1    20    1
    21     2    21    1
    22     4    22    1
    23     5    23    1
    24     5    24    1
    25     6    25    1
    26     6    26    1
    27     8    27    1
    28     8    28    1
    29    11    29    1
    30    11    30    1
    31    11    31    1
    32    12    32    1
    33    13    33    1
