
     RDKit          3D

 33 33  0  0  0  0  0  0  0  0999 V2000
    5.7559    0.2759    1.5452 C   0  0  0  0  0  0  0  0  0  0  0  0
    4.9455   -0.5767    0.6784 N   0  0  0  0  0  0  0  0  0  0  0  0
    3.8128   -0.1229   -0.0698 C   0  0  0  0  0  0  0  0  0  0  0  0
    2.7657   -0.9851   -0.4720 N   0  0  0  0  0  0  0  0  0  0  0  0
    1.4397   -0.4981   -0.7714 C   0  0  0  0  0  0  0  0  0  0  0  0
    0.6608    0.0403    0.3775 C   0  0  0  0  0  0  0  0  0  0  0  0
   -1.0028    0.6496   -0.1038 S   0  0  0  0  0  0  0  0  0  0  0  0
   -2.0607   -0.6957   -0.6545 C   0  0  0  0  0  0  0  0  0  0  0  0
   -3.4109   -0.1789   -1.0300 C   0  0  0  0  0  0  0  0  0  0  0  0
   -4.2587    0.1523    0.0339 C   0  0  0  0  0  0  0  0  0  0  0  0
   -4.0749    0.0878    1.5102 C   0  0  0  0  0  0  0  0  0  0  0  0
   -5.4271    0.5992   -0.5039 N   0  0  0  0  0  0  0  0  0  0  0  0
   -5.3223    0.5524   -1.8448 C   0  0  0  0  0  0  0  0  0  0  0  0
   -4.0967    0.0796   -2.1410 N   0  0  0  0  0  0  0  0  0  0  0  0
    3.8051    1.1138   -0.3514 N   0  0  0  0  0  0  0  0  0  0  0  0
    2.7854    1.7167   -1.0694 C   0  0  0  0  0  0  0  0  0  0  0  0
    1.9247    2.2500   -1.6806 N   0  0  0  0  0  0  0  0  0  0  0  0
    5.3651    0.2864    2.6033 H   0  0  0  0  0  0  0  0  0  0  0  0
    5.7655    1.3185    1.2090 H   0  0  0  0  0  0  0  0  0  0  0  0
    6.8066   -0.0866    1.5054 H   0  0  0  0  0  0  0  0  0  0  0  0
    5.2214   -1.5868    0.6085 H   0  0  0  0  0  0  0  0  0  0  0  0
    3.1256   -1.9945   -0.5088 H   0  0  0  0  0  0  0  0  0  0  0  0
    0.9062   -1.5342   -0.8928 H   0  0  0  0  0  0  0  0  0  0  0  0
    1.2091   -0.1869   -1.7800 H   0  0  0  0  0  0  0  0  0  0  0  0
    0.4025   -0.7795    1.1300 H   0  0  0  0  0  0  0  0  0  0  0  0
    1.1796    0.7566    1.0422 H   0  0  0  0  0  0  0  0  0  0  0  0
   -1.6655   -1.1913   -1.5846 H   0  0  0  0  0  0  0  0  0  0  0  0
   -2.1700   -1.4944    0.0999 H   0  0  0  0  0  0  0  0  0  0  0  0
   -3.2984   -0.6579    1.7943 H   0  0  0  0  0  0  0  0  0  0  0  0
   -3.6849    1.0696    1.8442 H   0  0  0  0  0  0  0  0  0  0  0  0
   -5.0358   -0.1522    2.0040 H   0  0  0  0  0  0  0  0  0  0  0  0
   -6.2799    0.9288    0.0067 H   0  0  0  0  0  0  0  0  0  0  0  0
   -6.0887    0.8443   -2.5341 H   0  0  0  0  0  0  0  0  0  0  0  0
  1  2  1  0
  2  3  1  0
  3  4  1  0
  4  5  1  0
  5  6  1  0
  6  7  1  0
  7  8  1  0
  8  9  1  0
  9 10  2  0
 10 11  1  0
 10 12  1  0
 12 13  1  0
 13 14  2  0
  3 15  2  0
 15 16  1  0
 16 17  3  0
 14  9  1  0
  1 18  1  0
  1 19  1  0
  1 20  1  0
  2 21  1  0
  4 22  1  0
  5 23  1  0
  5 24  1  0
  6 25  1  0
  6 26  1  0
  8 27  1  0
  8 28  1  0
 11 29  1  0
 11 30  1  0
 11 31  1  0
 12 32  1  0
 13 33  1  0
M  END
$$$$
