@<TRIPOS>MOLECULE
*****
 76 78 0 0 0
SMALL
GASTEIGER

@<TRIPOS>ATOM
      1 C          -6.6783   -2.9035   -1.7857 C.3     1  UNL1       -0.0416
      2 C          -7.4040   -1.6909   -1.2507 C.3     1  UNL1        0.0449
      3 O          -7.3836   -1.6181    0.1208 O.3     1  UNL1       -0.3782
      4 C          -6.1337   -1.5497    0.6785 C.3     1  UNL1        0.0660
      5 C          -5.3225   -0.3483    0.2407 C.3     1  UNL1        0.0467
      6 C          -6.0744    0.8911    0.6551 C.3     1  UNL1       -0.0300
      7 C          -5.3418    2.1549    0.2584 C.3     1  UNL1       -0.0450
      8 C          -6.1010    3.3925    0.6772 C.3     1  UNL1       -0.0626
      9 C          -5.1935    2.2363   -1.2576 C.3     1  UNL1       -0.0626
     10 N          -4.0457   -0.4587    0.9338 N.am    1  UNL1       -0.3099
     11 C          -2.8036   -0.5757    0.2732 C.2     1  UNL1        0.2201
     12 O          -2.8079   -0.5826   -0.9868 O.2     1  UNL1       -0.2754
     13 C          -1.5565   -0.6850    1.0705 C.3     1  UNL1        0.0746
     14 C          -1.4460    0.5585    1.9232 C.3     1  UNL1        0.0094
     15 N          -0.8000    1.6592    1.2705 N.3     1  UNL1       -0.3144
     16 C           0.5179    1.3403    0.7496 C.3     1  UNL1        0.0095
     17 C           0.7902   -0.1367    0.8496 C.3     1  UNL1        0.0752
     18 C           2.0868   -0.4440    0.2570 C.2     1  UNL1        0.2279
     19 O           2.0810   -1.0816   -0.8492 O.2     1  UNL1       -0.2748
     20 N           3.3444   -0.1048    0.7897 N.am    1  UNL1       -0.2527
     21 C           4.5688   -0.3670    0.0713 C.ar    1  UNL1        0.1277
     22 C           5.1124    0.5617   -0.7890 C.ar    1  UNL1       -0.0210
     23 C           6.2908    0.2963   -1.4766 C.ar    1  UNL1       -0.0536
     24 C           6.9329   -0.9104   -1.3024 C.ar    1  UNL1       -0.0266
     25 C           8.2093   -1.2044   -2.0456 C.3     1  UNL1       -0.0201
     26 C           7.9530   -1.2019   -3.5389 C.3     1  UNL1       -0.0586
     27 C           9.2877   -0.2050   -1.7120 C.3     1  UNL1       -0.0586
     28 C           6.3624   -1.8168   -0.4348 C.ar    1  UNL1        0.0331
     29 N           5.2197   -1.5352    0.2193 N.ar    1  UNL1       -0.2396
     30 C           3.4623    0.4899    2.0982 C.3     1  UNL1        0.0326
     31 C           4.7110    0.1004    2.8430 C.3     1  UNL1       -0.0322
     32 C           4.5235    1.4948    2.3694 C.3     1  UNL1       -0.0322
     33 C          -0.3596   -0.8390    0.1546 C.3     1  UNL1        0.0797
     34 O          -0.6382   -0.2755   -1.0822 O.3     1  UNL1       -0.3902
     35 H          -5.5976   -2.6563   -1.9890 H       1  UNL1        0.0252
     36 H          -7.1231   -3.1505   -2.7698 H       1  UNL1        0.0252
     37 H          -6.7951   -3.7931   -1.1402 H       1  UNL1        0.0252
     38 H          -6.9567   -0.7971   -1.6829 H       1  UNL1        0.0557
     39 H          -8.4791   -1.8257   -1.5512 H       1  UNL1        0.0557
     40 H          -6.2855   -1.4185    1.7891 H       1  UNL1        0.0578
     41 H          -5.5444   -2.4853    0.5750 H       1  UNL1        0.0578
     42 H          -5.1425   -0.3845   -0.8515 H       1  UNL1        0.0521
     43 H          -7.0758    0.9263    0.1934 H       1  UNL1        0.0286
     44 H          -6.2066    0.8906    1.7497 H       1  UNL1        0.0286
     45 H          -4.3348    2.1938    0.7189 H       1  UNL1        0.0296
     46 H          -5.8877    4.2577    0.0324 H       1  UNL1        0.0232
     47 H          -7.2076    3.2230    0.6152 H       1  UNL1        0.0232
     48 H          -5.8219    3.5722    1.7504 H       1  UNL1        0.0232
     49 H          -6.1238    1.8452   -1.7591 H       1  UNL1        0.0232
     50 H          -4.2946    1.6869   -1.6011 H       1  UNL1        0.0232
     51 H          -5.0859    3.2819   -1.6101 H       1  UNL1        0.0232
     52 H          -4.0354   -0.4522    1.9880 H       1  UNL1        0.1491
     53 H          -1.6736   -1.5441    1.7586 H       1  UNL1        0.0432
     54 H          -2.4890    0.8907    2.1512 H       1  UNL1        0.0432
     55 H          -0.9881    0.3416    2.9109 H       1  UNL1        0.0432
     56 H          -1.3930    2.1343    0.5753 H       1  UNL1        0.1220
     57 H           1.2444    1.9906    1.2463 H       1  UNL1        0.0432
     58 H           0.5811    1.6005   -0.3404 H       1  UNL1        0.0432
     59 H           0.7331   -0.4725    1.9147 H       1  UNL1        0.0433
     60 H           4.6161    1.4953   -0.9237 H       1  UNL1        0.0652
     61 H           6.7104    1.0289   -2.1485 H       1  UNL1        0.0622
     62 H           8.5849   -2.2138   -1.7822 H       1  UNL1        0.0344
     63 H           7.9212   -0.1436   -3.8899 H       1  UNL1        0.0235
     64 H           7.0452   -1.7607   -3.7992 H       1  UNL1        0.0235
     65 H           8.8015   -1.6984   -4.0478 H       1  UNL1        0.0235
     66 H           9.9564   -0.0058   -2.5694 H       1  UNL1        0.0235
     67 H           8.7700    0.7516   -1.4633 H       1  UNL1        0.0235
     68 H           9.8652   -0.5472   -0.8202 H       1  UNL1        0.0235
     69 H           6.8547   -2.7597   -0.2924 H       1  UNL1        0.0833
     70 H           2.5252    0.6404    2.6409 H       1  UNL1        0.0505
     71 H           5.4639   -0.5310    2.3608 H       1  UNL1        0.0284
     72 H           4.6166   -0.1029    3.9462 H       1  UNL1        0.0284
     73 H           4.3456    2.2466    3.1585 H       1  UNL1        0.0284
     74 H           5.1194    1.8942    1.5228 H       1  UNL1        0.0284
     75 H          -0.1240   -1.9028    0.0541 H       1  UNL1        0.0609
     76 H          -0.4526   -0.8876   -1.8289 H       1  UNL1        0.2098
@<TRIPOS>BOND
     1     1     2    1
     2     2     3    1
     3     3     4    1
     4     4     5    1
     5     5     6    1
     6     6     7    1
     7     7     8    1
     8     7     9    1
     9     5    10    1
    10    10    11   am
    11    11    12    2
    12    11    13    1
    13    13    14    1
    14    14    15    1
    15    15    16    1
    16    16    17    1
    17    17    18    1
    18    18    19    2
    19    18    20   am
    20    20    21    1
    21    21    22   ar
    22    22    23   ar
    23    23    24   ar
    24    24    25    1
    25    25    26    1
    26    25    27    1
    27    24    28   ar
    28    28    29   ar
    29    20    30    1
    30    30    31    1
    31    31    32    1
    32    17    33    1
    33    33    34    1
    34    33    13    1
    35    29    21   ar
    36    32    30    1
    37     1    35    1
    38     1    36    1
    39     1    37    1
    40     2    38    1
    41     2    39    1
    42     4    40    1
    43     4    41    1
    44     5    42    1
    45     6    43    1
    46     6    44    1
    47     7    45    1
    48     8    46    1
    49     8    47    1
    50     8    48    1
    51     9    49    1
    52     9    50    1
    53     9    51    1
    54    10    52    1
    55    13    53    1
    56    14    54    1
    57    14    55    1
    58    15    56    1
    59    16    57    1
    60    16    58    1
    61    17    59    1
    62    22    60    1
    63    23    61    1
    64    25    62    1
    65    26    63    1
    66    26    64    1
    67    26    65    1
    68    27    66    1
    69    27    67    1
    70    27    68    1
    71    28    69    1
    72    30    70    1
    73    31    71    1
    74    31    72    1
    75    32    73    1
    76    32    74    1
    77    33    75    1
    78    34    76    1
