
     RDKit          3D

 76 78  0  0  0  0  0  0  0  0999 V2000
   -6.6783   -2.9035   -1.7857 C   0  0  0  0  0  0  0  0  0  0  0  0
   -7.4040   -1.6909   -1.2507 C   0  0  0  0  0  0  0  0  0  0  0  0
   -7.3836   -1.6181    0.1208 O   0  0  0  0  0  0  0  0  0  0  0  0
   -6.1337   -1.5497    0.6785 C   0  0  0  0  0  0  0  0  0  0  0  0
   -5.3225   -0.3483    0.2407 C   0  0  1  0  0  0  0  0  0  0  0  0
   -6.0744    0.8911    0.6551 C   0  0  0  0  0  0  0  0  0  0  0  0
   -5.3418    2.1549    0.2584 C   0  0  0  0  0  0  0  0  0  0  0  0
   -6.1010    3.3925    0.6772 C   0  0  0  0  0  0  0  0  0  0  0  0
   -5.1935    2.2363   -1.2576 C   0  0  0  0  0  0  0  0  0  0  0  0
   -4.0457   -0.4587    0.9338 N   0  0  0  0  0  0  0  0  0  0  0  0
   -2.8036   -0.5757    0.2732 C   0  0  0  0  0  0  0  0  0  0  0  0
   -2.8079   -0.5826   -0.9868 O   0  0  0  0  0  0  0  0  0  0  0  0
   -1.5565   -0.6850    1.0705 C   0  0  2  0  0  0  0  0  0  0  0  0
   -1.4460    0.5585    1.9232 C   0  0  0  0  0  0  0  0  0  0  0  0
   -0.8000    1.6592    1.2705 N   0  0  0  0  0  0  0  0  0  0  0  0
    0.5179    1.3403    0.7496 C   0  0  0  0  0  0  0  0  0  0  0  0
    0.7902   -0.1367    0.8496 C   0  0  2  0  0  0  0  0  0  0  0  0
    2.0868   -0.4440    0.2570 C   0  0  0  0  0  0  0  0  0  0  0  0
    2.0810   -1.0816   -0.8492 O   0  0  0  0  0  0  0  0  0  0  0  0
    3.3444   -0.1048    0.7897 N   0  0  0  0  0  0  0  0  0  0  0  0
    4.5688   -0.3670    0.0713 C   0  0  0  0  0  0  0  0  0  0  0  0
    5.1124    0.5617   -0.7890 C   0  0  0  0  0  0  0  0  0  0  0  0
    6.2908    0.2963   -1.4766 C   0  0  0  0  0  0  0  0  0  0  0  0
    6.9329   -0.9104   -1.3024 C   0  0  0  0  0  0  0  0  0  0  0  0
    8.2093   -1.2044   -2.0456 C   0  0  0  0  0  0  0  0  0  0  0  0
    7.9530   -1.2019   -3.5389 C   0  0  0  0  0  0  0  0  0  0  0  0
    9.2877   -0.2050   -1.7120 C   0  0  0  0  0  0  0  0  0  0  0  0
    6.3624   -1.8168   -0.4348 C   0  0  0  0  0  0  0  0  0  0  0  0
    5.2197   -1.5352    0.2193 N   0  0  0  0  0  0  0  0  0  0  0  0
    3.4623    0.4899    2.0982 C   0  0  0  0  0  0  0  0  0  0  0  0
    4.7110    0.1004    2.8430 C   0  0  0  0  0  0  0  0  0  0  0  0
    4.5235    1.4948    2.3694 C   0  0  0  0  0  0  0  0  0  0  0  0
   -0.3596   -0.8390    0.1546 C   0  0  2  0  0  0  0  0  0  0  0  0
   -0.6382   -0.2755   -1.0822 O   0  0  0  0  0  0  0  0  0  0  0  0
   -5.5976   -2.6563   -1.9890 H   0  0  0  0  0  0  0  0  0  0  0  0
   -7.1231   -3.1505   -2.7698 H   0  0  0  0  0  0  0  0  0  0  0  0
   -6.7951   -3.7931   -1.1402 H   0  0  0  0  0  0  0  0  0  0  0  0
   -6.9567   -0.7971   -1.6829 H   0  0  0  0  0  0  0  0  0  0  0  0
   -8.4791   -1.8257   -1.5512 H   0  0  0  0  0  0  0  0  0  0  0  0
   -6.2855   -1.4185    1.7891 H   0  0  0  0  0  0  0  0  0  0  0  0
   -5.5444   -2.4853    0.5750 H   0  0  0  0  0  0  0  0  0  0  0  0
   -5.1425   -0.3845   -0.8515 H   0  0  0  0  0  0  0  0  0  0  0  0
   -7.0758    0.9263    0.1934 H   0  0  0  0  0  0  0  0  0  0  0  0
   -6.2066    0.8906    1.7497 H   0  0  0  0  0  0  0  0  0  0  0  0
   -4.3348    2.1938    0.7189 H   0  0  0  0  0  0  0  0  0  0  0  0
   -5.8877    4.2577    0.0324 H   0  0  0  0  0  0  0  0  0  0  0  0
   -7.2076    3.2230    0.6152 H   0  0  0  0  0  0  0  0  0  0  0  0
   -5.8219    3.5722    1.7504 H   0  0  0  0  0  0  0  0  0  0  0  0
   -6.1238    1.8452   -1.7591 H   0  0  0  0  0  0  0  0  0  0  0  0
   -4.2946    1.6869   -1.6011 H   0  0  0  0  0  0  0  0  0  0  0  0
   -5.0859    3.2819   -1.6101 H   0  0  0  0  0  0  0  0  0  0  0  0
   -4.0354   -0.4522    1.9880 H   0  0  0  0  0  0  0  0  0  0  0  0
   -1.6736   -1.5441    1.7586 H   0  0  0  0  0  0  0  0  0  0  0  0
   -2.4890    0.8907    2.1512 H   0  0  0  0  0  0  0  0  0  0  0  0
   -0.9881    0.3416    2.9109 H   0  0  0  0  0  0  0  0  0  0  0  0
   -1.3930    2.1343    0.5753 H   0  0  0  0  0  0  0  0  0  0  0  0
    1.2444    1.9906    1.2463 H   0  0  0  0  0  0  0  0  0  0  0  0
    0.5811    1.6005   -0.3404 H   0  0  0  0  0  0  0  0  0  0  0  0
    0.7331   -0.4725    1.9147 H   0  0  0  0  0  0  0  0  0  0  0  0
    4.6161    1.4953   -0.9237 H   0  0  0  0  0  0  0  0  0  0  0  0
    6.7104    1.0289   -2.1485 H   0  0  0  0  0  0  0  0  0  0  0  0
    8.5849   -2.2138   -1.7822 H   0  0  0  0  0  0  0  0  0  0  0  0
    7.9212   -0.1436   -3.8899 H   0  0  0  0  0  0  0  0  0  0  0  0
    7.0452   -1.7607   -3.7992 H   0  0  0  0  0  0  0  0  0  0  0  0
    8.8015   -1.6984   -4.0478 H   0  0  0  0  0  0  0  0  0  0  0  0
    9.9564   -0.0058   -2.5694 H   0  0  0  0  0  0  0  0  0  0  0  0
    8.7700    0.7516   -1.4633 H   0  0  0  0  0  0  0  0  0  0  0  0
    9.8652   -0.5472   -0.8202 H   0  0  0  0  0  0  0  0  0  0  0  0
    6.8547   -2.7597   -0.2924 H   0  0  0  0  0  0  0  0  0  0  0  0
    2.5252    0.6404    2.6409 H   0  0  0  0  0  0  0  0  0  0  0  0
    5.4639   -0.5310    2.3608 H   0  0  0  0  0  0  0  0  0  0  0  0
    4.6166   -0.1029    3.9462 H   0  0  0  0  0  0  0  0  0  0  0  0
    4.3456    2.2466    3.1585 H   0  0  0  0  0  0  0  0  0  0  0  0
    5.1194    1.8942    1.5228 H   0  0  0  0  0  0  0  0  0  0  0  0
   -0.1240   -1.9028    0.0541 H   0  0  0  0  0  0  0  0  0  0  0  0
   -0.4526   -0.8876   -1.8289 H   0  0  0  0  0  0  0  0  0  0  0  0
  1  2  1  0
  2  3  1  0
  3  4  1  0
  4  5  1  0
  5  6  1  0
  6  7  1  0
  7  8  1  0
  7  9  1  0
  5 10  1  0
 10 11  1  0
 11 12  2  0
 11 13  1  0
 13 14  1  0
 14 15  1  0
 15 16  1  0
 16 17  1  0
 17 18  1  0
 18 19  2  0
 18 20  1  0
 20 21  1  0
 21 22  2  0
 22 23  1  0
 23 24  2  0
 24 25  1  0
 25 26  1  0
 25 27  1  0
 24 28  1  0
 28 29  2  0
 20 30  1  0
 30 31  1  0
 31 32  1  0
 17 33  1  0
 33 34  1  0
 33 13  1  0
 29 21  1  0
 32 30  1  0
  1 35  1  0
  1 36  1  0
  1 37  1  0
  2 38  1  0
  2 39  1  0
  4 40  1  0
  4 41  1  0
  5 42  1  6
  6 43  1  0
  6 44  1  0
  7 45  1  0
  8 46  1  0
  8 47  1  0
  8 48  1  0
  9 49  1  0
  9 50  1  0
  9 51  1  0
 10 52  1  0
 13 53  1  1
 14 54  1  0
 14 55  1  0
 15 56  1  0
 16 57  1  0
 16 58  1  0
 17 59  1  1
 22 60  1  0
 23 61  1  0
 25 62  1  0
 26 63  1  0
 26 64  1  0
 26 65  1  0
 27 66  1  0
 27 67  1  0
 27 68  1  0
 28 69  1  0
 30 70  1  0
 31 71  1  0
 31 72  1  0
 32 73  1  0
 32 74  1  0
 33 75  1  6
 34 76  1  0
M  END
$$$$
