@<TRIPOS>MOLECULE
*****
 64 68 0 0 0
SMALL
GASTEIGER

@<TRIPOS>ATOM
      1 C           6.7126    3.6298    2.2703 C.3     1  UNL1        0.0386
      2 C           6.8812    2.8806    1.0121 C.2     1  UNL1        0.2771
      3 N           7.8543    3.1490    0.2292 N.2     1  UNL1       -0.1041
      4 N           5.9395    1.8611    0.6983 N.pl3   1  UNL1       -0.2248
      5 C           4.6211    2.2431    0.1862 C.3     1  UNL1        0.0836
      6 C           4.4527    1.5284   -1.1283 C.3     1  UNL1        0.0205
      7 C           4.4345    0.0332   -0.8353 C.3     1  UNL1        0.1070
      8 O           3.3773   -0.2816   -0.0042 O.3     1  UNL1       -0.4884
      9 C           2.3185   -1.1012   -0.3037 C.ar    1  UNL1        0.1245
     10 C           1.3360   -1.2957    0.6847 C.ar    1  UNL1       -0.0179
     11 C           0.2494   -2.1053    0.4481 C.ar    1  UNL1       -0.0332
     12 C           0.0618   -2.7578   -0.7400 C.ar    1  UNL1        0.0789
     13 C           1.0133   -2.5792   -1.7193 C.ar    1  UNL1        0.1460
     14 C           2.1224   -1.7586   -1.4906 C.ar    1  UNL1        0.0237
     15 O           0.9256   -3.1952   -2.9717 O.3     1  UNL1       -0.4808
     16 C          -0.3482   -3.6594   -3.4485 C.3     1  UNL1        0.1658
     17 C          -1.1067   -4.2400   -2.3390 C.2     1  UNL1        0.2579
     18 O          -1.8307   -5.2546   -2.4100 O.2     1  UNL1       -0.2715
     19 N          -1.0274   -3.6049   -1.0456 N.am    1  UNL1       -0.2579
     20 C          -2.0472   -3.8231   -0.0542 C.3     1  UNL1        0.0806
     21 C          -3.1627   -2.8626   -0.1169 C.ar    1  UNL1        0.1554
     22 C          -3.2923   -1.6619    0.5456 C.ar    1  UNL1        0.0098
     23 C          -4.4937   -1.0854    0.1960 C.ar    1  UNL1        0.1136
     24 C          -5.0744    0.1779    0.6323 C.ar    1  UNL1        0.0045
     25 C          -4.4042    0.9879    1.5234 C.ar    1  UNL1       -0.0524
     26 C          -4.9544    2.1994    1.9459 C.ar    1  UNL1       -0.0603
     27 C          -6.1831    2.6155    1.4814 C.ar    1  UNL1       -0.0469
     28 C          -6.8587    1.8104    0.5901 C.ar    1  UNL1        0.0653
     29 C          -8.1515    2.2566    0.1065 C.2     1  UNL1        0.3081
     30 N          -8.5190    1.9015   -1.0718 N.2     1  UNL1       -0.0994
     31 N          -9.0133    3.0628    0.8837 N.pl3   1  UNL1       -0.2466
     32 C          -6.3023    0.6116    0.1791 C.ar    1  UNL1       -0.0376
     33 N          -5.0504   -1.9556   -0.6654 N.ar    1  UNL1       -0.0780
     34 O          -4.2718   -2.9789   -0.8382 O.2     1  UNL1       -0.3574
     35 C           5.7807   -0.3905   -0.2716 C.3     1  UNL1        0.0205
     36 C           6.2392    0.4602    0.8671 C.3     1  UNL1        0.0836
     37 H           6.9413    2.9287    3.1074 H       1  UNL1        0.0351
     38 H           7.3836    4.4934    2.2862 H       1  UNL1        0.0351
     39 H           5.6603    3.9506    2.4370 H       1  UNL1        0.0351
     40 H           7.9765    2.6213   -0.6613 H       1  UNL1        0.3629
     41 H           4.5881    3.3242    0.0041 H       1  UNL1        0.0727
     42 H           3.8196    1.9989    0.9049 H       1  UNL1        0.0727
     43 H           5.3389    1.7203   -1.7547 H       1  UNL1        0.0337
     44 H           3.4980    1.7862   -1.6315 H       1  UNL1        0.0337
     45 H           4.3465   -0.4564   -1.8193 H       1  UNL1        0.0735
     46 H           1.4748   -0.7786    1.6409 H       1  UNL1        0.0655
     47 H          -0.4774   -2.2297    1.2254 H       1  UNL1        0.0638
     48 H           2.8624   -1.6339   -2.2842 H       1  UNL1        0.0691
     49 H          -0.0855   -4.4535   -4.2047 H       1  UNL1        0.0795
     50 H          -0.8470   -2.8578   -3.9951 H       1  UNL1        0.0795
     51 H          -1.5941   -3.8413    0.9355 H       1  UNL1        0.0550
     52 H          -2.5182   -4.8313   -0.3003 H       1  UNL1        0.0550
     53 H          -2.6092   -1.1873    1.2390 H       1  UNL1        0.0675
     54 H          -3.4354    0.6825    1.9037 H       1  UNL1        0.0624
     55 H          -4.4439    2.8537    2.6477 H       1  UNL1        0.0618
     56 H          -6.6331    3.5645    1.8012 H       1  UNL1        0.0626
     57 H          -9.4446    2.1932   -1.4779 H       1  UNL1        0.3633
     58 H          -9.0805    2.9115    1.9029 H       1  UNL1        0.2884
     59 H          -9.5673    3.8050    0.3786 H       1  UNL1        0.2884
     60 H          -6.8311   -0.0050   -0.5100 H       1  UNL1        0.0633
     61 H           5.6906   -1.4375    0.0775 H       1  UNL1        0.0337
     62 H           6.4932   -0.4058   -1.1209 H       1  UNL1        0.0337
     63 H           5.8998    0.0818    1.8521 H       1  UNL1        0.0727
     64 H           7.3660    0.3854    0.8913 H       1  UNL1        0.0727
@<TRIPOS>BOND
     1     1     2    1
     2     2     3    2
     3     2     4    1
     4     4     5    1
     5     5     6    1
     6     6     7    1
     7     7     8    1
     8     8     9    1
     9     9    10   ar
    10    10    11   ar
    11    11    12   ar
    12    12    13   ar
    13    13    14   ar
    14    13    15    1
    15    15    16    1
    16    16    17    1
    17    17    18    2
    18    17    19   am
    19    19    20    1
    20    20    21    1
    21    21    22   ar
    22    22    23   ar
    23    23    24    1
    24    24    25   ar
    25    25    26   ar
    26    26    27   ar
    27    27    28   ar
    28    28    29    1
    29    29    30    2
    30    29    31    1
    31    28    32   ar
    32    23    33   ar
    33    33    34   ar
    34     7    35    1
    35    35    36    1
    36    36     4    1
    37    14     9   ar
    38    34    21   ar
    39    19    12    1
    40    32    24   ar
    41     1    37    1
    42     1    38    1
    43     1    39    1
    44     3    40    1
    45     5    41    1
    46     5    42    1
    47     6    43    1
    48     6    44    1
    49     7    45    1
    50    10    46    1
    51    11    47    1
    52    14    48    1
    53    16    49    1
    54    16    50    1
    55    20    51    1
    56    20    52    1
    57    22    53    1
    58    25    54    1
    59    26    55    1
    60    27    56    1
    61    30    57    1
    62    31    58    1
    63    31    59    1
    64    32    60    1
    65    35    61    1
    66    35    62    1
    67    36    63    1
    68    36    64    1
