
     RDKit          3D

 64 68  0  0  0  0  0  0  0  0999 V2000
    6.7126    3.6298    2.2703 C   0  0  0  0  0  0  0  0  0  0  0  0
    6.8812    2.8806    1.0121 C   0  0  0  0  0  0  0  0  0  0  0  0
    7.8543    3.1490    0.2292 N   0  0  0  0  0  0  0  0  0  0  0  0
    5.9395    1.8611    0.6983 N   0  0  0  0  0  0  0  0  0  0  0  0
    4.6211    2.2431    0.1862 C   0  0  0  0  0  0  0  0  0  0  0  0
    4.4527    1.5284   -1.1283 C   0  0  0  0  0  0  0  0  0  0  0  0
    4.4345    0.0332   -0.8353 C   0  0  0  0  0  0  0  0  0  0  0  0
    3.3773   -0.2816   -0.0042 O   0  0  0  0  0  0  0  0  0  0  0  0
    2.3185   -1.1012   -0.3037 C   0  0  0  0  0  0  0  0  0  0  0  0
    1.3360   -1.2957    0.6847 C   0  0  0  0  0  0  0  0  0  0  0  0
    0.2494   -2.1053    0.4481 C   0  0  0  0  0  0  0  0  0  0  0  0
    0.0618   -2.7578   -0.7400 C   0  0  0  0  0  0  0  0  0  0  0  0
    1.0133   -2.5792   -1.7193 C   0  0  0  0  0  0  0  0  0  0  0  0
    2.1224   -1.7586   -1.4906 C   0  0  0  0  0  0  0  0  0  0  0  0
    0.9256   -3.1952   -2.9717 O   0  0  0  0  0  0  0  0  0  0  0  0
   -0.3482   -3.6594   -3.4485 C   0  0  0  0  0  0  0  0  0  0  0  0
   -1.1067   -4.2400   -2.3390 C   0  0  0  0  0  0  0  0  0  0  0  0
   -1.8307   -5.2546   -2.4100 O   0  0  0  0  0  0  0  0  0  0  0  0
   -1.0274   -3.6049   -1.0456 N   0  0  0  0  0  0  0  0  0  0  0  0
   -2.0472   -3.8231   -0.0542 C   0  0  0  0  0  0  0  0  0  0  0  0
   -3.1627   -2.8626   -0.1169 C   0  0  0  0  0  0  0  0  0  0  0  0
   -3.2923   -1.6619    0.5456 C   0  0  0  0  0  0  0  0  0  0  0  0
   -4.4937   -1.0854    0.1960 C   0  0  0  0  0  0  0  0  0  0  0  0
   -5.0744    0.1779    0.6323 C   0  0  0  0  0  0  0  0  0  0  0  0
   -4.4042    0.9879    1.5234 C   0  0  0  0  0  0  0  0  0  0  0  0
   -4.9544    2.1994    1.9459 C   0  0  0  0  0  0  0  0  0  0  0  0
   -6.1831    2.6155    1.4814 C   0  0  0  0  0  0  0  0  0  0  0  0
   -6.8587    1.8104    0.5901 C   0  0  0  0  0  0  0  0  0  0  0  0
   -8.1515    2.2566    0.1065 C   0  0  0  0  0  0  0  0  0  0  0  0
   -8.5190    1.9015   -1.0718 N   0  0  0  0  0  0  0  0  0  0  0  0
   -9.0133    3.0628    0.8837 N   0  0  0  0  0  0  0  0  0  0  0  0
   -6.3023    0.6116    0.1791 C   0  0  0  0  0  0  0  0  0  0  0  0
   -5.0504   -1.9556   -0.6654 N   0  0  0  0  0  0  0  0  0  0  0  0
   -4.2718   -2.9789   -0.8382 O   0  0  0  0  0  0  0  0  0  0  0  0
    5.7807   -0.3905   -0.2716 C   0  0  0  0  0  0  0  0  0  0  0  0
    6.2392    0.4602    0.8671 C   0  0  0  0  0  0  0  0  0  0  0  0
    6.9413    2.9287    3.1074 H   0  0  0  0  0  0  0  0  0  0  0  0
    7.3836    4.4934    2.2862 H   0  0  0  0  0  0  0  0  0  0  0  0
    5.6603    3.9506    2.4370 H   0  0  0  0  0  0  0  0  0  0  0  0
    7.9765    2.6213   -0.6613 H   0  0  0  0  0  0  0  0  0  0  0  0
    4.5881    3.3242    0.0041 H   0  0  0  0  0  0  0  0  0  0  0  0
    3.8196    1.9989    0.9049 H   0  0  0  0  0  0  0  0  0  0  0  0
    5.3389    1.7203   -1.7547 H   0  0  0  0  0  0  0  0  0  0  0  0
    3.4980    1.7862   -1.6315 H   0  0  0  0  0  0  0  0  0  0  0  0
    4.3465   -0.4564   -1.8193 H   0  0  0  0  0  0  0  0  0  0  0  0
    1.4748   -0.7786    1.6409 H   0  0  0  0  0  0  0  0  0  0  0  0
   -0.4774   -2.2297    1.2254 H   0  0  0  0  0  0  0  0  0  0  0  0
    2.8624   -1.6339   -2.2842 H   0  0  0  0  0  0  0  0  0  0  0  0
   -0.0855   -4.4535   -4.2047 H   0  0  0  0  0  0  0  0  0  0  0  0
   -0.8470   -2.8578   -3.9951 H   0  0  0  0  0  0  0  0  0  0  0  0
   -1.5941   -3.8413    0.9355 H   0  0  0  0  0  0  0  0  0  0  0  0
   -2.5182   -4.8313   -0.3003 H   0  0  0  0  0  0  0  0  0  0  0  0
   -2.6092   -1.1873    1.2390 H   0  0  0  0  0  0  0  0  0  0  0  0
   -3.4354    0.6825    1.9037 H   0  0  0  0  0  0  0  0  0  0  0  0
   -4.4439    2.8537    2.6477 H   0  0  0  0  0  0  0  0  0  0  0  0
   -6.6331    3.5645    1.8012 H   0  0  0  0  0  0  0  0  0  0  0  0
   -9.4446    2.1932   -1.4779 H   0  0  0  0  0  0  0  0  0  0  0  0
   -9.0805    2.9115    1.9029 H   0  0  0  0  0  0  0  0  0  0  0  0
   -9.5673    3.8050    0.3786 H   0  0  0  0  0  0  0  0  0  0  0  0
   -6.8311   -0.0050   -0.5100 H   0  0  0  0  0  0  0  0  0  0  0  0
    5.6906   -1.4375    0.0775 H   0  0  0  0  0  0  0  0  0  0  0  0
    6.4932   -0.4058   -1.1209 H   0  0  0  0  0  0  0  0  0  0  0  0
    5.8998    0.0818    1.8521 H   0  0  0  0  0  0  0  0  0  0  0  0
    7.3660    0.3854    0.8913 H   0  0  0  0  0  0  0  0  0  0  0  0
  1  2  1  0
  2  3  2  3
  2  4  1  0
  4  5  1  0
  5  6  1  0
  6  7  1  0
  7  8  1  0
  8  9  1  0
  9 10  2  0
 10 11  1  0
 11 12  2  0
 12 13  1  0
 13 14  2  0
 13 15  1  0
 15 16  1  0
 16 17  1  0
 17 18  2  0
 17 19  1  0
 19 20  1  0
 20 21  1  0
 21 22  2  0
 22 23  1  0
 23 24  1  0
 24 25  2  0
 25 26  1  0
 26 27  2  0
 27 28  1  0
 28 29  1  0
 29 30  2  3
 29 31  1  0
 28 32  2  0
 23 33  2  0
 33 34  1  0
  7 35  1  0
 35 36  1  0
 36  4  1  0
 14  9  1  0
 34 21  1  0
 19 12  1  0
 32 24  1  0
  1 37  1  0
  1 38  1  0
  1 39  1  0
  3 40  1  0
  5 41  1  0
  5 42  1  0
  6 43  1  0
  6 44  1  0
  7 45  1  0
 10 46  1  0
 11 47  1  0
 14 48  1  0
 16 49  1  0
 16 50  1  0
 20 51  1  0
 20 52  1  0
 22 53  1  0
 25 54  1  0
 26 55  1  0
 27 56  1  0
 30 57  1  0
 31 58  1  0
 31 59  1  0
 32 60  1  0
 35 61  1  0
 35 62  1  0
 36 63  1  0
 36 64  1  0
M  END
$$$$
