@<TRIPOS>MOLECULE
*****
 66 68 0 0 0
SMALL
GASTEIGER

@<TRIPOS>ATOM
      1 C          -6.5872    2.7757    2.1255 C.3     1  UNL1        0.0122
      2 C          -5.3486    2.4083    1.3527 C.2     1  UNL1        0.2104
      3 O          -4.4245    3.2858    1.2745 O.2     1  UNL1       -0.2761
      4 N          -5.2838    1.1104    0.7587 N.am    1  UNL1       -0.3053
      5 C          -4.1454    0.6423   -0.0081 C.3     1  UNL1        0.1028
      6 C          -4.7157    0.2968   -1.3878 C.3     1  UNL1        0.1065
      7 O          -3.6611    0.5556   -2.2855 O.3     1  UNL1       -0.3871
      8 C          -5.0428   -1.1640   -1.4776 C.3     1  UNL1        0.1112
      9 O          -4.0874   -1.8588   -2.2551 O.3     1  UNL1       -0.3865
     10 C          -5.3228   -1.8379   -0.1873 C.3     1  UNL1        0.1130
     11 C          -5.1296   -3.3463   -0.3900 C.3     1  UNL1        0.0730
     12 O          -5.5146   -4.0299    0.7631 O.3     1  UNL1       -0.3924
     13 O          -4.5411   -1.4787    0.8668 O.3     1  UNL1       -0.3407
     14 C          -3.5337   -0.6180    0.5228 C.3     1  UNL1        0.1912
     15 O          -2.5783   -0.4348    1.4879 O.3     1  UNL1       -0.2544
     16 P          -1.0430   -0.9175    1.0596 P.3     1  UNL1        0.4856
     17 O          -0.8634   -1.2302   -0.5894 O.3     1  UNL1       -0.3022
     18 O          -0.5255   -2.1034    1.8174 O.2     1  UNL1       -0.2268
     19 O           0.0059    0.3801    1.4022 O.3     1  UNL1       -0.1860
     20 P          -0.0302    1.5431    0.2077 P.3     1  UNL1        0.4835
     21 O          -0.8807    2.9348    0.7069 O.3     1  UNL1       -0.3022
     22 O          -0.6839    1.0911   -1.0729 O.2     1  UNL1       -0.2269
     23 O           1.5451    2.0235   -0.1673 O.3     1  UNL1       -0.2837
     24 C           2.4514    1.3705    0.6616 C.3     1  UNL1        0.0879
     25 C           3.8448    1.8469    0.2724 C.3     1  UNL1        0.1134
     26 O           4.8476    1.2819    1.0125 O.3     1  UNL1       -0.3456
     27 C           5.8515    0.8700    0.1535 C.3     1  UNL1        0.1679
     28 C           5.2009    0.5984   -1.1825 C.3     1  UNL1        0.1286
     29 O           6.1002    0.8116   -2.2406 O.3     1  UNL1       -0.3847
     30 C           4.0726    1.6048   -1.1805 C.3     1  UNL1        0.1135
     31 O           4.3996    2.7752   -1.8730 O.3     1  UNL1       -0.3864
     32 N           6.4154   -0.3576    0.6561 N.ar    1  UNL1       -0.2715
     33 C           5.7332   -1.2236    1.4224 C.ar    1  UNL1        0.0171
     34 C           6.4554   -2.3495    1.8052 C.ar    1  UNL1        0.0192
     35 C           7.7584   -2.5681    1.4362 C.ar    1  UNL1        0.2539
     36 O           8.4061   -3.5831    1.7826 O.2     1  UNL1       -0.2677
     37 N           8.3757   -1.6508    0.6647 N.ar    1  UNL1       -0.2749
     38 C           7.7095   -0.5540    0.2775 C.ar    1  UNL1        0.3314
     39 O           8.3531    0.2506   -0.4382 O.2     1  UNL1       -0.2464
     40 H          -7.3966    2.9698    1.3690 H       1  UNL1        0.0322
     41 H          -6.9259    1.8757    2.6686 H       1  UNL1        0.0322
     42 H          -6.4156    3.6068    2.8137 H       1  UNL1        0.0322
     43 H          -6.0930    0.4778    0.8860 H       1  UNL1        0.1492
     44 H          -3.3519    1.4022   -0.0724 H       1  UNL1        0.0575
     45 H          -5.5447    0.9697   -1.6756 H       1  UNL1        0.0640
     46 H          -3.9463    1.0678   -3.0598 H       1  UNL1        0.2100
     47 H          -5.9740   -1.2408   -2.1115 H       1  UNL1        0.0646
     48 H          -4.4959   -2.5429   -2.8354 H       1  UNL1        0.2100
     49 H          -6.4190   -1.7445    0.0407 H       1  UNL1        0.0647
     50 H          -4.0480   -3.5556   -0.5426 H       1  UNL1        0.0584
     51 H          -5.7764   -3.7169   -1.2141 H       1  UNL1        0.0584
     52 H          -5.6106   -3.3876    1.5151 H       1  UNL1        0.2095
     53 H          -2.9814   -1.0741   -0.3508 H       1  UNL1        0.0935
     54 H          -0.8402   -2.1749   -0.8265 H       1  UNL1        0.2220
     55 H          -0.3722    3.4641    1.3688 H       1  UNL1        0.2220
     56 H           2.3524    0.2981    0.4699 H       1  UNL1        0.0592
     57 H           2.2291    1.6558    1.7072 H       1  UNL1        0.0592
     58 H           3.8757    2.9600    0.4617 H       1  UNL1        0.0647
     59 H           6.6030    1.6760    0.0306 H       1  UNL1        0.0867
     60 H           4.7788   -0.4212   -1.1797 H       1  UNL1        0.0665
     61 H           5.9075    0.1620   -2.9476 H       1  UNL1        0.2101
     62 H           3.1790    1.1067   -1.6322 H       1  UNL1        0.0647
     63 H           3.6595    2.9471   -2.5216 H       1  UNL1        0.2100
     64 H           4.7135   -1.0204    1.6923 H       1  UNL1        0.0813
     65 H           5.9390   -3.0867    2.4329 H       1  UNL1        0.0686
     66 H           9.3711   -1.8252    0.3871 H       1  UNL1        0.1734
@<TRIPOS>BOND
     1     1     2    1
     2     2     3    2
     3     2     4   am
     4     4     5    1
     5     5     6    1
     6     6     7    1
     7     6     8    1
     8     8     9    1
     9     8    10    1
    10    10    11    1
    11    11    12    1
    12    10    13    1
    13    13    14    1
    14    14    15    1
    15    16    15    1
    16    16    17    1
    17    16    18    2
    18    16    19    1
    19    20    19    1
    20    20    21    1
    21    20    22    2
    22    20    23    1
    23    23    24    1
    24    24    25    1
    25    25    26    1
    26    26    27    1
    27    27    28    1
    28    28    29    1
    29    28    30    1
    30    30    31    1
    31    27    32    1
    32    32    33   ar
    33    33    34   ar
    34    34    35   ar
    35    35    36    2
    36    35    37   ar
    37    37    38   ar
    38    38    39    2
    39    14     5    1
    40    30    25    1
    41    38    32   ar
    42     1    40    1
    43     1    41    1
    44     1    42    1
    45     4    43    1
    46     5    44    1
    47     6    45    1
    48     7    46    1
    49     8    47    1
    50     9    48    1
    51    10    49    1
    52    11    50    1
    53    11    51    1
    54    12    52    1
    55    14    53    1
    56    17    54    1
    57    21    55    1
    58    24    56    1
    59    24    57    1
    60    25    58    1
    61    27    59    1
    62    28    60    1
    63    29    61    1
    64    30    62    1
    65    31    63    1
    66    33    64    1
    67    34    65    1
    68    37    66    1
