
     RDKit          3D

 66 69  0  0  0  0  0  0  0  0999 V2000
    8.0479   -0.1559   -0.7915 C   0  0  0  0  0  0  0  0  0  0  0  0
    7.2232    0.9266   -1.4433 C   0  0  0  0  0  0  0  0  0  0  0  0
    5.7545    0.5593   -1.3347 C   0  0  0  0  0  0  0  0  0  0  0  0
    5.3907    0.4423    0.0803 C   0  0  0  0  0  0  0  0  0  0  0  0
    6.2085    0.6316    1.1243 N   0  0  0  0  0  0  0  0  0  0  0  0
    5.5496    0.4388    2.2561 C   0  0  0  0  0  0  0  0  0  0  0  0
    6.0280    0.5333    3.6764 C   0  0  0  0  0  0  0  0  0  0  0  0
    4.2616    0.1145    1.8870 C   0  0  0  0  0  0  0  0  0  0  0  0
    3.1185   -0.1964    2.5803 C   0  0  0  0  0  0  0  0  0  0  0  0
    3.1379   -0.2162    3.8327 O   0  0  0  0  0  0  0  0  0  0  0  0
    1.9523   -0.4868    1.9472 N   0  0  0  0  0  0  0  0  0  0  0  0
    1.8702   -0.4812    0.6117 C   0  0  0  0  0  0  0  0  0  0  0  0
    0.6466   -0.7921   -0.1124 C   0  0  0  0  0  0  0  0  0  0  0  0
   -0.5151   -1.1311    0.5620 C   0  0  0  0  0  0  0  0  0  0  0  0
   -1.6681   -1.4252   -0.1519 C   0  0  0  0  0  0  0  0  0  0  0  0
   -3.1001   -1.8444    0.7566 S   0  0  0  0  0  6  0  0  0  0  0  0
   -2.6586   -2.4227    2.0792 O   0  0  0  0  0  0  0  0  0  0  0  0
   -3.9327   -2.8626    0.0267 O   0  0  0  0  0  0  0  0  0  0  0  0
   -3.9553   -0.4103    1.0646 N   0  0  0  0  0  0  0  0  0  0  0  0
   -4.4189    0.3080   -0.0607 C   0  0  0  0  0  0  0  0  0  0  0  0
   -5.7490    0.9822    0.0812 C   0  0  0  0  0  0  0  0  0  0  0  0
   -6.6182    0.1292    0.8454 N   0  0  0  0  0  0  0  0  0  0  0  0
   -7.9697    0.6338    0.8509 C   0  0  0  0  0  0  0  0  0  0  0  0
   -8.5417    0.5068   -0.5449 C   0  0  0  0  0  0  0  0  0  0  0  0
   -6.0940    0.1055    2.2003 C   0  0  0  0  0  0  0  0  0  0  0  0
   -4.6772   -0.3398    2.2717 C   0  0  0  0  0  0  0  0  0  0  0  0
   -1.6051   -1.3658   -1.5214 C   0  0  0  0  0  0  0  0  0  0  0  0
   -0.4560   -1.0300   -2.1940 C   0  0  0  0  0  0  0  0  0  0  0  0
    0.6825   -0.7394   -1.4982 C   0  0  0  0  0  0  0  0  0  0  0  0
    1.8318   -0.4041   -2.1555 O   0  0  0  0  0  0  0  0  0  0  0  0
    2.0269   -0.3086   -3.5314 C   0  0  0  0  0  0  0  0  0  0  0  0
    1.1560    0.6976   -4.2182 C   0  0  0  0  0  0  0  0  0  0  0  0
    3.0034   -0.1727   -0.0600 N   0  0  0  0  0  0  0  0  0  0  0  0
    4.1512    0.1137    0.5313 N   0  0  0  0  0  0  0  0  0  0  0  0
    8.7229   -0.5806   -1.5573 H   0  0  0  0  0  0  0  0  0  0  0  0
    7.3825   -0.9625   -0.4059 H   0  0  0  0  0  0  0  0  0  0  0  0
    8.6564    0.2538    0.0544 H   0  0  0  0  0  0  0  0  0  0  0  0
    7.3849    1.9225   -0.9514 H   0  0  0  0  0  0  0  0  0  0  0  0
    7.5102    1.0272   -2.4903 H   0  0  0  0  0  0  0  0  0  0  0  0
    5.1587    1.3232   -1.8894 H   0  0  0  0  0  0  0  0  0  0  0  0
    5.6070   -0.4135   -1.8205 H   0  0  0  0  0  0  0  0  0  0  0  0
    5.8106   -0.4678    4.1351 H   0  0  0  0  0  0  0  0  0  0  0  0
    5.3557    1.2533    4.1755 H   0  0  0  0  0  0  0  0  0  0  0  0
    7.0849    0.7956    3.6978 H   0  0  0  0  0  0  0  0  0  0  0  0
    1.1359   -0.7117    2.5543 H   0  0  0  0  0  0  0  0  0  0  0  0
   -0.5504   -1.1748    1.6616 H   0  0  0  0  0  0  0  0  0  0  0  0
   -3.6611    1.0923   -0.3351 H   0  0  0  0  0  0  0  0  0  0  0  0
   -4.4214   -0.3611   -0.9749 H   0  0  0  0  0  0  0  0  0  0  0  0
   -5.6087    1.9805    0.5335 H   0  0  0  0  0  0  0  0  0  0  0  0
   -6.2095    1.0605   -0.9392 H   0  0  0  0  0  0  0  0  0  0  0  0
   -8.5485    0.0539    1.6018 H   0  0  0  0  0  0  0  0  0  0  0  0
   -7.9585    1.7255    1.1065 H   0  0  0  0  0  0  0  0  0  0  0  0
   -7.9161   -0.1658   -1.1829 H   0  0  0  0  0  0  0  0  0  0  0  0
   -8.6774    1.4867   -1.0199 H   0  0  0  0  0  0  0  0  0  0  0  0
   -9.5684    0.0688   -0.4109 H   0  0  0  0  0  0  0  0  0  0  0  0
   -6.7798   -0.4377    2.8879 H   0  0  0  0  0  0  0  0  0  0  0  0
   -6.1313    1.1831    2.5402 H   0  0  0  0  0  0  0  0  0  0  0  0
   -4.6759   -1.3778    2.7216 H   0  0  0  0  0  0  0  0  0  0  0  0
   -4.1103    0.3000    2.9908 H   0  0  0  0  0  0  0  0  0  0  0  0
   -2.5097   -1.5961   -2.0906 H   0  0  0  0  0  0  0  0  0  0  0  0
   -0.5011   -1.0086   -3.2920 H   0  0  0  0  0  0  0  0  0  0  0  0
    1.9628   -1.2937   -4.0510 H   0  0  0  0  0  0  0  0  0  0  0  0
    3.0928    0.0015   -3.6740 H   0  0  0  0  0  0  0  0  0  0  0  0
    1.7998    1.4520   -4.7119 H   0  0  0  0  0  0  0  0  0  0  0  0
    0.5415    1.2526   -3.4809 H   0  0  0  0  0  0  0  0  0  0  0  0
    0.5403    0.2575   -5.0305 H   0  0  0  0  0  0  0  0  0  0  0  0
  1  2  1  0
  2  3  1  0
  3  4  1  0
  4  5  2  0
  5  6  1  0
  6  7  1  0
  6  8  2  0
  8  9  1  0
  9 10  2  0
  9 11  1  0
 11 12  1  0
 12 13  1  0
 13 14  2  0
 14 15  1  0
 15 16  1  0
 16 17  2  0
 16 18  2  0
 16 19  1  0
 19 20  1  0
 20 21  1  0
 21 22  1  0
 22 23  1  0
 23 24  1  0
 22 25  1  0
 25 26  1  0
 15 27  2  0
 27 28  1  0
 28 29  2  0
 29 30  1  0
 30 31  1  0
 31 32  1  0
 12 33  2  0
 33 34  1  0
 34  4  1  0
 34  8  1  0
 29 13  1  0
 26 19  1  0
  1 35  1  0
  1 36  1  0
  1 37  1  0
  2 38  1  0
  2 39  1  0
  3 40  1  0
  3 41  1  0
  7 42  1  0
  7 43  1  0
  7 44  1  0
 11 45  1  0
 14 46  1  0
 20 47  1  0
 20 48  1  0
 21 49  1  0
 21 50  1  0
 23 51  1  0
 23 52  1  0
 24 53  1  0
 24 54  1  0
 24 55  1  0
 25 56  1  0
 25 57  1  0
 26 58  1  0
 26 59  1  0
 27 60  1  0
 28 61  1  0
 31 62  1  0
 31 63  1  0
 32 64  1  0
 32 65  1  0
 32 66  1  0
M  END
$$$$
