@<TRIPOS>MOLECULE
*****
 66 69 0 0 0
SMALL
GASTEIGER

@<TRIPOS>ATOM
      1 C           8.0479   -0.1559   -0.7915 C.3     1  UNL1       -0.0649
      2 C           7.2232    0.9266   -1.4433 C.3     1  UNL1       -0.0490
      3 C           5.7545    0.5593   -1.3347 C.3     1  UNL1        0.0071
      4 C           5.3907    0.4423    0.0803 C.ar    1  UNL1        0.1318
      5 N           6.2085    0.6316    1.1243 N.ar    1  UNL1       -0.2349
      6 C           5.5496    0.4388    2.2561 C.ar    1  UNL1        0.0710
      7 C           6.0280    0.5333    3.6764 C.3     1  UNL1       -0.0200
      8 C           4.2616    0.1145    1.8870 C.ar    1  UNL1        0.1524
      9 C           3.1185   -0.1964    2.5803 C.ar    1  UNL1        0.2777
     10 O           3.1379   -0.2162    3.8327 O.2     1  UNL1       -0.2655
     11 N           1.9523   -0.4868    1.9472 N.ar    1  UNL1       -0.3037
     12 C           1.8702   -0.4812    0.6117 C.ar    1  UNL1        0.1651
     13 C           0.6466   -0.7921   -0.1124 C.ar    1  UNL1        0.0625
     14 C          -0.5151   -1.1311    0.5620 C.ar    1  UNL1       -0.0211
     15 C          -1.6681   -1.4252   -0.1519 C.ar    1  UNL1        0.1064
     16 S          -3.1001   -1.8444    0.7566 S.O2    1  UNL1        0.0610
     17 O          -2.6586   -2.4227    2.0792 O.2     1  UNL1       -0.1528
     18 O          -3.9327   -2.8626    0.0267 O.2     1  UNL1       -0.1528
     19 N          -3.9553   -0.4103    1.0646 N.3     1  UNL1       -0.1741
     20 C          -4.4189    0.3080   -0.0607 C.3     1  UNL1        0.0333
     21 C          -5.7490    0.9822    0.0812 C.3     1  UNL1        0.0134
     22 N          -6.6182    0.1292    0.8454 N.3     1  UNL1       -0.3001
     23 C          -7.9697    0.6338    0.8509 C.3     1  UNL1       -0.0039
     24 C          -8.5417    0.5068   -0.5449 C.3     1  UNL1       -0.0524
     25 C          -6.0940    0.1055    2.2003 C.3     1  UNL1        0.0134
     26 C          -4.6772   -0.3398    2.2717 C.3     1  UNL1        0.0333
     27 C          -1.6051   -1.3658   -1.5214 C.ar    1  UNL1       -0.0319
     28 C          -0.4560   -1.0300   -2.1940 C.ar    1  UNL1       -0.0174
     29 C           0.6825   -0.7394   -1.4982 C.ar    1  UNL1        0.1313
     30 O           1.8318   -0.4041   -2.1555 O.3     1  UNL1       -0.4915
     31 C           2.0269   -0.3086   -3.5314 C.3     1  UNL1        0.0868
     32 C           1.1560    0.6976   -4.2182 C.3     1  UNL1       -0.0307
     33 N           3.0034   -0.1727   -0.0600 N.ar    1  UNL1       -0.1462
     34 N           4.1512    0.1137    0.5313 N.ar    1  UNL1       -0.2096
     35 H           8.7229   -0.5806   -1.5573 H       1  UNL1        0.0230
     36 H           7.3825   -0.9625   -0.4059 H       1  UNL1        0.0230
     37 H           8.6564    0.2538    0.0544 H       1  UNL1        0.0230
     38 H           7.3849    1.9225   -0.9514 H       1  UNL1        0.0267
     39 H           7.5102    1.0272   -2.4903 H       1  UNL1        0.0267
     40 H           5.1587    1.3232   -1.8894 H       1  UNL1        0.0344
     41 H           5.6070   -0.4135   -1.8205 H       1  UNL1        0.0344
     42 H           5.8106   -0.4678    4.1351 H       1  UNL1        0.0293
     43 H           5.3557    1.2533    4.1755 H       1  UNL1        0.0293
     44 H           7.0849    0.7956    3.6978 H       1  UNL1        0.0293
     45 H           1.1359   -0.7117    2.5543 H       1  UNL1        0.1705
     46 H          -0.5504   -1.1748    1.6616 H       1  UNL1        0.0645
     47 H          -3.6611    1.0923   -0.3351 H       1  UNL1        0.0456
     48 H          -4.4214   -0.3611   -0.9749 H       1  UNL1        0.0456
     49 H          -5.6087    1.9805    0.5335 H       1  UNL1        0.0440
     50 H          -6.2095    1.0605   -0.9392 H       1  UNL1        0.0440
     51 H          -8.5485    0.0539    1.6018 H       1  UNL1        0.0424
     52 H          -7.9585    1.7255    1.1065 H       1  UNL1        0.0424
     53 H          -7.9161   -0.1658   -1.1829 H       1  UNL1        0.0242
     54 H          -8.6774    1.4867   -1.0199 H       1  UNL1        0.0242
     55 H          -9.5684    0.0688   -0.4109 H       1  UNL1        0.0242
     56 H          -6.7798   -0.4377    2.8879 H       1  UNL1        0.0440
     57 H          -6.1313    1.1831    2.5402 H       1  UNL1        0.0440
     58 H          -4.6759   -1.3778    2.7216 H       1  UNL1        0.0456
     59 H          -4.1103    0.3000    2.9908 H       1  UNL1        0.0456
     60 H          -2.5097   -1.5961   -2.0906 H       1  UNL1        0.0638
     61 H          -0.5011   -1.0086   -3.2920 H       1  UNL1        0.0655
     62 H           1.9628   -1.2937   -4.0510 H       1  UNL1        0.0694
     63 H           3.0928    0.0015   -3.6740 H       1  UNL1        0.0694
     64 H           1.7998    1.4520   -4.7119 H       1  UNL1        0.0262
     65 H           0.5415    1.2526   -3.4809 H       1  UNL1        0.0262
     66 H           0.5403    0.2575   -5.0305 H       1  UNL1        0.0262
@<TRIPOS>BOND
     1     1     2    1
     2     2     3    1
     3     3     4    1
     4     4     5   ar
     5     5     6   ar
     6     6     7    1
     7     6     8   ar
     8     8     9   ar
     9     9    10    2
    10     9    11   ar
    11    11    12   ar
    12    12    13    1
    13    13    14   ar
    14    14    15   ar
    15    15    16    1
    16    16    17    2
    17    16    18    2
    18    16    19    1
    19    19    20    1
    20    20    21    1
    21    21    22    1
    22    22    23    1
    23    23    24    1
    24    22    25    1
    25    25    26    1
    26    15    27   ar
    27    27    28   ar
    28    28    29   ar
    29    29    30    1
    30    30    31    1
    31    31    32    1
    32    12    33   ar
    33    33    34   ar
    34    34     4   ar
    35    34     8   ar
    36    29    13   ar
    37    26    19    1
    38     1    35    1
    39     1    36    1
    40     1    37    1
    41     2    38    1
    42     2    39    1
    43     3    40    1
    44     3    41    1
    45     7    42    1
    46     7    43    1
    47     7    44    1
    48    11    45    1
    49    14    46    1
    50    20    47    1
    51    20    48    1
    52    21    49    1
    53    21    50    1
    54    23    51    1
    55    23    52    1
    56    24    53    1
    57    24    54    1
    58    24    55    1
    59    25    56    1
    60    25    57    1
    61    26    58    1
    62    26    59    1
    63    27    60    1
    64    28    61    1
    65    31    62    1
    66    31    63    1
    67    32    64    1
    68    32    65    1
    69    32    66    1
