@<TRIPOS>MOLECULE
*****
 36 38 0 0 0
SMALL
GASTEIGER

@<TRIPOS>ATOM
      1 C          -4.1186    1.4012    0.6704 C.3     1  UNL1       -0.0152
      2 N          -3.5153    0.1513    0.3020 N.3     1  UNL1       -0.3122
      3 C          -2.0942    0.3113    0.2792 C.3     1  UNL1        0.0358
      4 C          -1.6352    1.3637   -0.7098 C.3     1  UNL1       -0.0172
      5 C          -0.1815    1.6171   -0.5457 C.3     1  UNL1        0.0190
      6 N           0.6017    0.4137   -0.3680 N.pl3   1  UNL1       -0.2997
      7 C           1.9873    0.4755   -0.0600 C.ar    1  UNL1        0.0354
      8 C           2.7582    1.5707   -0.4432 C.ar    1  UNL1       -0.0389
      9 C           4.0987    1.6646   -0.1373 C.ar    1  UNL1       -0.0402
     10 C           4.7170    0.6499    0.5720 C.ar    1  UNL1        0.0594
     11 CL          6.4247    0.7257    0.9847 Cl      1  UNL1       -0.0820
     12 C           3.9732   -0.4485    0.9645 C.ar    1  UNL1        0.0610
     13 CL          4.7873   -1.7135    1.8602 Cl      1  UNL1       -0.0820
     14 C           2.6129   -0.5277    0.6458 C.ar    1  UNL1       -0.0206
     15 C          -0.0507   -0.8399   -0.5205 C.ar    1  UNL1        0.0386
     16 C           0.6425   -1.9268   -0.9749 C.ar    1  UNL1       -0.0400
     17 C          -0.0520   -3.1231   -1.0854 C.ar    1  UNL1       -0.0600
     18 C          -1.3815   -3.2498   -0.7619 C.ar    1  UNL1       -0.0613
     19 C          -2.0704   -2.1364   -0.3030 C.ar    1  UNL1       -0.0553
     20 C          -1.4101   -0.9506   -0.1862 C.ar    1  UNL1       -0.0091
     21 H          -5.1971    1.2596    0.9665 H       1  UNL1        0.0388
     22 H          -3.6378    1.8778    1.5495 H       1  UNL1        0.0388
     23 H          -4.1660    2.0878   -0.2128 H       1  UNL1        0.0388
     24 H          -3.8764   -0.1235   -0.6280 H       1  UNL1        0.1222
     25 H          -1.7130    0.5942    1.2780 H       1  UNL1        0.0511
     26 H          -1.7938    0.9225   -1.7285 H       1  UNL1        0.0299
     27 H          -2.1751    2.3226   -0.5924 H       1  UNL1        0.0299
     28 H           0.0161    2.3612    0.2578 H       1  UNL1        0.0468
     29 H           0.1624    2.0965   -1.5133 H       1  UNL1        0.0468
     30 H           2.3050    2.3625   -0.9889 H       1  UNL1        0.0637
     31 H           4.7134    2.5047   -0.4251 H       1  UNL1        0.0633
     32 H           2.1179   -1.4171    1.0081 H       1  UNL1        0.0651
     33 H           1.6926   -1.8233   -1.2395 H       1  UNL1        0.0636
     34 H           0.4694   -4.0061   -1.4430 H       1  UNL1        0.0618
     35 H          -1.8896   -4.1996   -0.8608 H       1  UNL1        0.0618
     36 H          -3.1220   -2.2483   -0.0503 H       1  UNL1        0.0621
@<TRIPOS>BOND
     1     1     2    1
     2     2     3    1
     3     3     4    1
     4     4     5    1
     5     5     6    1
     6     6     7    1
     7     7     8   ar
     8     8     9   ar
     9     9    10   ar
    10    10    11    1
    11    10    12   ar
    12    12    13    1
    13    12    14   ar
    14     6    15    1
    15    15    16   ar
    16    16    17   ar
    17    17    18   ar
    18    18    19   ar
    19    19    20   ar
    20    20     3    1
    21    14     7   ar
    22    20    15   ar
    23     1    21    1
    24     1    22    1
    25     1    23    1
    26     2    24    1
    27     3    25    1
    28     4    26    1
    29     4    27    1
    30     5    28    1
    31     5    29    1
    32     8    30    1
    33     9    31    1
    34    14    32    1
    35    16    33    1
    36    17    34    1
    37    18    35    1
    38    19    36    1
