@<TRIPOS>MOLECULE
*****
 56 57 0 0 0
SMALL
GASTEIGER

@<TRIPOS>ATOM
      1 C           7.7480   -0.5332   -2.4593 C.3     0  UNK0       -0.0639
      2 C           6.3847   -0.3367   -1.7936 C.3     0  UNK0       -0.0402
      3 C           5.3661   -0.2876   -2.8899 C.3     0  UNK0        0.0114
      4 N           4.0596   -0.0967   -2.3245 N.am    0  UNK0       -0.3131
      5 C           3.4655   -1.0099   -1.4271 C.2     0  UNK0        0.2450
      6 O           4.0588   -2.0580   -1.0720 O.2     0  UNK0       -0.2729
      7 C           2.1127   -0.7247   -0.8935 C.3     0  UNK0        0.1698
      8 O           1.2918   -1.8726   -0.8576 O.3     0  UNK0       -0.3487
      9 C           1.7836   -1.2782    0.4097 C.3     0  UNK0        0.1698
     10 C           0.6563   -0.8327    1.2261 C.2     0  UNK0        0.2456
     11 O           0.5388   -1.2607    2.4209 O.2     0  UNK0       -0.2728
     12 N          -0.3690    0.0630    0.8283 N.am    1  ILE1       -0.3015
     13 CA         -1.4622    0.4872    1.6690 C.3     1  ILE1        0.1022
     14 C          -2.7539   -0.0046    1.2825 C.2     1  ILE1        0.2368
     15 O          -3.7219    0.4126    2.0228 O.2     1  ILE1       -0.2735
     16 N          -3.1595   -0.8577    0.2459 N.am    2  PRO2       -0.2865
     17 CD         -2.4479   -1.5694   -0.7967 C.3     2  PRO2        0.0157
     18 CG         -3.1441   -0.9561   -2.0121 C.3     2  PRO2       -0.0349
     19 CB         -4.6021   -1.0703   -1.5488 C.3     2  PRO2       -0.0225
     20 CA         -4.5604   -1.2545   -0.0469 C.3     2  PRO2        0.1228
     21 C          -4.8330   -2.6138    0.4000 C.2     2  PRO2        0.3255
     22 O          -5.9894   -3.0757    0.2113 O.2     2  PRO2       -0.2489
     23 OXT        -3.9226   -3.4493    1.0199 O.3     2  PRO2       -0.4793
     24 CB         -1.2940    1.9588    1.8989 C.3     1  ILE1       -0.0171
     25 CG2        -1.3191    2.7964    0.6670 C.3     1  ILE1       -0.0603
     26 CG1        -2.0885    2.5106    3.0540 C.3     1  ILE1       -0.0512
     27 CD1        -1.8349    3.9988    3.1952 C.3     1  ILE1       -0.0650
     28 H           7.7345   -0.1198   -3.5023 H       0  UNK0        0.0230
     29 H           8.4839    0.0267   -1.8724 H       0  UNK0        0.0230
     30 H           7.9582   -1.6221   -2.4885 H       0  UNK0        0.0230
     31 H           6.3595    0.6403   -1.2693 H       0  UNK0        0.0278
     32 H           6.1770   -1.1851   -1.1309 H       0  UNK0        0.0278
     33 H           5.4059   -1.2539   -3.4724 H       0  UNK0        0.0462
     34 H           5.5851    0.5272   -3.6213 H       0  UNK0        0.0462
     35 H           3.5197    0.7521   -2.5834 H       0  UNK0        0.1488
     36 H           1.6327    0.2119   -1.2407 H       0  UNK0        0.0725
     37 H           2.4959   -1.9776    0.8902 H       0  UNK0        0.0725
     38 H          -0.3185    0.4529   -0.1377 H       1  ILE1        0.1495
     39 HA         -1.2334    0.0132    2.6794 H       1  ILE1        0.0597
     40 HD1        -1.3820   -1.5016   -0.7956 H       2  PRO2        0.0465
     41 HD2        -2.7213   -2.6479   -0.8173 H       2  PRO2        0.0465
     42 HG1        -2.9604   -1.5052   -2.9314 H       2  PRO2        0.0281
     43 HG2        -2.8262    0.1073   -2.0265 H       2  PRO2        0.0281
     44 HB1        -5.0584   -0.0668   -1.7689 H       2  PRO2        0.0289
     45 HB2        -5.1392   -1.8567   -2.0773 H       2  PRO2        0.0289
     46 HA         -5.1967   -0.5079    0.4370 H       2  PRO2        0.0616
     47 HXT        -3.9777   -4.4522    0.8901 H       2  PRO2        0.2951
     48 HB         -0.2161    2.0391    2.2659 H       1  ILE1        0.0321
     49 HG21       -2.2768    3.3905    0.6536 H       1  ILE1        0.0233
     50 HG22       -1.2891    2.2468   -0.2752 H       1  ILE1        0.0233
     51 HG23       -0.5048    3.5606    0.6285 H       1  ILE1        0.0233
     52 HG11       -3.1670    2.3945    2.9842 H       1  ILE1        0.0266
     53 HG12       -1.6935    2.0433    4.0022 H       1  ILE1        0.0266
     54 HD11       -2.5634    4.5720    2.5787 H       1  ILE1        0.0230
     55 HD12       -0.8348    4.2992    2.8613 H       1  ILE1        0.0230
     56 HD13       -1.9562    4.3341    4.2397 H       1  ILE1        0.0230
@<TRIPOS>BOND
     1     1     2    1
     2     2     3    1
     3     3     4    1
     4     4     5   am
     5     5     6    2
     6     5     7    1
     7     7     8    1
     8     8     9    1
     9     9    10    1
    10    10    11    2
    11    10    12   am
    12    12    13    1
    13    13    14    1
    14    14    15    2
    15    14    16   am
    16    16    17    1
    17    17    18    1
    18    18    19    1
    19    19    20    1
    20    20    21    1
    21    21    22    2
    22    21    23    1
    23    13    24    1
    24    24    25    1
    25    24    26    1
    26    26    27    1
    27     9     7    1
    28    20    16    1
    29     1    28    1
    30     1    29    1
    31     1    30    1
    32     2    31    1
    33     2    32    1
    34     3    33    1
    35     3    34    1
    36     4    35    1
    37     7    36    1
    38     9    37    1
    39    12    38    1
    40    13    39    1
    41    17    40    1
    42    17    41    1
    43    18    42    1
    44    18    43    1
    45    19    44    1
    46    19    45    1
    47    20    46    1
    48    23    47    1
    49    24    48    1
    50    25    49    1
    51    25    50    1
    52    25    51    1
    53    26    52    1
    54    26    53    1
    55    27    54    1
    56    27    55    1
    57    27    56    1
