
     RDKit          3D

 27 28  0  0  0  0  0  0  0  0999 V2000
    4.7197   -1.7205   -1.0275 O   0  0  0  0  0  1  0  0  0  0  0  0
    4.0543   -1.3630    0.4657 S   0  0  0  0  0  0  0  0  0  0  0  0
    4.9625   -0.4850    1.2486 O   0  0  0  0  0  0  0  0  0  0  0  0
    3.8053   -2.6086    1.2747 O   0  0  0  0  0  0  0  0  0  0  0  0
    2.5021   -0.5678    0.2763 C   0  0  0  0  0  0  0  0  0  0  0  0
    1.3459   -1.3190    0.2131 C   0  0  0  0  0  0  0  0  0  0  0  0
    0.1448   -0.6523    0.0636 C   0  0  0  0  0  0  0  0  0  0  0  0
    0.1261    0.7292   -0.0182 C   0  0  0  0  0  0  0  0  0  0  0  0
    1.3021    1.4539    0.0483 C   0  0  0  0  0  0  0  0  0  0  0  0
    2.5213    0.8147    0.1979 C   0  0  0  0  0  0  0  0  0  0  0  0
   -1.1049    1.3361   -0.1670 C   0  0  0  0  0  0  0  0  0  0  0  0
   -2.2513    0.5707   -0.2285 C   0  0  0  0  0  0  0  0  0  0  0  0
   -2.2356   -0.7864   -0.1484 C   0  0  0  0  0  0  0  0  0  0  0  0
   -0.9989   -1.3937    0.0010 C   0  0  0  0  0  0  0  0  0  0  0  0
   -3.6658   -1.7841   -0.2226 S   0  0  0  0  0  0  0  0  0  0  0  0
   -4.0060   -2.2145   -1.8255 O   0  0  0  0  0  1  0  0  0  0  0  0
   -4.8292   -1.0381    0.3630 O   0  0  0  0  0  0  0  0  0  0  0  0
   -3.5227   -3.0553    0.5592 O   0  0  0  0  0  0  0  0  0  0  0  0
   -1.1039    3.0706   -0.2674 S   0  0  0  0  0  0  0  0  0  0  0  0
   -2.7147    3.5565   -0.4443 O   0  0  0  0  0  1  0  0  0  0  0  0
   -0.4072    3.5420   -1.5291 O   0  0  0  0  0  0  0  0  0  0  0  0
   -0.5756    3.7593    0.9359 O   0  0  0  0  0  0  0  0  0  0  0  0
    1.3722   -2.4032    0.2784 H   0  0  0  0  0  0  0  0  0  0  0  0
    1.2892    2.5344   -0.0155 H   0  0  0  0  0  0  0  0  0  0  0  0
    3.4276    1.3948    0.2479 H   0  0  0  0  0  0  0  0  0  0  0  0
   -3.2104    1.0860   -0.3469 H   0  0  0  0  0  0  0  0  0  0  0  0
   -0.9470   -2.4567    0.0674 H   0  0  0  0  0  0  0  0  0  0  0  0
  1  2  1  0
  2  3  2  0
  2  4  2  0
  2  5  1  0
  5  6  2  0
  6  7  1  0
  7  8  2  0
  8  9  1  0
  9 10  2  0
  8 11  1  0
 11 12  2  0
 12 13  1  0
 13 14  2  0
 13 15  1  0
 15 16  1  0
 15 17  2  0
 15 18  2  0
 11 19  1  0
 19 20  1  0
 19 21  2  0
 19 22  2  0
 10  5  1  0
 14  7  1  0
  6 23  1  0
  9 24  1  0
 10 25  1  0
 12 26  1  0
 14 27  1  0
M  CHG  3   1  -1  16  -1  20  -1
M  END
$$$$
