@<TRIPOS>MOLECULE
*****
 44 47 0 0 0
SMALL
GASTEIGER

@<TRIPOS>ATOM
      1 C          -0.8127   -0.3360   -0.2399 C.3     1  UNL1        0.1486
      2 C           0.2186    0.7301   -0.4244 C.2     1  UNL1        0.1822
      3 O           0.0508    1.9676   -0.6995 O.2     1  UNL1       -0.2908
      4 C           1.6196    0.3973   -0.2893 C.ar    1  UNL1        0.0192
      5 C           2.6264    1.3178   -0.4659 C.ar    1  UNL1       -0.0435
      6 C           3.9917    1.0370   -0.3384 C.ar    1  UNL1       -0.0172
      7 C           4.9389    2.0217   -0.5332 C.ar    1  UNL1       -0.0540
      8 C           6.2783    1.6782   -0.3918 C.ar    1  UNL1       -0.0612
      9 C           6.6947    0.3931   -0.0649 C.ar    1  UNL1       -0.0612
     10 C           5.7049   -0.5232    0.1115 C.ar    1  UNL1       -0.0540
     11 C           4.3735   -0.2468   -0.0134 C.ar    1  UNL1       -0.0178
     12 C           3.4116   -1.2154    0.1769 C.ar    1  UNL1       -0.0534
     13 C           2.0871   -0.8589    0.0331 C.ar    1  UNL1       -0.0506
     14 C          -2.1818    0.2141   -0.3671 C.ar    1  UNL1       -0.0176
     15 C          -2.2867    1.0585   -1.4681 C.ar    1  UNL1       -0.0567
     16 C          -3.5088    1.6765   -1.7557 C.ar    1  UNL1       -0.0609
     17 C          -4.6317    1.4607   -0.9546 C.ar    1  UNL1       -0.0540
     18 C          -4.5131    0.6210    0.1332 C.ar    1  UNL1       -0.0176
     19 C          -5.5582    0.3267    1.0036 C.ar    1  UNL1       -0.0540
     20 C          -5.3750   -0.5316    2.0852 C.ar    1  UNL1       -0.0612
     21 C          -4.1298   -1.1242    2.3276 C.ar    1  UNL1       -0.0612
     22 C          -3.1104   -0.8278    1.4662 C.ar    1  UNL1       -0.0537
     23 C          -3.3020    0.0224    0.3997 C.ar    1  UNL1       -0.0134
     24 P          -0.6368   -1.6172   -1.5237 P.3     1  UNL1        0.3426
     25 O          -0.6416   -3.1760   -0.8689 O.3     1  UNL1       -0.3233
     26 O          -1.9788   -1.5201   -2.5415 O.3     1  UNL1       -0.3233
     27 O           0.5768   -1.3872   -2.3944 O.2     1  UNL1       -0.2577
     28 H          -0.5859   -0.8533    0.6857 H       1  UNL1        0.0555
     29 H           2.4038    2.3450   -0.7223 H       1  UNL1        0.0631
     30 H           4.6481    3.0342   -0.7890 H       1  UNL1        0.0624
     31 H           7.0189    2.4767   -0.5509 H       1  UNL1        0.0618
     32 H           7.7605    0.2256    0.0222 H       1  UNL1        0.0618
     33 H           6.0210   -1.5364    0.3687 H       1  UNL1        0.0624
     34 H           3.7250   -2.2084    0.4291 H       1  UNL1        0.0624
     35 H           1.3951   -1.6718    0.2021 H       1  UNL1        0.0625
     36 H          -1.5833    1.3870   -2.2378 H       1  UNL1        0.0621
     37 H          -3.7447    2.3526   -2.5684 H       1  UNL1        0.0618
     38 H          -5.5944    1.8945   -1.1090 H       1  UNL1        0.0624
     39 H          -6.4959    0.7939    0.7925 H       1  UNL1        0.0624
     40 H          -6.2656   -0.6759    2.6824 H       1  UNL1        0.0618
     41 H          -4.1474   -1.7548    3.1907 H       1  UNL1        0.0618
     42 H          -2.1842   -1.3173    1.7097 H       1  UNL1        0.0624
     43 H           0.1349   -3.6656   -1.1948 H       1  UNL1        0.2198
     44 H          -2.4114   -2.3845   -2.7045 H       1  UNL1        0.2198
@<TRIPOS>BOND
     1     1     2    1
     2     2     3    2
     3     2     4    1
     4     4     5   ar
     5     5     6   ar
     6     6     7   ar
     7     7     8   ar
     8     8     9   ar
     9     9    10   ar
    10    10    11   ar
    11    11    12   ar
    12    12    13   ar
    13     1    14    1
    14    14    15   ar
    15    15    16   ar
    16    16    17   ar
    17    17    18   ar
    18    18    19   ar
    19    19    20   ar
    20    20    21   ar
    21    21    22   ar
    22    22    23   ar
    23     1    24    1
    24    24    25    1
    25    24    26    1
    26    24    27    2
    27    13     4   ar
    28    23    14   ar
    29    11     6   ar
    30    23    18   ar
    31     1    28    1
    32     5    29    1
    33     7    30    1
    34     8    31    1
    35     9    32    1
    36    10    33    1
    37    12    34    1
    38    13    35    1
    39    15    36    1
    40    16    37    1
    41    17    38    1
    42    19    39    1
    43    20    40    1
    44    21    41    1
    45    22    42    1
    46    25    43    1
    47    26    44    1
