
     RDKit          3D

 44 47  0  0  0  0  0  0  0  0999 V2000
   -0.8127   -0.3360   -0.2399 C   0  0  1  0  0  0  0  0  0  0  0  0
    0.2186    0.7301   -0.4244 C   0  0  0  0  0  0  0  0  0  0  0  0
    0.0508    1.9676   -0.6995 O   0  0  0  0  0  0  0  0  0  0  0  0
    1.6196    0.3973   -0.2893 C   0  0  0  0  0  0  0  0  0  0  0  0
    2.6264    1.3178   -0.4659 C   0  0  0  0  0  0  0  0  0  0  0  0
    3.9917    1.0370   -0.3384 C   0  0  0  0  0  0  0  0  0  0  0  0
    4.9389    2.0217   -0.5332 C   0  0  0  0  0  0  0  0  0  0  0  0
    6.2783    1.6782   -0.3918 C   0  0  0  0  0  0  0  0  0  0  0  0
    6.6947    0.3931   -0.0649 C   0  0  0  0  0  0  0  0  0  0  0  0
    5.7049   -0.5232    0.1115 C   0  0  0  0  0  0  0  0  0  0  0  0
    4.3735   -0.2468   -0.0134 C   0  0  0  0  0  0  0  0  0  0  0  0
    3.4116   -1.2154    0.1769 C   0  0  0  0  0  0  0  0  0  0  0  0
    2.0871   -0.8589    0.0331 C   0  0  0  0  0  0  0  0  0  0  0  0
   -2.1818    0.2141   -0.3671 C   0  0  0  0  0  0  0  0  0  0  0  0
   -2.2867    1.0585   -1.4681 C   0  0  0  0  0  0  0  0  0  0  0  0
   -3.5088    1.6765   -1.7557 C   0  0  0  0  0  0  0  0  0  0  0  0
   -4.6317    1.4607   -0.9546 C   0  0  0  0  0  0  0  0  0  0  0  0
   -4.5131    0.6210    0.1332 C   0  0  0  0  0  0  0  0  0  0  0  0
   -5.5582    0.3267    1.0036 C   0  0  0  0  0  0  0  0  0  0  0  0
   -5.3750   -0.5316    2.0852 C   0  0  0  0  0  0  0  0  0  0  0  0
   -4.1298   -1.1242    2.3276 C   0  0  0  0  0  0  0  0  0  0  0  0
   -3.1104   -0.8278    1.4662 C   0  0  0  0  0  0  0  0  0  0  0  0
   -3.3020    0.0224    0.3997 C   0  0  0  0  0  0  0  0  0  0  0  0
   -0.6368   -1.6172   -1.5237 P   0  0  0  0  0  0  0  0  0  0  0  0
   -0.6416   -3.1760   -0.8689 O   0  0  0  0  0  0  0  0  0  0  0  0
   -1.9788   -1.5201   -2.5415 O   0  0  0  0  0  0  0  0  0  0  0  0
    0.5768   -1.3872   -2.3944 O   0  0  0  0  0  0  0  0  0  0  0  0
   -0.5859   -0.8533    0.6857 H   0  0  0  0  0  0  0  0  0  0  0  0
    2.4038    2.3450   -0.7223 H   0  0  0  0  0  0  0  0  0  0  0  0
    4.6481    3.0342   -0.7890 H   0  0  0  0  0  0  0  0  0  0  0  0
    7.0189    2.4767   -0.5509 H   0  0  0  0  0  0  0  0  0  0  0  0
    7.7605    0.2256    0.0222 H   0  0  0  0  0  0  0  0  0  0  0  0
    6.0210   -1.5364    0.3687 H   0  0  0  0  0  0  0  0  0  0  0  0
    3.7250   -2.2084    0.4291 H   0  0  0  0  0  0  0  0  0  0  0  0
    1.3951   -1.6718    0.2021 H   0  0  0  0  0  0  0  0  0  0  0  0
   -1.5833    1.3870   -2.2378 H   0  0  0  0  0  0  0  0  0  0  0  0
   -3.7447    2.3526   -2.5684 H   0  0  0  0  0  0  0  0  0  0  0  0
   -5.5944    1.8945   -1.1090 H   0  0  0  0  0  0  0  0  0  0  0  0
   -6.4959    0.7939    0.7925 H   0  0  0  0  0  0  0  0  0  0  0  0
   -6.2656   -0.6759    2.6824 H   0  0  0  0  0  0  0  0  0  0  0  0
   -4.1474   -1.7548    3.1907 H   0  0  0  0  0  0  0  0  0  0  0  0
   -2.1842   -1.3173    1.7097 H   0  0  0  0  0  0  0  0  0  0  0  0
    0.1349   -3.6656   -1.1948 H   0  0  0  0  0  0  0  0  0  0  0  0
   -2.4114   -2.3845   -2.7045 H   0  0  0  0  0  0  0  0  0  0  0  0
  1  2  1  0
  2  3  2  0
  2  4  1  0
  4  5  2  0
  5  6  1  0
  6  7  2  0
  7  8  1  0
  8  9  2  0
  9 10  1  0
 10 11  2  0
 11 12  1  0
 12 13  2  0
  1 14  1  0
 14 15  2  0
 15 16  1  0
 16 17  2  0
 17 18  1  0
 18 19  2  0
 19 20  1  0
 20 21  2  0
 21 22  1  0
 22 23  2  0
  1 24  1  0
 24 25  1  0
 24 26  1  0
 24 27  2  0
 13  4  1  0
 23 14  1  0
 11  6  1  0
 23 18  1  0
  1 28  1  1
  5 29  1  0
  7 30  1  0
  8 31  1  0
  9 32  1  0
 10 33  1  0
 12 34  1  0
 13 35  1  0
 15 36  1  0
 16 37  1  0
 17 38  1  0
 19 39  1  0
 20 40  1  0
 21 41  1  0
 22 42  1  0
 25 43  1  0
 26 44  1  0
M  END
$$$$
