@<TRIPOS>MOLECULE
*****
 58 62 0 0 0
SMALL
GASTEIGER

@<TRIPOS>ATOM
      1 C           8.2775   -1.0175   -1.8204 C.3     1  UNL1        0.0302
      2 N           7.3693   -0.3290   -0.9353 N.ar    1  UNL1       -0.2739
      3 C           6.0551   -0.5972   -0.7547 C.ar    1  UNL1        0.0329
      4 C           5.5323    0.2737    0.1672 C.ar    1  UNL1        0.0196
      5 C           4.1667    0.3387    0.6533 C.ar    1  UNL1       -0.0121
      6 C           3.6790    1.5830    1.0217 C.ar    1  UNL1       -0.0520
      7 C           2.4100    1.7300    1.4863 C.ar    1  UNL1       -0.0371
      8 C           1.6282    0.5947    1.5766 C.ar    1  UNL1        0.0681
      9 N           0.2923    0.6952    2.0530 N.pl3   1  UNL1       -0.2955
     10 C          -0.8264    0.2989    1.2526 C.ar    1  UNL1        0.1499
     11 N          -1.4242   -0.9204    1.2479 N.ar    1  UNL1       -0.1552
     12 N          -2.4358   -0.9341    0.3747 N.ar    1  UNL1       -0.2630
     13 C          -3.3197   -2.0224    0.0693 C.3     1  UNL1        0.0572
     14 C          -3.2326   -2.4884   -1.3743 C.3     1  UNL1       -0.0069
     15 C          -4.3311   -3.5492   -1.5122 C.3     1  UNL1        0.0496
     16 O          -3.9472   -4.6421   -0.7691 O.3     1  UNL1       -0.3796
     17 C          -3.8998   -4.3863    0.5814 C.3     1  UNL1        0.0496
     18 C          -2.9600   -3.2371    0.9124 C.3     1  UNL1       -0.0069
     19 C          -2.4834    0.2954   -0.1860 C.ar    1  UNL1        0.0476
     20 C          -1.4908    1.0781    0.3462 C.ar    1  UNL1        0.0325
     21 C          -1.3014    2.4763   -0.0795 C.3     1  UNL1        0.0462
     22 N          -2.5246    3.0946   -0.5234 N.am    1  UNL1       -0.2810
     23 C          -2.6200    4.5069   -0.5165 C.2     1  UNL1        0.2999
     24 N          -3.7821    5.2231   -0.9298 N.am    1  UNL1       -0.3132
     25 O          -1.6528    5.2079   -0.1337 O.2     1  UNL1       -0.2529
     26 C          -3.6754    2.3453   -0.9808 C.3     1  UNL1        0.0219
     27 C          -3.3674    0.8911   -1.2073 C.3     1  UNL1        0.0056
     28 C           2.0827   -0.6510    1.2195 C.ar    1  UNL1        0.1450
     29 F           1.3006   -1.7697    1.3121 F       1  UNL1       -0.2035
     30 C           3.3637   -0.7770    0.7543 C.ar    1  UNL1       -0.0168
     31 C           6.5686    1.0847    0.5462 C.ar    1  UNL1        0.0571
     32 N           7.6786    0.6887   -0.1480 N.ar    1  UNL1       -0.1793
     33 H           8.8080   -1.8437   -1.2920 H       1  UNL1        0.0473
     34 H           7.7118   -1.5214   -2.6529 H       1  UNL1        0.0473
     35 H           9.0001   -0.2819   -2.2263 H       1  UNL1        0.0473
     36 H           5.4855   -1.3704   -1.2473 H       1  UNL1        0.0832
     37 H           4.2911    2.4844    0.9533 H       1  UNL1        0.0624
     38 H           2.0043    2.6817    1.7791 H       1  UNL1        0.0637
     39 H           0.1569    1.0772    3.0300 H       1  UNL1        0.1537
     40 H          -4.3852   -1.7862    0.3444 H       1  UNL1        0.0546
     41 H          -3.3925   -1.6839   -2.0959 H       1  UNL1        0.0308
     42 H          -2.2789   -3.0407   -1.5042 H       1  UNL1        0.0308
     43 H          -4.5424   -3.8057   -2.5478 H       1  UNL1        0.0560
     44 H          -5.2490   -3.0458   -1.0863 H       1  UNL1        0.0560
     45 H          -4.9040   -4.1764    1.0328 H       1  UNL1        0.0560
     46 H          -3.5149   -5.2837    1.1073 H       1  UNL1        0.0560
     47 H          -3.0276   -3.0445    1.9959 H       1  UNL1        0.0308
     48 H          -1.9470   -3.5629    0.5858 H       1  UNL1        0.0308
     49 H          -0.4952    2.5494   -0.8650 H       1  UNL1        0.0516
     50 H          -0.9262    3.0604    0.7889 H       1  UNL1        0.0516
     51 H          -4.5230    5.3684   -0.2106 H       1  UNL1        0.1465
     52 H          -3.9283    5.5993   -1.8825 H       1  UNL1        0.1465
     53 H          -4.0121    2.7834   -1.9419 H       1  UNL1        0.0469
     54 H          -4.5045    2.4773   -0.2545 H       1  UNL1        0.0469
     55 H          -2.9312    0.7597   -2.2251 H       1  UNL1        0.0343
     56 H          -4.3552    0.3483   -1.2345 H       1  UNL1        0.0343
     57 H           3.7695   -1.7384    0.4592 H       1  UNL1        0.0653
     58 H           6.5600    1.9112    1.2672 H       1  UNL1        0.0854
@<TRIPOS>BOND
     1     1     2    1
     2     2     3   ar
     3     3     4   ar
     4     4     5    1
     5     5     6   ar
     6     6     7   ar
     7     7     8   ar
     8     8     9    1
     9     9    10    1
    10    10    11   ar
    11    11    12   ar
    12    12    13    1
    13    13    14    1
    14    14    15    1
    15    15    16    1
    16    16    17    1
    17    17    18    1
    18    12    19   ar
    19    19    20   ar
    20    20    21    1
    21    21    22    1
    22    22    23   am
    23    23    24   am
    24    23    25    2
    25    22    26    1
    26    26    27    1
    27     8    28   ar
    28    28    29    1
    29    28    30   ar
    30     4    31   ar
    31    31    32   ar
    32    32     2   ar
    33    30     5   ar
    34    20    10   ar
    35    18    13    1
    36    27    19    1
    37     1    33    1
    38     1    34    1
    39     1    35    1
    40     3    36    1
    41     6    37    1
    42     7    38    1
    43     9    39    1
    44    13    40    1
    45    14    41    1
    46    14    42    1
    47    15    43    1
    48    15    44    1
    49    17    45    1
    50    17    46    1
    51    18    47    1
    52    18    48    1
    53    21    49    1
    54    21    50    1
    55    24    51    1
    56    24    52    1
    57    26    53    1
    58    26    54    1
    59    27    55    1
    60    27    56    1
    61    30    57    1
    62    31    58    1
