@<TRIPOS>MOLECULE
*****
 77 79 0 0 0
SMALL
GASTEIGER

@<TRIPOS>ATOM
      1 C          -5.3130    1.7044   -1.1111 C.3     1  UNL1       -0.0157
      2 N          -4.4257    2.3773   -0.2245 N.3     1  UNL1       -0.3172
      3 C          -3.0616    2.0433   -0.4120 C.3     1  UNL1        0.0141
      4 C          -2.6188    0.6772   -0.0247 C.3     1  UNL1        0.0374
      5 C          -2.7937    0.3156    1.3920 C.3     1  UNL1       -0.0283
      6 C          -4.1497    0.2790    1.9657 C.3     1  UNL1       -0.0158
      7 C          -5.0607   -0.7523    1.3132 C.3     1  UNL1       -0.0460
      8 C          -6.3965   -0.6206    1.9949 C.3     1  UNL1       -0.0291
      9 C          -6.3904    0.4333    3.0762 C.3     1  UNL1        0.0477
     10 O          -5.3578    0.3364    3.9717 O.3     1  UNL1       -0.3795
     11 C          -4.1401   -0.0681    3.4385 C.3     1  UNL1        0.0505
     12 N          -1.2374    0.4987   -0.4881 N.am    1  UNL1       -0.2952
     13 C          -0.9285   -0.2145   -1.6670 C.2     1  UNL1        0.3025
     14 O          -1.8954   -0.6979   -2.3374 O.2     1  UNL1       -0.2526
     15 N           0.3732   -0.4441   -2.1805 N.am    1  UNL1       -0.2853
     16 C           0.5573   -1.1433   -3.4343 C.3     1  UNL1        0.0161
     17 C           1.3654   -2.3904   -3.1764 C.3     1  UNL1       -0.0367
     18 C           2.7281   -1.9221   -2.6332 C.3     1  UNL1       -0.0447
     19 C           2.4926   -1.2087   -1.3022 C.3     1  UNL1        0.0053
     20 C           3.8105   -0.8367   -0.7251 C.3     1  UNL1        0.0880
     21 O           3.6921   -0.2019    0.4785 O.3     1  UNL1       -0.3701
     22 C           4.4668    0.8834    0.7148 C.3     1  UNL1        0.0641
     23 C           4.3503    2.0688   -0.1888 C.3     1  UNL1        0.0382
     24 N           3.0341    2.6373   -0.2018 N.am    1  UNL1       -0.2789
     25 C           2.3847    3.1416    0.9376 C.2     1  UNL1        0.4001
     26 O           2.9455    3.1197    2.0521 O.2     1  UNL1       -0.2265
     27 O           1.1053    3.6878    0.9048 O.3     1  UNL1       -0.4537
     28 C           0.4602    4.1933    2.0620 C.3     1  UNL1        0.0833
     29 C           4.6154   -2.1407   -0.5169 C.ar    1  UNL1       -0.0172
     30 C           4.3481   -2.9503    0.5400 C.ar    1  UNL1       -0.0560
     31 C           5.0474   -4.1448    0.7481 C.ar    1  UNL1       -0.0600
     32 C           6.0266   -4.4846   -0.1555 C.ar    1  UNL1       -0.0434
     33 C           6.2982   -3.6715   -1.2205 C.ar    1  UNL1        0.0413
     34 CL          7.5453   -4.1416   -2.3491 Cl      1  UNL1       -0.0835
     35 C           5.5928   -2.4911   -1.4080 C.ar    1  UNL1       -0.0377
     36 C           1.5978   -0.0262   -1.4931 C.3     1  UNL1        0.0216
     37 H          -6.1286    1.2562   -0.5000 H       1  UNL1        0.0388
     38 H          -5.7468    2.3926   -1.8812 H       1  UNL1        0.0388
     39 H          -4.8006    0.8691   -1.6019 H       1  UNL1        0.0388
     40 H          -4.5912    3.3992   -0.2368 H       1  UNL1        0.1217
     41 H          -2.3673    2.8368    0.0136 H       1  UNL1        0.0442
     42 H          -2.8500    2.1434   -1.5197 H       1  UNL1        0.0442
     43 H          -3.2392   -0.0242   -0.6606 H       1  UNL1        0.0511
     44 H          -2.1760    1.0559    1.9937 H       1  UNL1        0.0287
     45 H          -2.2913   -0.6642    1.6452 H       1  UNL1        0.0287
     46 H          -4.6861    1.2599    1.9076 H       1  UNL1        0.0323
     47 H          -4.6032   -1.7465    1.6203 H       1  UNL1        0.0269
     48 H          -5.0704   -0.7580    0.2372 H       1  UNL1        0.0269
     49 H          -7.1697   -0.3439    1.2557 H       1  UNL1        0.0287
     50 H          -6.6870   -1.5953    2.4486 H       1  UNL1        0.0287
     51 H          -7.3302    0.2328    3.6757 H       1  UNL1        0.0560
     52 H          -6.5633    1.4365    2.6419 H       1  UNL1        0.0560
     53 H          -3.2816    0.3657    3.9818 H       1  UNL1        0.0562
     54 H          -4.0693   -1.1639    3.5839 H       1  UNL1        0.0562
     55 H          -0.4357    0.9055    0.0515 H       1  UNL1        0.1506
     56 H          -0.4296   -1.3635   -3.8836 H       1  UNL1        0.0465
     57 H           1.0897   -0.4867   -4.1540 H       1  UNL1        0.0465
     58 H           1.5553   -2.9551   -4.0989 H       1  UNL1        0.0280
     59 H           0.8679   -3.0175   -2.4117 H       1  UNL1        0.0280
     60 H           3.3087   -2.8222   -2.4096 H       1  UNL1        0.0270
     61 H           3.1551   -1.2572   -3.3920 H       1  UNL1        0.0270
     62 H           1.9401   -1.9527   -0.6684 H       1  UNL1        0.0344
     63 H           4.4495   -0.2666   -1.4320 H       1  UNL1        0.0649
     64 H           4.2358    1.2033    1.7829 H       1  UNL1        0.0576
     65 H           5.5390    0.5375    0.7839 H       1  UNL1        0.0576
     66 H           4.6753    1.8379   -1.2334 H       1  UNL1        0.0486
     67 H           5.0227    2.8576    0.2490 H       1  UNL1        0.0486
     68 H           2.4919    2.7051   -1.1016 H       1  UNL1        0.1521
     69 H           1.0901    4.8868    2.6468 H       1  UNL1        0.0661
     70 H           0.1702    3.3216    2.7021 H       1  UNL1        0.0661
     71 H          -0.4794    4.7221    1.7742 H       1  UNL1        0.0661
     72 H           3.5754   -2.6814    1.2528 H       1  UNL1        0.0621
     73 H           4.8448   -4.7935    1.5820 H       1  UNL1        0.0618
     74 H           6.5763   -5.4151    0.0008 H       1  UNL1        0.0632
     75 H           5.8229   -1.8711   -2.2411 H       1  UNL1        0.0636
     76 H           2.0986    0.6563   -2.2070 H       1  UNL1        0.0469
     77 H           1.4183    0.4515   -0.5378 H       1  UNL1        0.0469
@<TRIPOS>BOND
     1     1     2    1
     2     2     3    1
     3     3     4    1
     4     4     5    1
     5     5     6    1
     6     6     7    1
     7     7     8    1
     8     8     9    1
     9     9    10    1
    10    10    11    1
    11     4    12    1
    12    12    13   am
    13    13    14    2
    14    13    15   am
    15    15    16    1
    16    16    17    1
    17    17    18    1
    18    18    19    1
    19    19    20    1
    20    20    21    1
    21    21    22    1
    22    22    23    1
    23    23    24    1
    24    24    25   am
    25    25    26    2
    26    25    27    1
    27    27    28    1
    28    20    29    1
    29    29    30   ar
    30    30    31   ar
    31    31    32   ar
    32    32    33   ar
    33    33    34    1
    34    33    35   ar
    35    19    36    1
    36    11     6    1
    37    36    15    1
    38    35    29   ar
    39     1    37    1
    40     1    38    1
    41     1    39    1
    42     2    40    1
    43     3    41    1
    44     3    42    1
    45     4    43    1
    46     5    44    1
    47     5    45    1
    48     6    46    1
    49     7    47    1
    50     7    48    1
    51     8    49    1
    52     8    50    1
    53     9    51    1
    54     9    52    1
    55    11    53    1
    56    11    54    1
    57    12    55    1
    58    16    56    1
    59    16    57    1
    60    17    58    1
    61    17    59    1
    62    18    60    1
    63    18    61    1
    64    19    62    1
    65    20    63    1
    66    22    64    1
    67    22    65    1
    68    23    66    1
    69    23    67    1
    70    24    68    1
    71    28    69    1
    72    28    70    1
    73    28    71    1
    74    30    72    1
    75    31    73    1
    76    32    74    1
    77    35    75    1
    78    36    76    1
    79    36    77    1
