@<TRIPOS>MOLECULE
*****
 28 30 0 0 0
SMALL
GASTEIGER

@<TRIPOS>ATOM
      1 C           4.3277   -0.2380    0.4211 C.3     1  UNL1        0.0788
      2 O           3.0302   -0.7154    0.1492 O.3     1  UNL1       -0.4943
      3 C           1.9304    0.0925    0.2227 C.ar    1  UNL1        0.1344
      4 C           1.8614    1.4287    0.5493 C.ar    1  UNL1        0.0453
      5 C           0.6695    2.1166    0.5818 C.ar    1  UNL1        0.2551
      6 O           0.6411    3.3364    0.8841 O.2     1  UNL1       -0.2676
      7 N          -0.4612    1.4549    0.2834 N.ar    1  UNL1       -0.3078
      8 C          -1.7197    2.1697    0.3148 C.3     1  UNL1        0.0154
      9 C          -0.4732    0.1524   -0.0443 C.ar    1  UNL1        0.1011
     10 C           0.7305   -0.5614   -0.0820 C.ar    1  UNL1        0.0442
     11 C           0.6731   -1.9066   -0.4257 C.ar    1  UNL1       -0.0454
     12 C          -0.5364   -2.5121   -0.7193 C.ar    1  UNL1       -0.0153
     13 C          -1.7177   -1.7999   -0.6795 C.ar    1  UNL1        0.1683
     14 C          -1.6938   -0.4604   -0.3411 C.ar    1  UNL1        0.1903
     15 O          -2.9986    0.0234   -0.3729 O.3     1  UNL1       -0.4505
     16 C          -3.8883   -1.0521   -0.5614 C.3     1  UNL1        0.2333
     17 O          -3.0477   -2.1408   -0.9209 O.3     1  UNL1       -0.4525
     18 H           4.4021    0.8228    0.1094 H       1  UNL1        0.0660
     19 H           4.5113   -0.2388    1.5301 H       1  UNL1        0.0660
     20 H           5.0314   -0.8924   -0.1308 H       1  UNL1        0.0660
     21 H           2.7941    1.8878    0.7738 H       1  UNL1        0.0709
     22 H          -2.4198    1.7804    1.0560 H       1  UNL1        0.0457
     23 H          -1.5673    3.2410    0.5605 H       1  UNL1        0.0457
     24 H          -2.1287    2.1797   -0.7225 H       1  UNL1        0.0457
     25 H           1.6188   -2.4677   -0.4554 H       1  UNL1        0.0626
     26 H          -0.5322   -3.5687   -0.9836 H       1  UNL1        0.0655
     27 H          -4.6056   -0.8139   -1.3798 H       1  UNL1        0.1166
     28 H          -4.4314   -1.3180    0.3828 H       1  UNL1        0.1166
@<TRIPOS>BOND
     1     1     2    1
     2     2     3    1
     3     3     4   ar
     4     4     5   ar
     5     5     6    2
     6     5     7   ar
     7     7     8    1
     8     7     9   ar
     9     9    10   ar
    10    10    11   ar
    11    11    12   ar
    12    12    13   ar
    13    13    14   ar
    14    14    15    1
    15    15    16    1
    16    16    17    1
    17    10     3   ar
    18    17    13    1
    19    14     9   ar
    20     1    18    1
    21     1    19    1
    22     1    20    1
    23     4    21    1
    24     8    22    1
    25     8    23    1
    26     8    24    1
    27    11    25    1
    28    12    26    1
    29    16    27    1
    30    16    28    1
