
     RDKit          3D

 28 30  0  0  0  0  0  0  0  0999 V2000
    4.3277   -0.2380    0.4211 C   0  0  0  0  0  0  0  0  0  0  0  0
    3.0302   -0.7154    0.1492 O   0  0  0  0  0  0  0  0  0  0  0  0
    1.9304    0.0925    0.2227 C   0  0  0  0  0  0  0  0  0  0  0  0
    1.8614    1.4287    0.5493 C   0  0  0  0  0  0  0  0  0  0  0  0
    0.6695    2.1166    0.5818 C   0  0  0  0  0  0  0  0  0  0  0  0
    0.6411    3.3364    0.8841 O   0  0  0  0  0  0  0  0  0  0  0  0
   -0.4612    1.4549    0.2834 N   0  0  0  0  0  0  0  0  0  0  0  0
   -1.7197    2.1697    0.3148 C   0  0  0  0  0  0  0  0  0  0  0  0
   -0.4732    0.1524   -0.0443 C   0  0  0  0  0  0  0  0  0  0  0  0
    0.7305   -0.5614   -0.0820 C   0  0  0  0  0  0  0  0  0  0  0  0
    0.6731   -1.9066   -0.4257 C   0  0  0  0  0  0  0  0  0  0  0  0
   -0.5364   -2.5121   -0.7193 C   0  0  0  0  0  0  0  0  0  0  0  0
   -1.7177   -1.7999   -0.6795 C   0  0  0  0  0  0  0  0  0  0  0  0
   -1.6938   -0.4604   -0.3411 C   0  0  0  0  0  0  0  0  0  0  0  0
   -2.9986    0.0234   -0.3729 O   0  0  0  0  0  0  0  0  0  0  0  0
   -3.8883   -1.0521   -0.5614 C   0  0  0  0  0  0  0  0  0  0  0  0
   -3.0477   -2.1408   -0.9209 O   0  0  0  0  0  0  0  0  0  0  0  0
    4.4021    0.8228    0.1094 H   0  0  0  0  0  0  0  0  0  0  0  0
    4.5113   -0.2388    1.5301 H   0  0  0  0  0  0  0  0  0  0  0  0
    5.0314   -0.8924   -0.1308 H   0  0  0  0  0  0  0  0  0  0  0  0
    2.7941    1.8878    0.7738 H   0  0  0  0  0  0  0  0  0  0  0  0
   -2.4198    1.7804    1.0560 H   0  0  0  0  0  0  0  0  0  0  0  0
   -1.5673    3.2410    0.5605 H   0  0  0  0  0  0  0  0  0  0  0  0
   -2.1287    2.1797   -0.7225 H   0  0  0  0  0  0  0  0  0  0  0  0
    1.6188   -2.4677   -0.4554 H   0  0  0  0  0  0  0  0  0  0  0  0
   -0.5322   -3.5687   -0.9836 H   0  0  0  0  0  0  0  0  0  0  0  0
   -4.6056   -0.8139   -1.3798 H   0  0  0  0  0  0  0  0  0  0  0  0
   -4.4314   -1.3180    0.3828 H   0  0  0  0  0  0  0  0  0  0  0  0
  1  2  1  0
  2  3  1  0
  3  4  2  0
  4  5  1  0
  5  6  2  0
  5  7  1  0
  7  8  1  0
  7  9  1  0
  9 10  2  0
 10 11  1  0
 11 12  2  0
 12 13  1  0
 13 14  2  0
 14 15  1  0
 15 16  1  0
 16 17  1  0
 10  3  1  0
 17 13  1  0
 14  9  1  0
  1 18  1  0
  1 19  1  0
  1 20  1  0
  4 21  1  0
  8 22  1  0
  8 23  1  0
  8 24  1  0
 11 25  1  0
 12 26  1  0
 16 27  1  0
 16 28  1  0
M  END
$$$$
