@<TRIPOS>MOLECULE
*****
 46 48 0 0 0
SMALL
GASTEIGER

@<TRIPOS>ATOM
      1 C          -1.5549    2.5921   -0.4726 C.3     1  UNL1       -0.0239
      2 C          -1.9378    1.2517   -0.0020 C.ar    1  UNL1        0.0222
      3 C          -3.1015    0.6451   -0.3704 C.ar    1  UNL1       -0.0070
      4 C          -4.1487    1.2000   -1.3115 C.3     1  UNL1        0.0721
      5 C          -3.7247    1.0954   -2.7058 C.2     1  UNL1        0.3091
      6 O          -2.6018    0.6136   -2.9896 O.2     1  UNL1       -0.2507
      7 O          -4.5384    1.5181   -3.7297 O.3     1  UNL1       -0.4804
      8 C          -3.1299   -0.5538    0.2751 C.ar    1  UNL1        0.0228
      9 C          -4.0351   -1.5814    0.3053 C.ar    1  UNL1       -0.0493
     10 C          -3.8351   -2.7164    1.0637 C.ar    1  UNL1       -0.0429
     11 C          -2.6765   -2.7856    1.8024 C.ar    1  UNL1        0.0299
     12 N          -1.8082   -1.7760    1.7595 N.ar    1  UNL1       -0.2373
     13 C          -1.9540   -0.6507    1.0391 C.ar    1  UNL1        0.1414
     14 N          -1.2259    0.4530    0.8683 N.ar    1  UNL1       -0.3247
     15 C           0.0260    0.8920    1.4252 C.3     1  UNL1        0.0504
     16 C           1.2480    0.4880    0.7537 C.ar    1  UNL1       -0.0160
     17 C           1.6123    1.0874   -0.4704 C.ar    1  UNL1       -0.0545
     18 C           2.7084    0.6836   -1.2029 C.ar    1  UNL1       -0.0366
     19 C           3.4982   -0.3437   -0.7455 C.ar    1  UNL1        0.0884
     20 S           4.9180   -0.8952   -1.6329 S.O2    1  UNL1       -0.0059
     21 C           6.3376   -0.0766   -0.9110 C.3     1  UNL1        0.0596
     22 O           4.8590   -0.4421   -3.0665 O.2     1  UNL1       -0.1696
     23 O           5.0918   -2.3606   -1.5205 O.2     1  UNL1       -0.1696
     24 C           3.1406   -0.9182    0.4433 C.ar    1  UNL1       -0.0249
     25 C           2.0386   -0.5282    1.2056 C.ar    1  UNL1        0.0615
     26 C           1.8682   -1.1784    2.5524 C.3     1  UNL1        0.4178
     27 F           0.7143   -1.8245    2.7659 F       1  UNL1       -0.1659
     28 F           2.9466   -2.0458    2.7773 F       1  UNL1       -0.1659
     29 F           2.0707   -0.1620    3.5261 F       1  UNL1       -0.1659
     30 H          -2.4768    3.2388   -0.5308 H       1  UNL1        0.0292
     31 H          -1.1692    2.5495   -1.5184 H       1  UNL1        0.0292
     32 H          -0.8908    3.1191    0.2260 H       1  UNL1        0.0292
     33 H          -5.1466    0.7233   -1.1072 H       1  UNL1        0.0427
     34 H          -4.2966    2.2715   -1.0358 H       1  UNL1        0.0427
     35 H          -4.5866    1.0140   -4.6109 H       1  UNL1        0.2951
     36 H          -4.9613   -1.5232   -0.2855 H       1  UNL1        0.0625
     37 H          -4.5295   -3.5217    1.0953 H       1  UNL1        0.0633
     38 H          -2.4882   -3.6796    2.4183 H       1  UNL1        0.0830
     39 H           0.0261    1.9961    1.5853 H       1  UNL1        0.0542
     40 H           0.0607    0.4765    2.4738 H       1  UNL1        0.0542
     41 H           1.0522    1.9042   -0.8913 H       1  UNL1        0.0622
     42 H           2.9609    1.1741   -2.1517 H       1  UNL1        0.0637
     43 H           7.2125   -0.1189   -1.5790 H       1  UNL1        0.0468
     44 H           6.5885   -0.5633    0.0756 H       1  UNL1        0.0468
     45 H           6.0915    0.9831   -0.6372 H       1  UNL1        0.0468
     46 H           3.7471   -1.7244    0.8144 H       1  UNL1        0.0642
@<TRIPOS>BOND
     1     1     2    1
     2     2     3   ar
     3     3     4    1
     4     4     5    1
     5     5     6    2
     6     5     7    1
     7     3     8   ar
     8     8     9   ar
     9     9    10   ar
    10    10    11   ar
    11    11    12   ar
    12    12    13   ar
    13    13    14   ar
    14    14    15    1
    15    15    16    1
    16    16    17   ar
    17    17    18   ar
    18    18    19   ar
    19    19    20    1
    20    20    21    1
    21    20    22    2
    22    20    23    2
    23    19    24   ar
    24    24    25   ar
    25    25    26    1
    26    26    27    1
    27    26    28    1
    28    26    29    1
    29    14     2   ar
    30    25    16   ar
    31    13     8   ar
    32     1    30    1
    33     1    31    1
    34     1    32    1
    35     4    33    1
    36     4    34    1
    37     7    35    1
    38     9    36    1
    39    10    37    1
    40    11    38    1
    41    15    39    1
    42    15    40    1
    43    17    41    1
    44    18    42    1
    45    21    43    1
    46    21    44    1
    47    21    45    1
    48    24    46    1
