
     RDKit          3D

 46 48  0  0  0  0  0  0  0  0999 V2000
   -1.5549    2.5921   -0.4726 C   0  0  0  0  0  0  0  0  0  0  0  0
   -1.9378    1.2517   -0.0020 C   0  0  0  0  0  0  0  0  0  0  0  0
   -3.1015    0.6451   -0.3704 C   0  0  0  0  0  0  0  0  0  0  0  0
   -4.1487    1.2000   -1.3115 C   0  0  0  0  0  0  0  0  0  0  0  0
   -3.7247    1.0954   -2.7058 C   0  0  0  0  0  0  0  0  0  0  0  0
   -2.6018    0.6136   -2.9896 O   0  0  0  0  0  0  0  0  0  0  0  0
   -4.5384    1.5181   -3.7297 O   0  0  0  0  0  0  0  0  0  0  0  0
   -3.1299   -0.5538    0.2751 C   0  0  0  0  0  0  0  0  0  0  0  0
   -4.0351   -1.5814    0.3053 C   0  0  0  0  0  0  0  0  0  0  0  0
   -3.8351   -2.7164    1.0637 C   0  0  0  0  0  0  0  0  0  0  0  0
   -2.6765   -2.7856    1.8024 C   0  0  0  0  0  0  0  0  0  0  0  0
   -1.8082   -1.7760    1.7595 N   0  0  0  0  0  0  0  0  0  0  0  0
   -1.9540   -0.6507    1.0391 C   0  0  0  0  0  0  0  0  0  0  0  0
   -1.2259    0.4530    0.8683 N   0  0  0  0  0  0  0  0  0  0  0  0
    0.0260    0.8920    1.4252 C   0  0  0  0  0  0  0  0  0  0  0  0
    1.2480    0.4880    0.7537 C   0  0  0  0  0  0  0  0  0  0  0  0
    1.6123    1.0874   -0.4704 C   0  0  0  0  0  0  0  0  0  0  0  0
    2.7084    0.6836   -1.2029 C   0  0  0  0  0  0  0  0  0  0  0  0
    3.4982   -0.3437   -0.7455 C   0  0  0  0  0  0  0  0  0  0  0  0
    4.9180   -0.8952   -1.6329 S   0  0  0  0  0  6  0  0  0  0  0  0
    6.3376   -0.0766   -0.9110 C   0  0  0  0  0  0  0  0  0  0  0  0
    4.8590   -0.4421   -3.0665 O   0  0  0  0  0  0  0  0  0  0  0  0
    5.0918   -2.3606   -1.5205 O   0  0  0  0  0  0  0  0  0  0  0  0
    3.1406   -0.9182    0.4433 C   0  0  0  0  0  0  0  0  0  0  0  0
    2.0386   -0.5282    1.2056 C   0  0  0  0  0  0  0  0  0  0  0  0
    1.8682   -1.1784    2.5524 C   0  0  0  0  0  0  0  0  0  0  0  0
    0.7143   -1.8245    2.7659 F   0  0  0  0  0  0  0  0  0  0  0  0
    2.9466   -2.0458    2.7773 F   0  0  0  0  0  0  0  0  0  0  0  0
    2.0707   -0.1620    3.5261 F   0  0  0  0  0  0  0  0  0  0  0  0
   -2.4768    3.2388   -0.5308 H   0  0  0  0  0  0  0  0  0  0  0  0
   -1.1692    2.5495   -1.5184 H   0  0  0  0  0  0  0  0  0  0  0  0
   -0.8908    3.1191    0.2260 H   0  0  0  0  0  0  0  0  0  0  0  0
   -5.1466    0.7233   -1.1072 H   0  0  0  0  0  0  0  0  0  0  0  0
   -4.2966    2.2715   -1.0358 H   0  0  0  0  0  0  0  0  0  0  0  0
   -4.5866    1.0140   -4.6109 H   0  0  0  0  0  0  0  0  0  0  0  0
   -4.9613   -1.5232   -0.2855 H   0  0  0  0  0  0  0  0  0  0  0  0
   -4.5295   -3.5217    1.0953 H   0  0  0  0  0  0  0  0  0  0  0  0
   -2.4882   -3.6796    2.4183 H   0  0  0  0  0  0  0  0  0  0  0  0
    0.0261    1.9961    1.5853 H   0  0  0  0  0  0  0  0  0  0  0  0
    0.0607    0.4765    2.4738 H   0  0  0  0  0  0  0  0  0  0  0  0
    1.0522    1.9042   -0.8913 H   0  0  0  0  0  0  0  0  0  0  0  0
    2.9609    1.1741   -2.1517 H   0  0  0  0  0  0  0  0  0  0  0  0
    7.2125   -0.1189   -1.5790 H   0  0  0  0  0  0  0  0  0  0  0  0
    6.5885   -0.5633    0.0756 H   0  0  0  0  0  0  0  0  0  0  0  0
    6.0915    0.9831   -0.6372 H   0  0  0  0  0  0  0  0  0  0  0  0
    3.7471   -1.7244    0.8144 H   0  0  0  0  0  0  0  0  0  0  0  0
  1  2  1  0
  2  3  2  0
  3  4  1  0
  4  5  1  0
  5  6  2  0
  5  7  1  0
  3  8  1  0
  8  9  2  0
  9 10  1  0
 10 11  2  0
 11 12  1  0
 12 13  2  0
 13 14  1  0
 14 15  1  0
 15 16  1  0
 16 17  2  0
 17 18  1  0
 18 19  2  0
 19 20  1  0
 20 21  1  0
 20 22  2  0
 20 23  2  0
 19 24  1  0
 24 25  2  0
 25 26  1  0
 26 27  1  0
 26 28  1  0
 26 29  1  0
 14  2  1  0
 25 16  1  0
 13  8  1  0
  1 30  1  0
  1 31  1  0
  1 32  1  0
  4 33  1  0
  4 34  1  0
  7 35  1  0
  9 36  1  0
 10 37  1  0
 11 38  1  0
 15 39  1  0
 15 40  1  0
 17 41  1  0
 18 42  1  0
 21 43  1  0
 21 44  1  0
 21 45  1  0
 24 46  1  0
M  END
$$$$
