@<TRIPOS>MOLECULE
*****
 39 40 0 0 0
SMALL
GASTEIGER

@<TRIPOS>ATOM
      1 C          -4.2893    2.3840    0.9870 C.3     1  UNL1        0.0736
      2 S          -3.2616    2.5315   -0.4408 S.O2    1  UNL1        0.0404
      3 O          -4.0613    2.0927   -1.6514 O.2     1  UNL1       -0.1555
      4 O          -2.9011    3.9698   -0.6831 O.2     1  UNL1       -0.1555
      5 N          -1.8291    1.6145   -0.3290 N.pl3   1  UNL1       -0.2173
      6 C          -1.8664    0.2030   -0.2008 C.ar    1  UNL1        0.0897
      7 C          -3.0885   -0.4226   -0.1708 C.ar    1  UNL1       -0.0294
      8 C          -3.1812   -1.8061   -0.0465 C.ar    1  UNL1        0.0176
      9 C          -2.0209   -2.5440    0.0466 C.ar    1  UNL1        0.2768
     10 N          -2.1197   -3.9531    0.1732 N.pl3   1  UNL1        0.0797
     11 O          -3.2298   -4.5059    0.1990 O.2     1  UNL1        0.0414
     12 O          -0.9825   -4.7124    0.2678 O.co2   1  UNL1       -0.5760
     13 C          -0.7725   -1.9387    0.0191 C.ar    1  UNL1        0.0591
     14 C          -0.6962   -0.5690   -0.1044 C.ar    1  UNL1        0.1496
     15 O           0.4549    0.1459   -0.1441 O.3     1  UNL1       -0.4867
     16 C           1.7878   -0.2904   -0.0745 C.3     1  UNL1        0.1003
     17 C           2.3875    0.2764    1.1736 C.3     1  UNL1       -0.0158
     18 C           3.8129    0.6631    1.0835 C.3     1  UNL1       -0.0497
     19 C           4.5806   -0.0458    0.0067 C.3     1  UNL1       -0.0528
     20 C           3.9269    0.2478   -1.3054 C.3     1  UNL1       -0.0497
     21 C           2.4651    0.0693   -1.3452 C.3     1  UNL1       -0.0158
     22 H          -3.8768    1.6541    1.7276 H       1  UNL1        0.0482
     23 H          -4.3624    3.3779    1.4744 H       1  UNL1        0.0482
     24 H          -5.3232    2.1052    0.7014 H       1  UNL1        0.0482
     25 H          -0.8915    2.0695   -0.3520 H       1  UNL1        0.1734
     26 H          -4.0212    0.1488   -0.2437 H       1  UNL1        0.0640
     27 H          -4.1443   -2.3066   -0.0222 H       1  UNL1        0.0686
     28 H           0.1258   -2.5177    0.0919 H       1  UNL1        0.0723
     29 H           1.7688   -1.3921    0.0260 H       1  UNL1        0.0733
     30 H           1.8209    1.1811    1.5412 H       1  UNL1        0.0301
     31 H           2.2843   -0.4620    2.0152 H       1  UNL1        0.0301
     32 H           3.8952    1.7646    0.8711 H       1  UNL1        0.0266
     33 H           4.3465    0.5198    2.0496 H       1  UNL1        0.0266
     34 H           5.6024    0.4093   -0.0250 H       1  UNL1        0.0265
     35 H           4.7360   -1.1183    0.2105 H       1  UNL1        0.0265
     36 H           4.4574   -0.3895   -2.0742 H       1  UNL1        0.0266
     37 H           4.2307    1.2989   -1.5878 H       1  UNL1        0.0266
     38 H           2.0052    0.9873   -1.7698 H       1  UNL1        0.0301
     39 H           2.2305   -0.7401   -2.0949 H       1  UNL1        0.0301
@<TRIPOS>UNITY_ATOM_ATTR
10 1
charge 1
12 1
charge -1
@<TRIPOS>BOND
     1     1     2    1
     2     2     3    2
     3     2     4    2
     4     2     5    1
     5     5     6    1
     6     6     7   ar
     7     7     8   ar
     8     8     9   ar
     9     9    10    1
    10    10    11    2
    11    10    12    1
    12     9    13   ar
    13    13    14   ar
    14    14    15    1
    15    15    16    1
    16    16    17    1
    17    17    18    1
    18    18    19    1
    19    19    20    1
    20    20    21    1
    21    14     6   ar
    22    21    16    1
    23     1    22    1
    24     1    23    1
    25     1    24    1
    26     5    25    1
    27     7    26    1
    28     8    27    1
    29    13    28    1
    30    16    29    1
    31    17    30    1
    32    17    31    1
    33    18    32    1
    34    18    33    1
    35    19    34    1
    36    19    35    1
    37    20    36    1
    38    20    37    1
    39    21    38    1
    40    21    39    1
