
     RDKit          3D

 39 40  0  0  0  0  0  0  0  0999 V2000
   -4.2893    2.3840    0.9870 C   0  0  0  0  0  0  0  0  0  0  0  0
   -3.2616    2.5315   -0.4408 S   0  0  0  0  0  6  0  0  0  0  0  0
   -4.0613    2.0927   -1.6514 O   0  0  0  0  0  0  0  0  0  0  0  0
   -2.9011    3.9698   -0.6831 O   0  0  0  0  0  0  0  0  0  0  0  0
   -1.8291    1.6145   -0.3290 N   0  0  0  0  0  0  0  0  0  0  0  0
   -1.8664    0.2030   -0.2008 C   0  0  0  0  0  0  0  0  0  0  0  0
   -3.0885   -0.4226   -0.1708 C   0  0  0  0  0  0  0  0  0  0  0  0
   -3.1812   -1.8061   -0.0465 C   0  0  0  0  0  0  0  0  0  0  0  0
   -2.0209   -2.5440    0.0466 C   0  0  0  0  0  0  0  0  0  0  0  0
   -2.1197   -3.9531    0.1732 N   0  0  0  0  0  4  0  0  0  0  0  0
   -3.2298   -4.5059    0.1990 O   0  0  0  0  0  0  0  0  0  0  0  0
   -0.9825   -4.7124    0.2678 O   0  0  0  0  0  1  0  0  0  0  0  0
   -0.7725   -1.9387    0.0191 C   0  0  0  0  0  0  0  0  0  0  0  0
   -0.6962   -0.5690   -0.1044 C   0  0  0  0  0  0  0  0  0  0  0  0
    0.4549    0.1459   -0.1441 O   0  0  0  0  0  0  0  0  0  0  0  0
    1.7878   -0.2904   -0.0745 C   0  0  0  0  0  0  0  0  0  0  0  0
    2.3875    0.2764    1.1736 C   0  0  0  0  0  0  0  0  0  0  0  0
    3.8129    0.6631    1.0835 C   0  0  0  0  0  0  0  0  0  0  0  0
    4.5806   -0.0458    0.0067 C   0  0  0  0  0  0  0  0  0  0  0  0
    3.9269    0.2478   -1.3054 C   0  0  0  0  0  0  0  0  0  0  0  0
    2.4651    0.0693   -1.3452 C   0  0  0  0  0  0  0  0  0  0  0  0
   -3.8768    1.6541    1.7276 H   0  0  0  0  0  0  0  0  0  0  0  0
   -4.3624    3.3779    1.4744 H   0  0  0  0  0  0  0  0  0  0  0  0
   -5.3232    2.1052    0.7014 H   0  0  0  0  0  0  0  0  0  0  0  0
   -0.8915    2.0695   -0.3520 H   0  0  0  0  0  0  0  0  0  0  0  0
   -4.0212    0.1488   -0.2437 H   0  0  0  0  0  0  0  0  0  0  0  0
   -4.1443   -2.3066   -0.0222 H   0  0  0  0  0  0  0  0  0  0  0  0
    0.1258   -2.5177    0.0919 H   0  0  0  0  0  0  0  0  0  0  0  0
    1.7688   -1.3921    0.0260 H   0  0  0  0  0  0  0  0  0  0  0  0
    1.8209    1.1811    1.5412 H   0  0  0  0  0  0  0  0  0  0  0  0
    2.2843   -0.4620    2.0152 H   0  0  0  0  0  0  0  0  0  0  0  0
    3.8952    1.7646    0.8711 H   0  0  0  0  0  0  0  0  0  0  0  0
    4.3465    0.5198    2.0496 H   0  0  0  0  0  0  0  0  0  0  0  0
    5.6024    0.4093   -0.0250 H   0  0  0  0  0  0  0  0  0  0  0  0
    4.7360   -1.1183    0.2105 H   0  0  0  0  0  0  0  0  0  0  0  0
    4.4574   -0.3895   -2.0742 H   0  0  0  0  0  0  0  0  0  0  0  0
    4.2307    1.2989   -1.5878 H   0  0  0  0  0  0  0  0  0  0  0  0
    2.0052    0.9873   -1.7698 H   0  0  0  0  0  0  0  0  0  0  0  0
    2.2305   -0.7401   -2.0949 H   0  0  0  0  0  0  0  0  0  0  0  0
  1  2  1  0
  2  3  2  0
  2  4  2  0
  2  5  1  0
  5  6  1  0
  6  7  2  0
  7  8  1  0
  8  9  2  0
  9 10  1  0
 10 11  2  0
 10 12  1  0
  9 13  1  0
 13 14  2  0
 14 15  1  0
 15 16  1  0
 16 17  1  0
 17 18  1  0
 18 19  1  0
 19 20  1  0
 20 21  1  0
 14  6  1  0
 21 16  1  0
  1 22  1  0
  1 23  1  0
  1 24  1  0
  5 25  1  0
  7 26  1  0
  8 27  1  0
 13 28  1  0
 16 29  1  0
 17 30  1  0
 17 31  1  0
 18 32  1  0
 18 33  1  0
 19 34  1  0
 19 35  1  0
 20 36  1  0
 20 37  1  0
 21 38  1  0
 21 39  1  0
M  CHG  2  10   1  12  -1
M  END
$$$$
