@<TRIPOS>MOLECULE
*****
 106 107 0 0 0
SMALL
GASTEIGER

@<TRIPOS>ATOM
      1 O          -2.7269   -8.7096   -3.3924 O.3     1  UNL1       -0.4711
      2 AL         -1.9624   -7.4733   -4.5357 Al      1  UNL1        0.9372
      3 O          -2.9365   -7.0676   -6.0546 O.3     1  UNL1       -0.4711
      4 O          -0.9723   -6.1176   -3.7497 O.3     1  UNL1       -0.2883
      5 S          -1.6055   -4.6432   -4.2395 S.O2    1  UNL1        0.1860
      6 O          -1.1621   -4.3992   -5.6563 O.2     1  UNL1       -0.1203
      7 O          -3.1251   -4.7101   -4.2363 O.2     1  UNL1       -0.1203
      8 O          -1.1589   -3.3782   -3.2327 O.3     1  UNL1       -0.2150
      9 C          -0.0040   -2.7927   -3.7481 C.3     1  UNL1        0.1076
     10 C           0.4422   -1.6105   -2.9660 C.3     1  UNL1        0.1183
     11 O           0.7267   -1.9368   -1.6295 O.3     1  UNL1       -0.3401
     12 C           0.8759   -0.8010   -0.8498 C.3     1  UNL1        0.1940
     13 O           1.2515   -1.2122    0.4268 O.3     1  UNL1       -0.3121
     14 C           0.2604   -0.9361    1.3581 C.3     1  UNL1        0.2325
     15 C          -1.0081   -1.7271    1.1530 C.3     1  UNL1        0.1354
     16 O          -1.9950   -1.4273    2.1081 O.3     1  UNL1       -0.2122
     17 S          -3.3455   -2.4046    1.7715 S.O2    1  UNL1        0.1861
     18 O          -3.3736   -2.7103    0.3161 O.2     1  UNL1       -0.1203
     19 O          -3.2390   -3.6737    2.5671 O.2     1  UNL1       -0.1203
     20 O          -4.7571   -1.5902    2.1792 O.3     1  UNL1       -0.2883
     21 AL         -6.1307   -2.8242    2.2063 Al      1  UNL1        0.9372
     22 O          -7.6872   -2.5977    1.2780 O.3     1  UNL1       -0.4711
     23 O          -5.7209   -4.5098    2.8539 O.3     1  UNL1       -0.4711
     24 O           0.0701    0.4388    1.3341 O.3     1  UNL1       -0.3099
     25 C          -0.3202    0.8202    2.6068 C.3     1  UNL1        0.2224
     26 O           0.1712    2.1065    2.8246 O.3     1  UNL1       -0.1828
     27 S          -1.0783    3.2201    2.9596 S.O2    1  UNL1        0.1884
     28 O          -2.0822    2.7662    3.9711 O.2     1  UNL1       -0.1203
     29 O          -1.7555    3.4072    1.6306 O.2     1  UNL1       -0.1203
     30 O          -0.4280    4.6924    3.4146 O.3     1  UNL1       -0.2883
     31 AL         -1.3716    6.0626    2.5944 Al      1  UNL1        0.9372
     32 O          -0.6576    6.6691    1.0009 O.3     1  UNL1       -0.4711
     33 O          -3.2164    5.9544    2.6875 O.3     1  UNL1       -0.4711
     34 C           0.2548   -0.1546    3.5783 C.3     1  UNL1        0.1758
     35 O          -0.7427   -0.7913    4.3366 O.3     1  UNL1       -0.2063
     36 S          -0.3898   -0.5343    5.9623 S.O2    1  UNL1        0.1864
     37 O           1.0928   -0.5761    6.2105 O.2     1  UNL1       -0.1203
     38 O          -1.0588   -1.5976    6.7534 O.2     1  UNL1       -0.1203
     39 O          -0.9372    1.0088    6.3755 O.3     1  UNL1       -0.2883
     40 AL         -2.4205    0.8896    7.4429 Al      1  UNL1        0.9372
     41 O          -3.0649    2.4005    8.2413 O.3     1  UNL1       -0.4711
     42 O          -3.5160   -0.5677    7.2298 O.3     1  UNL1       -0.4711
     43 C           0.8793   -1.2344    2.7151 C.3     1  UNL1        0.1787
     44 O           2.2506   -1.1424    2.6632 O.3     1  UNL1       -0.2059
     45 S           2.9761   -2.5960    3.0601 S.O2    1  UNL1        0.1864
     46 O           3.9794   -2.9980    2.0165 O.2     1  UNL1       -0.1203
     47 O           1.9965   -3.6884    3.3275 O.2     1  UNL1       -0.1203
     48 O           3.8150   -2.3248    4.5134 O.3     1  UNL1       -0.2883
     49 AL          4.5663   -0.6331    4.4609 Al      1  UNL1        0.9372
     50 O           6.4121   -0.5289    4.3735 O.3     1  UNL1       -0.4711
     51 O           3.6716    0.8091    5.1817 O.3     1  UNL1       -0.4711
     52 C           1.9300    0.1220   -1.3582 C.3     1  UNL1        0.1711
     53 O           2.2132    1.1862   -0.5943 O.3     1  UNL1       -0.2064
     54 S           3.7467    1.3634   -0.0356 S.O2    1  UNL1        0.1864
     55 O           3.7200    1.3030    1.4671 O.2     1  UNL1       -0.1203
     56 O           4.6931    0.2679   -0.4797 O.2     1  UNL1       -0.1203
     57 O           4.4466    2.8365   -0.4153 O.3     1  UNL1       -0.2883
     58 AL          3.7091    4.1779    0.6246 Al      1  UNL1        0.9372
     59 O           4.6656    4.7826    2.0676 O.3     1  UNL1       -0.4711
     60 O           1.9168    4.5542    0.5408 O.3     1  UNL1       -0.4711
     61 C           1.6425    0.4542   -2.8261 C.3     1  UNL1        0.1536
     62 O           2.5831    1.2884   -3.3738 O.3     1  UNL1       -0.2087
     63 S           1.8180    2.6251   -4.0923 S.O2    1  UNL1        0.1863
     64 O           2.6248    3.8306   -3.6783 O.2     1  UNL1       -0.1203
     65 O           1.8948    2.5274   -5.5873 O.2     1  UNL1       -0.1203
     66 O           0.2688    2.8321   -3.5377 O.3     1  UNL1       -0.2883
     67 AL         -0.8565    3.5628   -4.7568 Al      1  UNL1        0.9372
     68 O          -0.1983    4.3209   -6.2766 O.3     1  UNL1       -0.4711
     69 O          -2.6442    3.1482   -4.6693 O.3     1  UNL1       -0.4711
     70 C           1.6570   -0.9336   -3.4855 C.3     1  UNL1        0.1490
     71 O           1.8293   -0.8839   -4.8319 O.3     1  UNL1       -0.2089
     72 S           3.3081   -1.5980   -5.2730 S.O2    1  UNL1        0.1863
     73 O           3.8940   -0.8823   -6.4500 O.2     1  UNL1       -0.1203
     74 O           3.1351   -3.0364   -5.6668 O.2     1  UNL1       -0.1203
     75 O           4.3689   -1.5709   -3.9551 O.3     1  UNL1       -0.2883
     76 AL          5.1130   -3.2188   -3.6444 Al      1  UNL1        0.9372
     77 O           5.5360   -3.6849   -1.9022 O.3     1  UNL1       -0.4711
     78 O           4.8525   -4.6391   -4.8006 O.3     1  UNL1       -0.4711
     79 H          -3.4705   -8.2508   -2.8935 H       1  UNL1        0.1687
     80 H          -3.5581   -6.3168   -5.9022 H       1  UNL1        0.1687
     81 H          -0.3048   -2.4222   -4.7670 H       1  UNL1        0.0611
     82 H           0.7771   -3.5583   -3.8088 H       1  UNL1        0.0611
     83 H          -0.3922   -0.8795   -2.9220 H       1  UNL1        0.0648
     84 H          -0.1293   -0.3490   -0.7852 H       1  UNL1        0.0939
     85 H          -1.4742   -1.5277    0.1701 H       1  UNL1        0.0640
     86 H          -0.7301   -2.7915    1.2855 H       1  UNL1        0.0640
     87 H          -7.7079   -1.7349    0.7987 H       1  UNL1        0.1687
     88 H          -5.2526   -4.4394    3.7200 H       1  UNL1        0.1687
     89 H          -1.4417    0.8150    2.5864 H       1  UNL1        0.0962
     90 H           0.1651    7.1748    1.1882 H       1  UNL1        0.1687
     91 H          -3.5921    6.7166    2.2022 H       1  UNL1        0.1687
     92 H           1.0103    0.3530    4.2016 H       1  UNL1        0.0702
     93 H          -3.6723    2.8584    7.6140 H       1  UNL1        0.1687
     94 H          -3.7743   -0.6774    6.2648 H       1  UNL1        0.1687
     95 H           0.5557   -2.2453    3.0026 H       1  UNL1        0.0705
     96 H           6.6587    0.4307    4.1954 H       1  UNL1        0.1687
     97 H           3.7708    1.5842    4.6015 H       1  UNL1        0.1687
     98 H           2.8756   -0.4820   -1.4316 H       1  UNL1        0.0700
     99 H           5.3289    4.1117    2.3660 H       1  UNL1        0.1687
    100 H           1.5142    4.6273    1.4495 H       1  UNL1        0.1687
    101 H           0.6249    0.8414   -2.9833 H       1  UNL1        0.0677
    102 H          -0.9460    4.7699   -6.7744 H       1  UNL1        0.1687
    103 H          -3.2191    3.9323   -4.8480 H       1  UNL1        0.1687
    104 H           2.5591   -1.4665   -3.0626 H       1  UNL1        0.0676
    105 H           4.7561   -3.4680   -1.3368 H       1  UNL1        0.1687
    106 H           4.0896   -5.1670   -4.4486 H       1  UNL1        0.1687
@<TRIPOS>BOND
     1     1     2    1
     2     2     3    1
     3     2     4    1
     4     4     5    1
     5     5     6    2
     6     5     7    2
     7     5     8    1
     8     8     9    1
     9     9    10    1
    10    10    11    1
    11    11    12    1
    12    12    13    1
    13    14    13    1
    14    14    15    1
    15    15    16    1
    16    16    17    1
    17    17    18    2
    18    17    19    2
    19    17    20    1
    20    20    21    1
    21    21    22    1
    22    21    23    1
    23    14    24    1
    24    24    25    1
    25    25    26    1
    26    26    27    1
    27    27    28    2
    28    27    29    2
    29    27    30    1
    30    30    31    1
    31    31    32    1
    32    31    33    1
    33    25    34    1
    34    34    35    1
    35    35    36    1
    36    36    37    2
    37    36    38    2
    38    36    39    1
    39    39    40    1
    40    40    41    1
    41    40    42    1
    42    34    43    1
    43    43    44    1
    44    44    45    1
    45    45    46    2
    46    45    47    2
    47    45    48    1
    48    48    49    1
    49    49    50    1
    50    49    51    1
    51    12    52    1
    52    52    53    1
    53    53    54    1
    54    54    55    2
    55    54    56    2
    56    54    57    1
    57    57    58    1
    58    58    59    1
    59    58    60    1
    60    52    61    1
    61    61    62    1
    62    62    63    1
    63    63    64    2
    64    63    65    2
    65    63    66    1
    66    66    67    1
    67    67    68    1
    68    67    69    1
    69    61    70    1
    70    70    71    1
    71    71    72    1
    72    72    73    2
    73    72    74    2
    74    72    75    1
    75    75    76    1
    76    76    77    1
    77    76    78    1
    78    70    10    1
    79    43    14    1
    80     1    79    1
    81     3    80    1
    82     9    81    1
    83     9    82    1
    84    10    83    1
    85    12    84    1
    86    15    85    1
    87    15    86    1
    88    22    87    1
    89    23    88    1
    90    25    89    1
    91    32    90    1
    92    33    91    1
    93    34    92    1
    94    41    93    1
    95    42    94    1
    96    43    95    1
    97    50    96    1
    98    51    97    1
    99    52    98    1
   100    59    99    1
   101    60   100    1
   102    61   101    1
   103    68   102    1
   104    69   103    1
   105    70   104    1
   106    77   105    1
   107    78   106    1
