@<TRIPOS>MOLECULE
*****
 24 23 0 0 0
SMALL
GASTEIGER

@<TRIPOS>ATOM
      1 N           3.6812   -0.6381    0.1238 N.3     1  UNL1       -0.3300
      2 C           2.5647    0.2137   -0.2208 C.3     1  UNL1       -0.0068
      3 C           1.2159   -0.4767    0.0161 C.3     1  UNL1       -0.0383
      4 C           0.1501    0.5031   -0.3763 C.3     1  UNL1       -0.0179
      5 C          -1.2432   -0.0238   -0.2024 C.3     1  UNL1        0.1750
      6 N          -1.4600   -1.2058   -1.0060 N.3     1  UNL1       -0.3113
      7 C          -1.5855   -0.3652    1.2193 C.3     1  UNL1        0.2672
      8 F          -1.5112    0.6714    2.0990 F       1  UNL1       -0.2066
      9 F          -2.9339   -0.7520    1.2087 F       1  UNL1       -0.2066
     10 C          -2.1934    1.0291   -0.6467 C.2     1  UNL1        0.3305
     11 O          -2.1057    2.2253    0.0319 O.3     1  UNL1       -0.4792
     12 O          -3.0879    1.0340   -1.5509 O.2     1  UNL1       -0.2487
     13 H           4.0339   -0.4518    1.0880 H       1  UNL1        0.1182
     14 H           3.5331   -1.6385   -0.0976 H       1  UNL1        0.1182
     15 H           2.6269    0.5489   -1.2732 H       1  UNL1        0.0422
     16 H           2.6211    1.0990    0.4490 H       1  UNL1        0.0422
     17 H           1.1973   -0.7330    1.0890 H       1  UNL1        0.0278
     18 H           1.1490   -1.4136   -0.5364 H       1  UNL1        0.0278
     19 H           0.2860    0.7060   -1.4596 H       1  UNL1        0.0291
     20 H           0.2767    1.4528    0.1573 H       1  UNL1        0.0291
     21 H          -0.9157   -2.0053   -0.6187 H       1  UNL1        0.1194
     22 H          -2.4602   -1.4643   -1.0205 H       1  UNL1        0.1194
     23 H          -1.0359   -1.2787    1.5105 H       1  UNL1        0.1043
     24 H          -2.8034    2.9634    0.0166 H       1  UNL1        0.2951
@<TRIPOS>BOND
     1     1     2    1
     2     2     3    1
     3     3     4    1
     4     4     5    1
     5     5     6    1
     6     5     7    1
     7     7     8    1
     8     7     9    1
     9     5    10    1
    10    10    11    1
    11    10    12    2
    12     1    13    1
    13     1    14    1
    14     2    15    1
    15     2    16    1
    16     3    17    1
    17     3    18    1
    18     4    19    1
    19     4    20    1
    20     6    21    1
    21     6    22    1
    22     7    23    1
    23    11    24    1
