@<TRIPOS>MOLECULE
*****
 78 83 0 0 0
SMALL
GASTEIGER

@<TRIPOS>ATOM
      1 C           9.2218   -1.2989   -2.8004 C.3     1  UNL1        0.0789
      2 O          10.0079   -1.2265   -1.6379 O.3     1  UNL1       -0.4933
      3 C           9.4894   -1.0908   -0.3659 C.ar    1  UNL1        0.1412
      4 C           8.1079   -1.0166   -0.1674 C.ar    1  UNL1       -0.0104
      5 C           7.5631   -0.8809    1.0936 C.ar    1  UNL1       -0.0143
      6 C           6.1235   -0.8021    1.3103 C.ar    1  UNL1       -0.0160
      7 C           5.5233   -1.2784    2.4534 C.ar    1  UNL1       -0.0532
      8 C           4.1637   -1.2083    2.6691 C.ar    1  UNL1       -0.0473
      9 C           3.3446   -0.6451    1.7230 C.ar    1  UNL1        0.0581
     10 C           3.9135   -0.1570    0.5641 C.ar    1  UNL1        0.0442
     11 C           5.2912   -0.2384    0.3667 C.ar    1  UNL1       -0.0321
     12 N           3.2537    0.4686   -0.5522 N.pl3   1  UNL1       -0.3124
     13 C           1.9315    0.9907   -0.6299 C.ar    1  UNL1        0.0529
     14 C           1.7200    1.7900   -1.7321 C.ar    1  UNL1       -0.0384
     15 C           0.5124    2.3911   -1.9912 C.ar    1  UNL1       -0.0557
     16 C          -0.5910    2.2200   -1.1311 C.ar    1  UNL1       -0.0311
     17 C          -1.8735    2.8876   -1.4566 C.3     1  UNL1        0.0666
     18 C          -2.0901    4.1001   -0.5322 C.3     1  UNL1       -0.0474
     19 C          -1.7871    3.4783   -2.8493 C.3     1  UNL1       -0.0474
     20 C          -3.0720    2.0445   -1.2940 C.2     1  UNL1        0.2272
     21 O          -3.6749    1.5651   -2.3284 O.2     1  UNL1       -0.2745
     22 N          -3.6651    1.6898   -0.0564 N.am    1  UNL1       -0.2848
     23 C          -4.8206    0.8655    0.0356 C.ar    1  UNL1        0.0335
     24 C          -6.0425    1.4879    0.0177 C.ar    1  UNL1       -0.0387
     25 C          -7.1868    0.7098    0.1059 C.ar    1  UNL1       -0.0389
     26 C          -7.1218   -0.6658    0.2104 C.ar    1  UNL1        0.0299
     27 N          -8.2773   -1.4774    0.3010 N.pl3   1  UNL1       -0.3255
     28 C          -8.1420   -2.9009    0.4206 C.3     1  UNL1        0.0357
     29 C          -9.4676   -3.6145    0.2935 C.3     1  UNL1        0.0634
     30 O         -10.4695   -2.9172    0.9676 O.3     1  UNL1       -0.3767
     31 C         -10.7274   -1.7817    0.2187 C.3     1  UNL1        0.0634
     32 C          -9.5625   -0.8522    0.2705 C.3     1  UNL1        0.0357
     33 C          -5.8480   -1.2444    0.2238 C.ar    1  UNL1       -0.0389
     34 C          -4.6949   -0.4943    0.1375 C.ar    1  UNL1       -0.0387
     35 C          -0.3674    1.4214   -0.0368 C.ar    1  UNL1       -0.0345
     36 C           0.8658    0.8110    0.2226 C.ar    1  UNL1        0.0553
     37 N           0.8807    0.0318    1.4011 N.am    1  UNL1       -0.2799
     38 C           1.9327   -0.6397    2.0870 C.2     1  UNL1        0.2501
     39 O           1.6665   -1.3089    3.1166 O.2     1  UNL1       -0.2698
     40 C           8.4276   -0.8203    2.1595 C.ar    1  UNL1       -0.0521
     41 C           9.7869   -0.8923    1.9751 C.ar    1  UNL1       -0.0369
     42 C          10.3469   -1.0289    0.7111 C.ar    1  UNL1        0.0669
     43 N          11.7582   -1.1012    0.5490 N.pl3   1  UNL1       -0.3551
     44 H           9.7834   -0.9819   -3.7092 H       1  UNL1        0.0660
     45 H           8.9132   -2.3576   -2.9329 H       1  UNL1        0.0660
     46 H           8.3341   -0.6280   -2.7542 H       1  UNL1        0.0660
     47 H           7.4091   -1.0623   -0.9906 H       1  UNL1        0.0661
     48 H           6.1774   -1.7203    3.1926 H       1  UNL1        0.0624
     49 H           3.6981   -1.5842    3.5692 H       1  UNL1        0.0626
     50 H           5.7083    0.1530   -0.5523 H       1  UNL1        0.0642
     51 H           3.8295    0.5454   -1.4158 H       1  UNL1        0.1522
     52 H           2.5570    1.9411   -2.4171 H       1  UNL1        0.0637
     53 H           0.3695    3.0123   -2.8588 H       1  UNL1        0.0621
     54 H          -1.1111    4.6578   -0.5805 H       1  UNL1        0.0243
     55 H          -2.1726    3.7577    0.5249 H       1  UNL1        0.0243
     56 H          -2.9328    4.6931   -0.8816 H       1  UNL1        0.0243
     57 H          -1.5137    2.6943   -3.5539 H       1  UNL1        0.0243
     58 H          -2.8230    3.8660   -3.0862 H       1  UNL1        0.0243
     59 H          -1.1505    4.3605   -2.8120 H       1  UNL1        0.0243
     60 H          -3.2678    2.0494    0.8293 H       1  UNL1        0.1548
     61 H          -6.1276    2.5562   -0.0627 H       1  UNL1        0.0637
     62 H          -8.1705    1.1892    0.0932 H       1  UNL1        0.0637
     63 H          -7.5006   -3.2998   -0.4126 H       1  UNL1        0.0486
     64 H          -7.6674   -3.1358    1.4076 H       1  UNL1        0.0486
     65 H          -9.7751   -3.7317   -0.7607 H       1  UNL1        0.0575
     66 H          -9.3954   -4.6218    0.7826 H       1  UNL1        0.0575
     67 H         -11.6467   -1.3162    0.6611 H       1  UNL1        0.0575
     68 H         -11.0086   -2.0441   -0.8421 H       1  UNL1        0.0575
     69 H          -9.5605   -0.1367   -0.5854 H       1  UNL1        0.0486
     70 H          -9.6521   -0.2305    1.1906 H       1  UNL1        0.0486
     71 H          -5.7797   -2.3268    0.3056 H       1  UNL1        0.0637
     72 H          -3.7254   -0.9866    0.1518 H       1  UNL1        0.0637
     73 H          -1.1444    1.2384    0.6610 H       1  UNL1        0.0640
     74 H          -0.0697   -0.0618    1.8442 H       1  UNL1        0.1552
     75 H           8.0004   -0.7140    3.1471 H       1  UNL1        0.0624
     76 H          10.4880   -0.8461    2.8066 H       1  UNL1        0.0637
     77 H          12.2773   -1.7867    1.1387 H       1  UNL1        0.1424
     78 H          12.2992   -0.5122   -0.1210 H       1  UNL1        0.1424
@<TRIPOS>BOND
     1     1     2    1
     2     2     3    1
     3     3     4   ar
     4     4     5   ar
     5     5     6    1
     6     6     7   ar
     7     7     8   ar
     8     8     9   ar
     9     9    10   ar
    10    10    11   ar
    11    10    12    1
    12    12    13    1
    13    13    14   ar
    14    14    15   ar
    15    15    16   ar
    16    16    17    1
    17    17    18    1
    18    17    19    1
    19    17    20    1
    20    20    21    2
    21    20    22   am
    22    22    23    1
    23    23    24   ar
    24    24    25   ar
    25    25    26   ar
    26    26    27    1
    27    27    28    1
    28    28    29    1
    29    29    30    1
    30    30    31    1
    31    31    32    1
    32    26    33   ar
    33    33    34   ar
    34    16    35   ar
    35    35    36   ar
    36    36    37    1
    37    37    38   am
    38    38    39    2
    39     5    40   ar
    40    40    41   ar
    41    41    42   ar
    42    42    43    1
    43    42     3   ar
    44    11     6   ar
    45    36    13   ar
    46    38     9    1
    47    34    23   ar
    48    32    27    1
    49     1    44    1
    50     1    45    1
    51     1    46    1
    52     4    47    1
    53     7    48    1
    54     8    49    1
    55    11    50    1
    56    12    51    1
    57    14    52    1
    58    15    53    1
    59    18    54    1
    60    18    55    1
    61    18    56    1
    62    19    57    1
    63    19    58    1
    64    19    59    1
    65    22    60    1
    66    24    61    1
    67    25    62    1
    68    28    63    1
    69    28    64    1
    70    29    65    1
    71    29    66    1
    72    31    67    1
    73    31    68    1
    74    32    69    1
    75    32    70    1
    76    33    71    1
    77    34    72    1
    78    35    73    1
    79    37    74    1
    80    40    75    1
    81    41    76    1
    82    43    77    1
    83    43    78    1
