
     RDKit          3D

144145  0  0  0  0  0  0  0  0999 V2000
   -4.6630    1.3654   -0.0285 Gd  0  0  0  0  0 15  0  0  0  0  0  0
   -0.4254    1.9211   -2.2030 C   0  0  0  0  0  0  0  0  0  0  0  0
   -0.8128    0.8433   -1.2566 C   0  0  0  0  0  0  0  0  0  0  0  0
   -0.6505   -0.4944   -1.5159 O   0  0  0  0  0  1  0  0  0  0  0  0
   -1.3199    1.1800   -0.1518 O   0  0  0  0  0  0  0  0  0  0  0  0
    0.1785    0.6494    0.5888 C   0  0  0  0  0  0  0  0  0  0  0  0
   -0.6514    0.5281   -0.6423 C   0  0  0  0  0  0  0  0  0  0  0  0
   -0.9812   -0.7609   -1.0431 O   0  0  0  0  0  1  0  0  0  0  0  0
   -1.0085    1.5755   -1.2501 O   0  0  0  0  0  0  0  0  0  0  0  0
    5.8820   -3.3648    3.4349 C   0  0  0  0  0  0  0  0  0  0  0  0
    5.6774   -4.0676    2.1290 C   0  0  0  0  0  0  0  0  0  0  0  0
    4.2442   -4.0454    1.7832 C   0  0  0  0  0  0  0  0  0  0  0  0
    3.2759   -4.8478    2.3399 C   0  0  0  0  0  0  0  0  0  0  0  0
    3.3263   -5.8976    3.3741 C   0  0  0  0  0  0  0  0  0  0  0  0
    3.4223   -5.2537    4.7385 C   0  0  0  0  0  0  0  0  0  0  0  0
    2.1125   -4.4870    1.7220 C   0  0  0  0  0  0  0  0  0  0  0  0
    0.8041   -4.8910    1.8137 C   0  0  0  0  0  0  0  0  0  0  0  0
   -0.2035   -3.9854    1.5904 C   0  0  0  0  0  0  0  0  0  0  0  0
    0.0431   -2.7052    1.8770 N   0  0  0  0  0  0  0  0  0  0  0  0
   -1.0827   -2.0362    1.5590 C   0  0  0  0  0  0  0  0  0  0  0  0
   -1.0850   -0.6690    1.7658 C   0  0  0  0  0  0  0  0  0  0  0  0
   -0.1065    0.1171    1.2219 N   0  0  0  0  0  0  0  0  0  0  0  0
   -0.4751    1.1846    0.4531 C   0  0  0  0  0  0  0  0  0  0  0  0
   -0.6305    2.4555    0.9645 C   0  0  0  0  0  0  0  0  0  0  0  0
   -1.0062    3.5600    0.2301 C   0  0  0  0  0  0  0  0  0  0  0  0
   -1.1549    4.8015    0.7293 O   0  0  0  0  0  0  0  0  0  0  0  0
   -0.9741    5.3388    1.9825 C   0  0  0  0  0  0  0  0  0  0  0  0
    0.4163    5.3254    2.4908 C   0  0  0  0  0  0  0  0  0  0  0  0
    1.3831    6.0117    1.8170 O   0  0  0  0  0  0  0  0  0  0  0  0
    1.5559    5.6077    0.5263 C   0  0  0  0  0  0  0  0  0  0  0  0
    2.7089    6.3571   -0.1481 C   0  0  0  0  0  0  0  0  0  0  0  0
    2.5529    7.7064   -0.1973 O   0  0  0  0  0  0  0  0  0  0  0  0
    1.4498    8.1578   -0.8838 C   0  0  0  0  0  0  0  0  0  0  0  0
    1.4862    9.6735   -0.8214 C   0  0  0  0  0  0  0  0  0  0  0  0
    1.4503   10.1303    0.4734 O   0  0  0  0  0  0  0  0  0  0  0  0
    0.3279    9.7638    1.1776 C   0  0  0  0  0  0  0  0  0  0  0  0
   -1.2488    3.3739   -1.1391 C   0  0  0  0  0  0  0  0  0  0  0  0
   -1.6230    4.4909   -1.8230 O   0  0  0  0  0  0  0  0  0  0  0  0
   -1.9580    4.5413   -3.1532 C   0  0  0  0  0  0  0  0  0  0  0  0
   -3.2243    3.7550   -3.5007 C   0  0  0  0  0  0  0  0  0  0  0  0
   -3.5039    3.8351   -4.8416 O   0  0  0  0  0  0  0  0  0  0  0  0
   -4.5616    3.0967   -5.2352 C   0  0  0  0  0  0  0  0  0  0  0  0
   -5.8721    3.3055   -4.6131 C   0  0  0  0  0  0  0  0  0  0  0  0
   -5.9859    3.0634   -3.2292 O   0  0  0  0  0  0  0  0  0  0  0  0
   -7.3168    3.3126   -2.9448 C   0  0  0  0  0  0  0  0  0  0  0  0
   -7.8279    3.0265   -1.5935 C   0  0  0  0  0  0  0  0  0  0  0  0
   -7.2191    3.7087   -0.5860 O   0  0  0  0  0  0  0  0  0  0  0  0
   -5.9056    3.4245   -0.3646 C   0  0  0  0  0  0  0  0  0  0  0  0
   -1.0896    2.1002   -1.6393 C   0  0  0  0  0  0  0  0  0  0  0  0
   -0.7140    0.9936   -0.9076 C   0  0  0  0  0  0  0  0  0  0  0  0
   -0.5723   -0.2261   -1.4277 N   0  0  0  0  0  0  0  0  0  0  0  0
    0.3350   -0.5771   -2.3550 C   0  0  0  0  0  0  0  0  0  0  0  0
    1.6269   -1.0058   -2.1218 C   0  0  0  0  0  0  0  0  0  0  0  0
    2.0352   -1.4194   -0.9298 N   0  0  0  0  0  0  0  0  0  0  0  0
    3.3335   -1.7661   -1.0374 C   0  0  0  0  0  0  0  0  0  0  0  0
    4.0986   -2.2436   -0.0026 C   0  0  0  0  0  0  0  0  0  0  0  0
    3.6731   -3.2165    0.8464 C   0  0  0  0  0  0  0  0  0  0  0  0
    2.3788   -3.5134    0.8374 N   0  0  0  0  0  2  0  0  0  0  0  0
    3.7441   -1.5387   -2.4281 C   0  0  0  0  0  0  0  0  0  0  0  0
    5.1018   -1.7892   -2.9906 C   0  0  0  0  0  0  0  0  0  0  0  0
    5.4247   -3.2618   -2.8109 C   0  0  0  0  0  0  0  0  0  0  0  0
    6.8003   -3.5738   -3.3689 C   0  0  0  0  0  0  0  0  0  0  0  0
    6.8400   -3.2686   -4.7278 O   0  0  0  0  0  0  0  0  0  0  0  0
    2.6933   -1.0662   -3.1134 C   0  0  0  0  0  0  0  0  0  0  0  0
    2.6596   -0.6960   -4.5625 C   0  0  0  0  0  0  0  0  0  0  0  0
   -2.0681   -3.0023    1.0449 C   0  0  0  0  0  0  0  0  0  0  0  0
   -3.4081   -2.5791    0.6098 C   0  0  0  0  0  0  0  0  0  0  0  0
   -1.5329   -4.2373    1.0573 C   0  0  0  0  0  0  0  0  0  0  0  0
   -2.1866   -5.4711    0.6114 C   0  0  0  0  0  0  0  0  0  0  0  0
   -2.4282   -6.4948    1.6661 C   0  0  0  0  0  0  0  0  0  0  0  0
   -3.1061   -7.6829    0.9683 C   0  0  0  0  0  0  0  0  0  0  0  0
   -4.2904   -7.1528    0.4320 O   0  0  0  0  0  0  0  0  0  0  0  0
    0.4545    2.4847   -1.8784 H   0  0  0  0  0  0  0  0  0  0  0  0
   -1.2915    2.6373   -2.2496 H   0  0  0  0  0  0  0  0  0  0  0  0
   -0.3453    1.4804   -3.2177 H   0  0  0  0  0  0  0  0  0  0  0  0
    0.4875    1.7126    0.7683 H   0  0  0  0  0  0  0  0  0  0  0  0
    1.0884    0.0277    0.5075 H   0  0  0  0  0  0  0  0  0  0  0  0
   -0.4846    0.3025    1.4154 H   0  0  0  0  0  0  0  0  0  0  0  0
    6.2359   -4.0663    4.2186 H   0  0  0  0  0  0  0  0  0  0  0  0
    4.9417   -2.8824    3.7767 H   0  0  0  0  0  0  0  0  0  0  0  0
    6.5939   -2.5213    3.2862 H   0  0  0  0  0  0  0  0  0  0  0  0
    6.0761   -5.1223    2.1559 H   0  0  0  0  0  0  0  0  0  0  0  0
    6.3029   -3.5787    1.3340 H   0  0  0  0  0  0  0  0  0  0  0  0
    2.4656   -6.5913    3.3203 H   0  0  0  0  0  0  0  0  0  0  0  0
    4.2864   -6.4830    3.2633 H   0  0  0  0  0  0  0  0  0  0  0  0
    4.4290   -5.2955    5.1759 H   0  0  0  0  0  0  0  0  0  0  0  0
    2.6617   -5.7133    5.4324 H   0  0  0  0  0  0  0  0  0  0  0  0
    3.1440   -4.1637    4.6817 H   0  0  0  0  0  0  0  0  0  0  0  0
    0.5794   -5.9004    2.0529 H   0  0  0  0  0  0  0  0  0  0  0  0
   -1.9644   -0.4508    2.3923 H   0  0  0  0  0  0  0  0  0  0  0  0
   -0.4372    2.4847    2.0235 H   0  0  0  0  0  0  0  0  0  0  0  0
   -1.4586    6.3482    2.0911 H   0  0  0  0  0  0  0  0  0  0  0  0
   -1.5885    4.6986    2.7047 H   0  0  0  0  0  0  0  0  0  0  0  0
    0.8337    4.2767    2.6153 H   0  0  0  0  0  0  0  0  0  0  0  0
    0.4374    5.6853    3.5841 H   0  0  0  0  0  0  0  0  0  0  0  0
    1.6916    4.5306    0.4771 H   0  0  0  0  0  0  0  0  0  0  0  0
    0.6314    5.8664   -0.0547 H   0  0  0  0  0  0  0  0  0  0  0  0
    3.6405    6.0768    0.3473 H   0  0  0  0  0  0  0  0  0  0  0  0
    2.7490    5.9737   -1.2003 H   0  0  0  0  0  0  0  0  0  0  0  0
    1.5320    7.8584   -1.9699 H   0  0  0  0  0  0  0  0  0  0  0  0
    0.5006    7.8084   -0.4730 H   0  0  0  0  0  0  0  0  0  0  0  0
    0.6406   10.0804   -1.4226 H   0  0  0  0  0  0  0  0  0  0  0  0
    2.4417    9.9865   -1.2965 H   0  0  0  0  0  0  0  0  0  0  0  0
    0.4368   10.2178    2.1979 H   0  0  0  0  0  0  0  0  0  0  0  0
   -0.5612   10.1757    0.6646 H   0  0  0  0  0  0  0  0  0  0  0  0
    0.2632    8.6522    1.3252 H   0  0  0  0  0  0  0  0  0  0  0  0
   -1.1276    4.0884   -3.7541 H   0  0  0  0  0  0  0  0  0  0  0  0
   -2.0693    5.6073   -3.5010 H   0  0  0  0  0  0  0  0  0  0  0  0
   -4.0817    4.3285   -2.9686 H   0  0  0  0  0  0  0  0  0  0  0  0
   -3.2417    2.7775   -3.0486 H   0  0  0  0  0  0  0  0  0  0  0  0
   -4.7356    3.2175   -6.3643 H   0  0  0  0  0  0  0  0  0  0  0  0
   -4.2299    2.0115   -5.1664 H   0  0  0  0  0  0  0  0  0  0  0  0
   -6.1570    4.3893   -4.7633 H   0  0  0  0  0  0  0  0  0  0  0  0
   -6.6959    2.6970   -5.0855 H   0  0  0  0  0  0  0  0  0  0  0  0
   -7.4576    4.4086   -3.2236 H   0  0  0  0  0  0  0  0  0  0  0  0
   -7.9514    2.8047   -3.7478 H   0  0  0  0  0  0  0  0  0  0  0  0
   -8.9389    3.3035   -1.5319 H   0  0  0  0  0  0  0  0  0  0  0  0
   -7.8244    1.9153   -1.3648 H   0  0  0  0  0  0  0  0  0  0  0  0
   -5.8491    2.3237   -0.1226 H   0  0  0  0  0  0  0  0  0  0  0  0
   -5.1966    3.6967   -1.1474 H   0  0  0  0  0  0  0  0  0  0  0  0
   -5.6047    3.9588    0.5764 H   0  0  0  0  0  0  0  0  0  0  0  0
   -1.2279    1.8766   -2.6741 H   0  0  0  0  0  0  0  0  0  0  0  0
   -0.0807   -0.4820   -3.3476 H   0  0  0  0  0  0  0  0  0  0  0  0
    5.0774   -1.8289    0.1396 H   0  0  0  0  0  0  0  0  0  0  0  0
    5.1171   -1.5659   -4.0676 H   0  0  0  0  0  0  0  0  0  0  0  0
    5.8229   -1.1962   -2.4210 H   0  0  0  0  0  0  0  0  0  0  0  0
    4.6673   -3.9037   -3.3244 H   0  0  0  0  0  0  0  0  0  0  0  0
    5.4006   -3.5582   -1.7438 H   0  0  0  0  0  0  0  0  0  0  0  0
    7.0394   -4.6435   -3.2312 H   0  0  0  0  0  0  0  0  0  0  0  0
    7.5205   -2.9040   -2.8493 H   0  0  0  0  0  0  0  0  0  0  0  0
    7.7042   -3.4942   -5.1147 H   0  0  0  0  0  0  0  0  0  0  0  0
    1.5945   -0.8321   -4.8920 H   0  0  0  0  0  0  0  0  0  0  0  0
    3.2695   -1.4563   -5.1083 H   0  0  0  0  0  0  0  0  0  0  0  0
    3.0280    0.3337   -4.7269 H   0  0  0  0  0  0  0  0  0  0  0  0
   -3.4102   -2.2093   -0.4416 H   0  0  0  0  0  0  0  0  0  0  0  0
   -3.8333   -1.7661    1.2361 H   0  0  0  0  0  0  0  0  0  0  0  0
   -4.1193   -3.4425    0.7040 H   0  0  0  0  0  0  0  0  0  0  0  0
   -1.6484   -5.9099   -0.2835 H   0  0  0  0  0  0  0  0  0  0  0  0
   -3.1919   -5.2022    0.1906 H   0  0  0  0  0  0  0  0  0  0  0  0
   -3.2133   -6.1527    2.4042 H   0  0  0  0  0  0  0  0  0  0  0  0
   -1.5823   -6.8046    2.2685 H   0  0  0  0  0  0  0  0  0  0  0  0
   -3.3807   -8.4792    1.6624 H   0  0  0  0  0  0  0  0  0  0  0  0
   -2.5080   -8.0276    0.0956 H   0  0  0  0  0  0  0  0  0  0  0  0
   -4.4579   -7.4808   -0.4867 H   0  0  0  0  0  0  0  0  0  0  0  0
  2  3  1  0
  3  4  1  0
  3  5  2  0
  6  7  1  0
  7  8  1  0
  7  9  2  0
 10 11  1  0
 11 12  1  0
 12 13  2  0
 13 14  1  0
 14 15  1  0
 13 16  1  0
 16 17  2  0
 17 18  1  0
 18 19  2  0
 19 20  1  0
 20 21  2  0
 21 22  1  0
 22 23  2  0
 23 24  1  0
 24 25  2  0
 25 26  1  0
 26 27  1  0
 27 28  1  0
 28 29  1  0
 29 30  1  0
 30 31  1  0
 31 32  1  0
 32 33  1  0
 33 34  1  0
 34 35  1  0
 35 36  1  0
 25 37  1  0
 37 38  1  0
 38 39  1  0
 39 40  1  0
 40 41  1  0
 41 42  1  0
 42 43  1  0
 43 44  1  0
 44 45  1  0
 45 46  1  0
 46 47  1  0
 47 48  1  0
 37 49  2  0
 49 50  1  0
 50 51  2  0
 51 52  1  0
 52 53  2  0
 53 54  1  0
 54 55  2  0
 55 56  1  0
 56 57  2  0
 57 58  1  0
 55 59  1  0
 59 60  1  0
 60 61  1  0
 61 62  1  0
 62 63  1  0
 59 64  2  0
 64 65  1  0
 20 66  1  0
 66 67  1  0
 66 68  2  0
 68 69  1  0
 69 70  1  0
 70 71  1  0
 71 72  1  0
 57 12  1  0
 58 16  1  0
 68 18  1  0
 50 23  1  0
 64 53  1  0
  2 73  1  0
  2 74  1  0
  2 75  1  0
  6 76  1  0
  6 77  1  0
  6 78  1  0
 10 79  1  0
 10 80  1  0
 10 81  1  0
 11 82  1  0
 11 83  1  0
 14 84  1  0
 14 85  1  0
 15 86  1  0
 15 87  1  0
 15 88  1  0
 17 89  1  0
 21 90  1  0
 24 91  1  0
 27 92  1  0
 27 93  1  0
 28 94  1  0
 28 95  1  0
 30 96  1  0
 30 97  1  0
 31 98  1  0
 31 99  1  0
 33100  1  0
 33101  1  0
 34102  1  0
 34103  1  0
 36104  1  0
 36105  1  0
 36106  1  0
 39107  1  0
 39108  1  0
 40109  1  0
 40110  1  0
 42111  1  0
 42112  1  0
 43113  1  0
 43114  1  0
 45115  1  0
 45116  1  0
 46117  1  0
 46118  1  0
 48119  1  0
 48120  1  0
 48121  1  0
 49122  1  0
 52123  1  0
 56124  1  0
 60125  1  0
 60126  1  0
 61127  1  0
 61128  1  0
 62129  1  0
 62130  1  0
 63131  1  0
 65132  1  0
 65133  1  0
 65134  1  0
 67135  1  0
 67136  1  0
 67137  1  0
 69138  1  0
 69139  1  0
 70140  1  0
 70141  1  0
 71142  1  0
 71143  1  0
 72144  1  0
M  CHG  4   1   3   4  -1   8  -1  58  -1
M  END
$$$$
