@<TRIPOS>MOLECULE
*****
 144 145 0 0 0
SMALL
GASTEIGER

@<TRIPOS>ATOM
      1 GD         -4.6630    1.3654   -0.0285 Gd      1  UNL1        0.0000
      2 C          -0.4254    1.9211   -2.2030 C.3     2  UNL2        0.0000
      3 C          -0.8128    0.8433   -1.2566 C.2     2  UNL2        0.0000
      4 O          -0.6505   -0.4944   -1.5159 O.co2   2  UNL2       -0.5000
      5 O          -1.3199    1.1800   -0.1518 O.co2   2  UNL2       -0.5000
      6 C           0.1785    0.6494    0.5888 C.3     3  UNL3        0.0000
      7 C          -0.6514    0.5281   -0.6423 C.2     3  UNL3        0.0000
      8 O          -0.9812   -0.7609   -1.0431 O.co2   3  UNL3       -0.5000
      9 O          -1.0085    1.5755   -1.2501 O.co2   3  UNL3       -0.5000
     10 C           5.8820   -3.3648    3.4349 C.3     4  UNL4        0.0000
     11 C           5.6774   -4.0676    2.1290 C.3     4  UNL4        0.0000
     12 C           4.2442   -4.0454    1.7832 C.ar    4  UNL4        0.0000
     13 C           3.2759   -4.8478    2.3399 C.ar    4  UNL4        0.0000
     14 C           3.3263   -5.8976    3.3741 C.3     4  UNL4        0.0000
     15 C           3.4223   -5.2537    4.7385 C.3     4  UNL4        0.0000
     16 C           2.1125   -4.4870    1.7220 C.ar    4  UNL4        0.0000
     17 C           0.8041   -4.8910    1.8137 C.2     4  UNL4        0.0000
     18 C          -0.2035   -3.9854    1.5904 C.2     4  UNL4        0.0000
     19 N           0.0431   -2.7052    1.8770 N.2     4  UNL4        0.0000
     20 C          -1.0827   -2.0362    1.5590 C.2     4  UNL4        0.0000
     21 C          -1.0850   -0.6690    1.7658 C.2     4  UNL4        0.0000
     22 N          -0.1065    0.1171    1.2219 N.2     4  UNL4        0.0000
     23 C          -0.4751    1.1846    0.4531 C.ar    4  UNL4        0.0000
     24 C          -0.6305    2.4555    0.9645 C.ar    4  UNL4        0.0000
     25 C          -1.0062    3.5600    0.2301 C.ar    4  UNL4        0.0000
     26 O          -1.1549    4.8015    0.7293 O.3     4  UNL4        0.0000
     27 C          -0.9741    5.3388    1.9825 C.3     4  UNL4        0.0000
     28 C           0.4163    5.3254    2.4908 C.3     4  UNL4        0.0000
     29 O           1.3831    6.0117    1.8170 O.3     4  UNL4        0.0000
     30 C           1.5559    5.6077    0.5263 C.3     4  UNL4        0.0000
     31 C           2.7089    6.3571   -0.1481 C.3     4  UNL4        0.0000
     32 O           2.5529    7.7064   -0.1973 O.3     4  UNL4        0.0000
     33 C           1.4498    8.1578   -0.8838 C.3     4  UNL4        0.0000
     34 C           1.4862    9.6735   -0.8214 C.3     4  UNL4        0.0000
     35 O           1.4503   10.1303    0.4734 O.3     4  UNL4        0.0000
     36 C           0.3279    9.7638    1.1776 C.3     4  UNL4        0.0000
     37 C          -1.2488    3.3739   -1.1391 C.ar    4  UNL4        0.0000
     38 O          -1.6230    4.4909   -1.8230 O.3     4  UNL4        0.0000
     39 C          -1.9580    4.5413   -3.1532 C.3     4  UNL4        0.0000
     40 C          -3.2243    3.7550   -3.5007 C.3     4  UNL4        0.0000
     41 O          -3.5039    3.8351   -4.8416 O.3     4  UNL4        0.0000
     42 C          -4.5616    3.0967   -5.2352 C.3     4  UNL4        0.0000
     43 C          -5.8721    3.3055   -4.6131 C.3     4  UNL4        0.0000
     44 O          -5.9859    3.0634   -3.2292 O.3     4  UNL4        0.0000
     45 C          -7.3168    3.3126   -2.9448 C.3     4  UNL4        0.0000
     46 C          -7.8279    3.0265   -1.5935 C.3     4  UNL4        0.0000
     47 O          -7.2191    3.7087   -0.5860 O.3     4  UNL4        0.0000
     48 C          -5.9056    3.4245   -0.3646 C.3     4  UNL4        0.0000
     49 C          -1.0896    2.1002   -1.6393 C.ar    4  UNL4        0.0000
     50 C          -0.7140    0.9936   -0.9076 C.ar    4  UNL4        0.0000
     51 N          -0.5723   -0.2261   -1.4277 N.2     4  UNL4        0.0000
     52 C           0.3350   -0.5771   -2.3550 C.2     4  UNL4        0.0000
     53 C           1.6269   -1.0058   -2.1218 C.2     4  UNL4        0.0000
     54 N           2.0352   -1.4194   -0.9298 N.2     4  UNL4        0.0000
     55 C           3.3335   -1.7661   -1.0374 C.2     4  UNL4        0.0000
     56 C           4.0986   -2.2436   -0.0026 C.2     4  UNL4        0.0000
     57 C           3.6731   -3.2165    0.8464 C.ar    4  UNL4        0.0000
     58 N           2.3788   -3.5134    0.8374 N.ar    4  UNL4       -1.0000
     59 C           3.7441   -1.5387   -2.4281 C.2     4  UNL4        0.0000
     60 C           5.1018   -1.7892   -2.9906 C.3     4  UNL4        0.0000
     61 C           5.4247   -3.2618   -2.8109 C.3     4  UNL4        0.0000
     62 C           6.8003   -3.5738   -3.3689 C.3     4  UNL4        0.0000
     63 O           6.8400   -3.2686   -4.7278 O.3     4  UNL4        0.0000
     64 C           2.6933   -1.0662   -3.1134 C.2     4  UNL4        0.0000
     65 C           2.6596   -0.6960   -4.5625 C.3     4  UNL4        0.0000
     66 C          -2.0681   -3.0023    1.0449 C.2     4  UNL4        0.0000
     67 C          -3.4081   -2.5791    0.6098 C.3     4  UNL4        0.0000
     68 C          -1.5329   -4.2373    1.0573 C.2     4  UNL4        0.0000
     69 C          -2.1866   -5.4711    0.6114 C.3     4  UNL4        0.0000
     70 C          -2.4282   -6.4948    1.6661 C.3     4  UNL4        0.0000
     71 C          -3.1061   -7.6829    0.9683 C.3     4  UNL4        0.0000
     72 O          -4.2904   -7.1528    0.4320 O.3     4  UNL4        0.0000
     73 H           0.4545    2.4847   -1.8784 H       2  UNL2        0.0000
     74 H          -1.2915    2.6373   -2.2496 H       2  UNL2        0.0000
     75 H          -0.3453    1.4804   -3.2177 H       2  UNL2        0.0000
     76 H           0.4875    1.7126    0.7683 H       3  UNL3        0.0000
     77 H           1.0884    0.0277    0.5075 H       3  UNL3        0.0000
     78 H          -0.4846    0.3025    1.4154 H       3  UNL3        0.0000
     79 H           6.2359   -4.0663    4.2186 H       4  UNL4        0.0000
     80 H           4.9417   -2.8824    3.7767 H       4  UNL4        0.0000
     81 H           6.5939   -2.5213    3.2862 H       4  UNL4        0.0000
     82 H           6.0761   -5.1223    2.1559 H       4  UNL4        0.0000
     83 H           6.3029   -3.5787    1.3340 H       4  UNL4        0.0000
     84 H           2.4656   -6.5913    3.3203 H       4  UNL4        0.0000
     85 H           4.2864   -6.4830    3.2633 H       4  UNL4        0.0000
     86 H           4.4290   -5.2955    5.1759 H       4  UNL4        0.0000
     87 H           2.6617   -5.7133    5.4324 H       4  UNL4        0.0000
     88 H           3.1440   -4.1637    4.6817 H       4  UNL4        0.0000
     89 H           0.5794   -5.9004    2.0529 H       4  UNL4        0.0000
     90 H          -1.9644   -0.4508    2.3923 H       4  UNL4        0.0000
     91 H          -0.4372    2.4847    2.0235 H       4  UNL4        0.0000
     92 H          -1.4586    6.3482    2.0911 H       4  UNL4        0.0000
     93 H          -1.5885    4.6986    2.7047 H       4  UNL4        0.0000
     94 H           0.8337    4.2767    2.6153 H       4  UNL4        0.0000
     95 H           0.4374    5.6853    3.5841 H       4  UNL4        0.0000
     96 H           1.6916    4.5306    0.4771 H       4  UNL4        0.0000
     97 H           0.6314    5.8664   -0.0547 H       4  UNL4        0.0000
     98 H           3.6405    6.0768    0.3473 H       4  UNL4        0.0000
     99 H           2.7490    5.9737   -1.2003 H       4  UNL4        0.0000
    100 H           1.5320    7.8584   -1.9699 H       4  UNL4        0.0000
    101 H           0.5006    7.8084   -0.4730 H       4  UNL4        0.0000
    102 H           0.6406   10.0804   -1.4226 H       4  UNL4        0.0000
    103 H           2.4417    9.9865   -1.2965 H       4  UNL4        0.0000
    104 H           0.4368   10.2178    2.1979 H       4  UNL4        0.0000
    105 H          -0.5612   10.1757    0.6646 H       4  UNL4        0.0000
    106 H           0.2632    8.6522    1.3252 H       4  UNL4        0.0000
    107 H          -1.1276    4.0884   -3.7541 H       4  UNL4        0.0000
    108 H          -2.0693    5.6073   -3.5010 H       4  UNL4        0.0000
    109 H          -4.0817    4.3285   -2.9686 H       4  UNL4        0.0000
    110 H          -3.2417    2.7775   -3.0486 H       4  UNL4        0.0000
    111 H          -4.7356    3.2175   -6.3643 H       4  UNL4        0.0000
    112 H          -4.2299    2.0115   -5.1664 H       4  UNL4        0.0000
    113 H          -6.1570    4.3893   -4.7633 H       4  UNL4        0.0000
    114 H          -6.6959    2.6970   -5.0855 H       4  UNL4        0.0000
    115 H          -7.4576    4.4086   -3.2236 H       4  UNL4        0.0000
    116 H          -7.9514    2.8047   -3.7478 H       4  UNL4        0.0000
    117 H          -8.9389    3.3035   -1.5319 H       4  UNL4        0.0000
    118 H          -7.8244    1.9153   -1.3648 H       4  UNL4        0.0000
    119 H          -5.8491    2.3237   -0.1226 H       4  UNL4        0.0000
    120 H          -5.1966    3.6967   -1.1474 H       4  UNL4        0.0000
    121 H          -5.6047    3.9588    0.5764 H       4  UNL4        0.0000
    122 H          -1.2279    1.8766   -2.6741 H       4  UNL4        0.0000
    123 H          -0.0807   -0.4820   -3.3476 H       4  UNL4        0.0000
    124 H           5.0774   -1.8289    0.1396 H       4  UNL4        0.0000
    125 H           5.1171   -1.5659   -4.0676 H       4  UNL4        0.0000
    126 H           5.8229   -1.1962   -2.4210 H       4  UNL4        0.0000
    127 H           4.6673   -3.9037   -3.3244 H       4  UNL4        0.0000
    128 H           5.4006   -3.5582   -1.7438 H       4  UNL4        0.0000
    129 H           7.0394   -4.6435   -3.2312 H       4  UNL4        0.0000
    130 H           7.5205   -2.9040   -2.8493 H       4  UNL4        0.0000
    131 H           7.7042   -3.4942   -5.1147 H       4  UNL4        0.0000
    132 H           1.5945   -0.8321   -4.8920 H       4  UNL4        0.0000
    133 H           3.2695   -1.4563   -5.1083 H       4  UNL4        0.0000
    134 H           3.0280    0.3337   -4.7269 H       4  UNL4        0.0000
    135 H          -3.4102   -2.2093   -0.4416 H       4  UNL4        0.0000
    136 H          -3.8333   -1.7661    1.2361 H       4  UNL4        0.0000
    137 H          -4.1193   -3.4425    0.7040 H       4  UNL4        0.0000
    138 H          -1.6484   -5.9099   -0.2835 H       4  UNL4        0.0000
    139 H          -3.1919   -5.2022    0.1906 H       4  UNL4        0.0000
    140 H          -3.2133   -6.1527    2.4042 H       4  UNL4        0.0000
    141 H          -1.5823   -6.8046    2.2685 H       4  UNL4        0.0000
    142 H          -3.3807   -8.4792    1.6624 H       4  UNL4        0.0000
    143 H          -2.5080   -8.0276    0.0956 H       4  UNL4        0.0000
    144 H          -4.4579   -7.4808   -0.4867 H       4  UNL4        0.0000
@<TRIPOS>UNITY_ATOM_ATTR
1 1
charge 3
4 1
charge -1
8 1
charge -1
58 1
charge -1
@<TRIPOS>BOND
     1     2     3    1
     2     3     4   ar
     3     3     5   ar
     4     6     7    1
     5     7     8   ar
     6     7     9   ar
     7    10    11    1
     8    11    12    1
     9    12    13   ar
    10    13    14    1
    11    14    15    1
    12    13    16   ar
    13    16    17    2
    14    17    18    1
    15    18    19    2
    16    19    20    1
    17    20    21    2
    18    21    22    1
    19    22    23    2
    20    23    24   ar
    21    24    25   ar
    22    25    26    1
    23    26    27    1
    24    27    28    1
    25    28    29    1
    26    29    30    1
    27    30    31    1
    28    31    32    1
    29    32    33    1
    30    33    34    1
    31    34    35    1
    32    35    36    1
    33    25    37   ar
    34    37    38    1
    35    38    39    1
    36    39    40    1
    37    40    41    1
    38    41    42    1
    39    42    43    1
    40    43    44    1
    41    44    45    1
    42    45    46    1
    43    46    47    1
    44    47    48    1
    45    37    49   ar
    46    49    50   ar
    47    50    51    2
    48    51    52    1
    49    52    53    2
    50    53    54    1
    51    54    55    2
    52    55    56    1
    53    56    57    2
    54    57    58   ar
    55    55    59    1
    56    59    60    1
    57    60    61    1
    58    61    62    1
    59    62    63    1
    60    59    64    2
    61    64    65    1
    62    20    66    1
    63    66    67    1
    64    66    68    2
    65    68    69    1
    66    69    70    1
    67    70    71    1
    68    71    72    1
    69    57    12   ar
    70    58    16   ar
    71    68    18    1
    72    50    23   ar
    73    64    53    1
    74     2    73    1
    75     2    74    1
    76     2    75    1
    77     6    76    1
    78     6    77    1
    79     6    78    1
    80    10    79    1
    81    10    80    1
    82    10    81    1
    83    11    82    1
    84    11    83    1
    85    14    84    1
    86    14    85    1
    87    15    86    1
    88    15    87    1
    89    15    88    1
    90    17    89    1
    91    21    90    1
    92    24    91    1
    93    27    92    1
    94    27    93    1
    95    28    94    1
    96    28    95    1
    97    30    96    1
    98    30    97    1
    99    31    98    1
   100    31    99    1
   101    33   100    1
   102    33   101    1
   103    34   102    1
   104    34   103    1
   105    36   104    1
   106    36   105    1
   107    36   106    1
   108    39   107    1
   109    39   108    1
   110    40   109    1
   111    40   110    1
   112    42   111    1
   113    42   112    1
   114    43   113    1
   115    43   114    1
   116    45   115    1
   117    45   116    1
   118    46   117    1
   119    46   118    1
   120    48   119    1
   121    48   120    1
   122    48   121    1
   123    49   122    1
   124    52   123    1
   125    56   124    1
   126    60   125    1
   127    60   126    1
   128    61   127    1
   129    61   128    1
   130    62   129    1
   131    62   130    1
   132    63   131    1
   133    65   132    1
   134    65   133    1
   135    65   134    1
   136    67   135    1
   137    67   136    1
   138    67   137    1
   139    69   138    1
   140    69   139    1
   141    70   140    1
   142    70   141    1
   143    71   142    1
   144    71   143    1
   145    72   144    1
