
     RDKit          3D

 53 57  0  0  0  0  0  0  0  0999 V2000
   -8.1567    0.2266   -1.9073 C   0  0  0  0  0  0  0  0  0  0  0  0
   -7.2882    0.9580   -1.0582 O   0  0  0  0  0  0  0  0  0  0  0  0
   -5.9718    0.5592   -0.8681 C   0  0  0  0  0  0  0  0  0  0  0  0
   -5.1606    1.3000   -0.0329 C   0  0  0  0  0  0  0  0  0  0  0  0
   -5.7066    2.4183    0.5817 O   0  0  0  0  0  0  0  0  0  0  0  0
   -4.9735    3.2489    1.4548 C   0  0  0  0  0  0  0  0  0  0  0  0
   -3.8448    1.0351    0.2545 C   0  0  0  0  0  0  0  0  0  0  0  0
   -3.2659   -0.0646   -0.3345 C   0  0  0  0  0  0  0  0  0  0  0  0
   -1.9475   -0.3889   -0.0886 C   0  0  0  0  0  0  0  0  0  0  0  0
   -1.2157    0.4385    0.7801 O   0  0  0  0  0  0  0  0  0  0  0  0
    0.1186    0.1459    1.0561 C   0  0  0  0  0  0  0  0  0  0  0  0
    0.4408   -0.6631    2.1194 C   0  0  0  0  0  0  0  0  0  0  0  0
    1.7769   -0.9150    2.3396 C   0  0  0  0  0  0  0  0  0  0  0  0
    2.1344   -1.7285    3.4060 C   0  0  0  0  0  0  0  0  0  0  0  0
    3.4820   -1.9998    3.6512 C   0  0  0  0  0  0  0  0  0  0  0  0
    4.4270   -1.4439    2.8160 C   0  0  0  0  0  0  0  0  0  0  0  0
    4.1138   -0.6250    1.7383 C   0  0  0  0  0  0  0  0  0  0  0  0
    5.1932   -0.1050    0.9405 C   0  0  0  0  0  0  0  0  0  0  0  0
    5.9940    0.5576    1.6855 O   0  0  0  0  0  0  0  0  0  0  0  0
    5.4795   -0.2108   -0.4503 N   0  0  0  0  0  0  0  0  0  0  0  0
    6.6466    0.4121   -1.0219 C   0  0  0  0  0  0  0  0  0  0  0  0
    7.4266   -0.2150   -2.1063 C   0  0  0  0  0  0  0  0  0  0  0  0
    6.6115    1.0087   -2.3776 C   0  0  0  0  0  0  0  0  0  0  0  0
    2.7700   -0.3882    1.5391 C   0  0  0  0  0  0  0  0  0  0  0  0
    2.4175    0.4205    0.4789 C   0  0  0  0  0  0  0  0  0  0  0  0
    1.0868    0.6946    0.2283 C   0  0  0  0  0  0  0  0  0  0  0  0
   -1.3839   -1.5115   -0.6991 C   0  0  0  0  0  0  0  0  0  0  0  0
   -2.1889   -2.2582   -1.5363 C   0  0  0  0  0  0  0  0  0  0  0  0
   -3.4926   -1.9304   -1.7744 N   0  0  0  0  0  0  0  0  0  0  0  0
   -4.0420   -0.8500   -1.1894 C   0  0  0  0  0  0  0  0  0  0  0  0
   -5.3749   -0.5462   -1.4546 C   0  0  0  0  0  0  0  0  0  0  0  0
   -7.9158    0.4260   -2.9752 H   0  0  0  0  0  0  0  0  0  0  0  0
   -9.2206    0.3942   -1.6574 H   0  0  0  0  0  0  0  0  0  0  0  0
   -7.9782   -0.8617   -1.7296 H   0  0  0  0  0  0  0  0  0  0  0  0
   -4.8497    2.8163    2.4657 H   0  0  0  0  0  0  0  0  0  0  0  0
   -5.5447    4.1929    1.5749 H   0  0  0  0  0  0  0  0  0  0  0  0
   -3.9986    3.5316    0.9832 H   0  0  0  0  0  0  0  0  0  0  0  0
   -3.2431    1.6316    0.9075 H   0  0  0  0  0  0  0  0  0  0  0  0
   -0.3166   -1.0788    2.7483 H   0  0  0  0  0  0  0  0  0  0  0  0
    1.3372   -2.1382    4.0318 H   0  0  0  0  0  0  0  0  0  0  0  0
    3.7412   -2.6368    4.4883 H   0  0  0  0  0  0  0  0  0  0  0  0
    5.4520   -1.6962    3.0644 H   0  0  0  0  0  0  0  0  0  0  0  0
    4.7553   -0.7726   -0.9400 H   0  0  0  0  0  0  0  0  0  0  0  0
    7.2505    0.9484   -0.2426 H   0  0  0  0  0  0  0  0  0  0  0  0
    8.5428   -0.1283   -2.1226 H   0  0  0  0  0  0  0  0  0  0  0  0
    7.0852   -1.2008   -2.4938 H   0  0  0  0  0  0  0  0  0  0  0  0
    7.2063    1.9376   -2.5190 H   0  0  0  0  0  0  0  0  0  0  0  0
    5.7297    0.8976   -3.0171 H   0  0  0  0  0  0  0  0  0  0  0  0
    3.1623    0.8453   -0.1620 H   0  0  0  0  0  0  0  0  0  0  0  0
    0.8379    1.3354   -0.6142 H   0  0  0  0  0  0  0  0  0  0  0  0
   -0.3492   -1.7556   -0.4977 H   0  0  0  0  0  0  0  0  0  0  0  0
   -1.7964   -3.1284   -2.0263 H   0  0  0  0  0  0  0  0  0  0  0  0
   -5.9929   -1.1395   -2.1118 H   0  0  0  0  0  0  0  0  0  0  0  0
  1  2  1  0
  2  3  1  0
  3  4  2  0
  4  5  1  0
  5  6  1  0
  4  7  1  0
  7  8  2  0
  8  9  1  0
  9 10  1  0
 10 11  1  0
 11 12  2  0
 12 13  1  0
 13 14  2  0
 14 15  1  0
 15 16  2  0
 16 17  1  0
 17 18  1  0
 18 19  2  0
 18 20  1  0
 20 21  1  0
 21 22  1  0
 22 23  1  0
 17 24  2  0
 24 25  1  0
 25 26  2  0
  9 27  2  0
 27 28  1  0
 28 29  2  0
 29 30  1  0
 30 31  2  0
 31  3  1  0
 30  8  1  0
 26 11  1  0
 24 13  1  0
 23 21  1  0
  1 32  1  0
  1 33  1  0
  1 34  1  0
  6 35  1  0
  6 36  1  0
  6 37  1  0
  7 38  1  0
 12 39  1  0
 14 40  1  0
 15 41  1  0
 16 42  1  0
 20 43  1  0
 21 44  1  0
 22 45  1  0
 22 46  1  0
 23 47  1  0
 23 48  1  0
 25 49  1  0
 26 50  1  0
 27 51  1  0
 28 52  1  0
 31 53  1  0
M  END
$$$$
