@<TRIPOS>MOLECULE
*****
 53 57 0 0 0
SMALL
GASTEIGER

@<TRIPOS>ATOM
      1 C          -8.1567    0.2266   -1.9073 C.3     1  UNL1        0.0790
      2 O          -7.2882    0.9580   -1.0582 O.3     1  UNL1       -0.4914
      3 C          -5.9718    0.5592   -0.8681 C.ar    1  UNL1        0.1635
      4 C          -5.1606    1.3000   -0.0329 C.ar    1  UNL1        0.1623
      5 O          -5.7066    2.4183    0.5817 O.3     1  UNL1       -0.4914
      6 C          -4.9735    3.2489    1.4548 C.3     1  UNL1        0.0790
      7 C          -3.8448    1.0351    0.2545 C.ar    1  UNL1       -0.0036
      8 C          -3.2659   -0.0646   -0.3345 C.ar    1  UNL1        0.0463
      9 C          -1.9475   -0.3889   -0.0886 C.ar    1  UNL1        0.1391
     10 O          -1.2157    0.4385    0.7801 O.3     1  UNL1       -0.4553
     11 C           0.1186    0.1459    1.0561 C.ar    1  UNL1        0.1291
     12 C           0.4408   -0.6631    2.1194 C.ar    1  UNL1       -0.0116
     13 C           1.7769   -0.9150    2.3396 C.ar    1  UNL1       -0.0137
     14 C           2.1344   -1.7285    3.4060 C.ar    1  UNL1       -0.0539
     15 C           3.4820   -1.9998    3.6512 C.ar    1  UNL1       -0.0605
     16 C           4.4270   -1.4439    2.8160 C.ar    1  UNL1       -0.0490
     17 C           4.1138   -0.6250    1.7383 C.ar    1  UNL1        0.0444
     18 C           5.1932   -0.1050    0.9405 C.2     1  UNL1        0.2449
     19 O           5.9940    0.5576    1.6855 O.2     1  UNL1       -0.2702
     20 N           5.4795   -0.2108   -0.4503 N.am    1  UNL1       -0.3085
     21 C           6.6466    0.4121   -1.0219 C.3     1  UNL1        0.0235
     22 C           7.4266   -0.2150   -2.1063 C.3     1  UNL1       -0.0328
     23 C           6.6115    1.0087   -2.3776 C.3     1  UNL1       -0.0328
     24 C           2.7700   -0.3882    1.5391 C.ar    1  UNL1       -0.0056
     25 C           2.4175    0.4205    0.4789 C.ar    1  UNL1       -0.0498
     26 C           1.0868    0.6946    0.2283 C.ar    1  UNL1       -0.0187
     27 C          -1.3839   -1.5115   -0.6991 C.ar    1  UNL1       -0.0006
     28 C          -2.1889   -2.2582   -1.5363 C.ar    1  UNL1        0.0318
     29 N          -3.4926   -1.9304   -1.7744 N.ar    1  UNL1       -0.2546
     30 C          -4.0420   -0.8500   -1.1894 C.ar    1  UNL1        0.0782
     31 C          -5.3749   -0.5462   -1.4546 C.ar    1  UNL1        0.0098
     32 H          -7.9158    0.4260   -2.9752 H       1  UNL1        0.0660
     33 H          -9.2206    0.3942   -1.6574 H       1  UNL1        0.0660
     34 H          -7.9782   -0.8617   -1.7296 H       1  UNL1        0.0660
     35 H          -4.8497    2.8163    2.4657 H       1  UNL1        0.0660
     36 H          -5.5447    4.1929    1.5749 H       1  UNL1        0.0660
     37 H          -3.9986    3.5316    0.9832 H       1  UNL1        0.0660
     38 H          -3.2431    1.6316    0.9075 H       1  UNL1        0.0663
     39 H          -0.3166   -1.0788    2.7483 H       1  UNL1        0.0660
     40 H           1.3372   -2.1382    4.0318 H       1  UNL1        0.0624
     41 H           3.7412   -2.6368    4.4883 H       1  UNL1        0.0618
     42 H           5.4520   -1.6962    3.0644 H       1  UNL1        0.0625
     43 H           4.7553   -0.7726   -0.9400 H       1  UNL1        0.1493
     44 H           7.2505    0.9484   -0.2426 H       1  UNL1        0.0498
     45 H           8.5428   -0.1283   -2.1226 H       1  UNL1        0.0284
     46 H           7.0852   -1.2008   -2.4938 H       1  UNL1        0.0284
     47 H           7.2063    1.9376   -2.5190 H       1  UNL1        0.0284
     48 H           5.7297    0.8976   -3.0171 H       1  UNL1        0.0284
     49 H           3.1623    0.8453   -0.1620 H       1  UNL1        0.0625
     50 H           0.8379    1.3354   -0.6142 H       1  UNL1        0.0654
     51 H          -0.3492   -1.7556   -0.4977 H       1  UNL1        0.0670
     52 H          -1.7964   -3.1284   -2.0263 H       1  UNL1        0.0831
     53 H          -5.9929   -1.1395   -2.1118 H       1  UNL1        0.0677
@<TRIPOS>BOND
     1     1     2    1
     2     2     3    1
     3     3     4   ar
     4     4     5    1
     5     5     6    1
     6     4     7   ar
     7     7     8   ar
     8     8     9   ar
     9     9    10    1
    10    10    11    1
    11    11    12   ar
    12    12    13   ar
    13    13    14   ar
    14    14    15   ar
    15    15    16   ar
    16    16    17   ar
    17    17    18    1
    18    18    19    2
    19    18    20   am
    20    20    21    1
    21    21    22    1
    22    22    23    1
    23    17    24   ar
    24    24    25   ar
    25    25    26   ar
    26     9    27   ar
    27    27    28   ar
    28    28    29   ar
    29    29    30   ar
    30    30    31   ar
    31    31     3   ar
    32    30     8   ar
    33    26    11   ar
    34    24    13   ar
    35    23    21    1
    36     1    32    1
    37     1    33    1
    38     1    34    1
    39     6    35    1
    40     6    36    1
    41     6    37    1
    42     7    38    1
    43    12    39    1
    44    14    40    1
    45    15    41    1
    46    16    42    1
    47    20    43    1
    48    21    44    1
    49    22    45    1
    50    22    46    1
    51    23    47    1
    52    23    48    1
    53    25    49    1
    54    26    50    1
    55    27    51    1
    56    28    52    1
    57    31    53    1
