
     RDKit          3D

 38 40  0  0  0  0  0  0  0  0999 V2000
    4.9736   -1.6373   -1.2771 O   0  0  0  0  0  0  0  0  0  0  0  0
    4.1548   -1.0201   -0.5478 C   0  0  0  0  0  0  0  0  0  0  0  0
    4.6105    0.2026   -0.0354 O   0  0  0  0  0  0  0  0  0  0  0  0
    2.8121   -1.5678   -0.2667 C   0  0  1  0  0  0  0  0  0  0  0  0
    2.8558   -2.5456    0.8871 C   0  0  0  0  0  0  0  0  0  0  0  0
    2.7567   -1.2846    1.7176 C   0  0  0  0  0  0  0  0  0  0  0  0
    2.0408   -0.6854    0.6117 N   0  0  0  0  0  0  0  0  0  0  0  0
    1.0526    0.3043    0.5067 C   0  0  0  0  0  0  0  0  0  0  0  0
    0.6240    0.8580    1.5494 O   0  0  0  0  0  0  0  0  0  0  0  0
    0.5042    0.7154   -0.7600 N   0  0  0  0  0  0  0  0  0  0  0  0
   -0.4921    1.7274   -0.7425 C   0  0  0  0  0  0  0  0  0  0  0  0
   -0.1537    3.0755   -0.8573 C   0  0  0  0  0  0  0  0  0  0  0  0
   -1.0836    4.0887   -0.8332 C   0  0  0  0  0  0  0  0  0  0  0  0
   -0.6303    5.7657   -0.9789 Cl  0  0  0  0  0  0  0  0  0  0  0  0
   -2.4147    3.7758   -0.6898 C   0  0  0  0  0  0  0  0  0  0  0  0
   -2.7750    2.4555   -0.5749 C   0  0  0  0  0  0  0  0  0  0  0  0
   -1.8260    1.4227   -0.5996 C   0  0  0  0  0  0  0  0  0  0  0  0
   -2.2810    0.0517   -0.4776 C   0  0  0  0  0  0  0  0  0  0  0  0
   -1.8623   -0.9227   -1.3441 C   0  0  0  0  0  0  0  0  0  0  0  0
   -2.3364   -2.2233   -1.1608 C   0  0  0  0  0  0  0  0  0  0  0  0
   -3.2051   -2.5468   -0.1418 C   0  0  0  0  0  0  0  0  0  0  0  0
   -3.6207   -1.5547    0.7261 C   0  0  0  0  0  0  0  0  0  0  0  0
   -4.4722   -1.8571    1.7295 F   0  0  0  0  0  0  0  0  0  0  0  0
   -3.1482   -0.2779    0.5372 C   0  0  0  0  0  0  0  0  0  0  0  0
    5.5329    0.5554   -0.2097 H   0  0  0  0  0  0  0  0  0  0  0  0
    2.2458   -1.9203   -1.1510 H   0  0  0  0  0  0  0  0  0  0  0  0
    3.7980   -3.1074    0.9793 H   0  0  0  0  0  0  0  0  0  0  0  0
    1.9260   -3.1377    1.0121 H   0  0  0  0  0  0  0  0  0  0  0  0
    2.1604   -1.3900    2.6461 H   0  0  0  0  0  0  0  0  0  0  0  0
    3.7109   -0.7595    1.8885 H   0  0  0  0  0  0  0  0  0  0  0  0
    0.8789    0.2478   -1.6031 H   0  0  0  0  0  0  0  0  0  0  0  0
    0.9122    3.2861   -0.9696 H   0  0  0  0  0  0  0  0  0  0  0  0
   -3.1994    4.5253   -0.6630 H   0  0  0  0  0  0  0  0  0  0  0  0
   -3.8396    2.1996   -0.4599 H   0  0  0  0  0  0  0  0  0  0  0  0
   -1.1923   -0.7359   -2.1604 H   0  0  0  0  0  0  0  0  0  0  0  0
   -1.9871   -2.9896   -1.8678 H   0  0  0  0  0  0  0  0  0  0  0  0
   -3.5448   -3.5836   -0.0454 H   0  0  0  0  0  0  0  0  0  0  0  0
   -3.4855    0.4896    1.2291 H   0  0  0  0  0  0  0  0  0  0  0  0
  1  2  2  0
  2  3  1  0
  2  4  1  0
  4  5  1  0
  5  6  1  0
  6  7  1  0
  7  8  1  0
  8  9  2  0
  8 10  1  0
 10 11  1  0
 11 12  2  0
 12 13  1  0
 13 14  1  0
 13 15  2  0
 15 16  1  0
 16 17  2  0
 17 18  1  0
 18 19  2  0
 19 20  1  0
 20 21  2  0
 21 22  1  0
 22 23  1  0
 22 24  2  0
  7  4  1  0
 17 11  1  0
 24 18  1  0
  3 25  1  0
  4 26  1  6
  5 27  1  0
  5 28  1  0
  6 29  1  0
  6 30  1  0
 10 31  1  0
 12 32  1  0
 15 33  1  0
 16 34  1  0
 19 35  1  0
 20 36  1  0
 21 37  1  0
 24 38  1  0
M  END
$$$$
