@<TRIPOS>MOLECULE
*****
 38 40 0 0 0
SMALL
GASTEIGER

@<TRIPOS>ATOM
      1 O           4.9736   -1.6373   -1.2771 O.2     1  UNL1       -0.2489
      2 C           4.1548   -1.0201   -0.5478 C.2     1  UNL1        0.3256
      3 O           4.6105    0.2026   -0.0354 O.3     1  UNL1       -0.4793
      4 C           2.8121   -1.5678   -0.2667 C.3     1  UNL1        0.1256
      5 C           2.8558   -2.5456    0.8871 C.3     1  UNL1       -0.0079
      6 C           2.7567   -1.2846    1.7176 C.3     1  UNL1        0.0192
      7 N           2.0408   -0.6854    0.6117 N.am    1  UNL1       -0.2718
      8 C           1.0526    0.3043    0.5067 C.2     1  UNL1        0.3071
      9 O           0.6240    0.8580    1.5494 O.2     1  UNL1       -0.2523
     10 N           0.5042    0.7154   -0.7600 N.am    1  UNL1       -0.2687
     11 C          -0.4921    1.7274   -0.7425 C.ar    1  UNL1        0.0439
     12 C          -0.1537    3.0755   -0.8573 C.ar    1  UNL1       -0.0215
     13 C          -1.0836    4.0887   -0.8332 C.ar    1  UNL1        0.0428
     14 CL         -0.6303    5.7657   -0.9789 Cl      1  UNL1       -0.0835
     15 C          -2.4147    3.7758   -0.6898 C.ar    1  UNL1       -0.0427
     16 C          -2.7750    2.4555   -0.5749 C.ar    1  UNL1       -0.0509
     17 C          -1.8260    1.4227   -0.5996 C.ar    1  UNL1        0.0035
     18 C          -2.2810    0.0517   -0.4776 C.ar    1  UNL1       -0.0134
     19 C          -1.8623   -0.9227   -1.3441 C.ar    1  UNL1       -0.0538
     20 C          -2.3364   -2.2233   -1.1608 C.ar    1  UNL1       -0.0585
     21 C          -3.2051   -2.5468   -0.1418 C.ar    1  UNL1       -0.0264
     22 C          -3.6207   -1.5547    0.7261 C.ar    1  UNL1        0.1240
     23 F          -4.4722   -1.8571    1.7295 F       1  UNL1       -0.2055
     24 C          -3.1482   -0.2779    0.5372 C.ar    1  UNL1       -0.0187
     25 H           5.5329    0.5554   -0.2097 H       1  UNL1        0.2951
     26 H           2.2458   -1.9203   -1.1510 H       1  UNL1        0.0617
     27 H           3.7980   -3.1074    0.9793 H       1  UNL1        0.0304
     28 H           1.9260   -3.1377    1.0121 H       1  UNL1        0.0304
     29 H           2.1604   -1.3900    2.6461 H       1  UNL1        0.0466
     30 H           3.7109   -0.7595    1.8885 H       1  UNL1        0.0466
     31 H           0.8789    0.2478   -1.6031 H       1  UNL1        0.1564
     32 H           0.9122    3.2861   -0.9696 H       1  UNL1        0.0651
     33 H          -3.1994    4.5253   -0.6630 H       1  UNL1        0.0632
     34 H          -3.8396    2.1996   -0.4599 H       1  UNL1        0.0625
     35 H          -1.1923   -0.7359   -2.1604 H       1  UNL1        0.0624
     36 H          -1.9871   -2.9896   -1.8678 H       1  UNL1        0.0619
     37 H          -3.5448   -3.5836   -0.0454 H       1  UNL1        0.0646
     38 H          -3.4855    0.4896    1.2291 H       1  UNL1        0.0652
@<TRIPOS>BOND
     1     1     2    2
     2     2     3    1
     3     2     4    1
     4     4     5    1
     5     5     6    1
     6     6     7    1
     7     7     8   am
     8     8     9    2
     9     8    10   am
    10    10    11    1
    11    11    12   ar
    12    12    13   ar
    13    13    14    1
    14    13    15   ar
    15    15    16   ar
    16    16    17   ar
    17    17    18    1
    18    18    19   ar
    19    19    20   ar
    20    20    21   ar
    21    21    22   ar
    22    22    23    1
    23    22    24   ar
    24     7     4    1
    25    17    11   ar
    26    24    18   ar
    27     3    25    1
    28     4    26    1
    29     5    27    1
    30     5    28    1
    31     6    29    1
    32     6    30    1
    33    10    31    1
    34    12    32    1
    35    15    33    1
    36    16    34    1
    37    19    35    1
    38    20    36    1
    39    21    37    1
    40    24    38    1
