@<TRIPOS>MOLECULE
*****
 48 51 0 0 0
SMALL
GASTEIGER

@<TRIPOS>ATOM
      1 N           7.4279    1.3007    0.3182 N.am    1  UNL1       -0.3252
      2 C           6.1057    0.8897    0.6194 C.2     1  UNL1        0.2452
      3 O           5.7735    0.8044    1.8258 O.2     1  UNL1       -0.2703
      4 C           5.1556    0.5741   -0.4366 C.ar    1  UNL1        0.0817
      5 C           5.5297    0.6707   -1.7727 C.ar    1  UNL1       -0.0459
      6 C           4.6273    0.3711   -2.7588 C.ar    1  UNL1       -0.0574
      7 C           3.3578   -0.0230   -2.4243 C.ar    1  UNL1       -0.0162
      8 C           2.9326   -0.1360   -1.1094 C.ar    1  UNL1        0.1637
      9 C           3.8700    0.1744   -0.1362 C.ar    1  UNL1        0.1742
     10 O           3.4433    0.0613    1.1980 O.3     1  UNL1       -0.4835
     11 C           2.0821   -0.1475    1.5261 C.3     1  UNL1        0.1308
     12 C           1.5240   -1.1279    0.5474 C.3     1  UNL1        0.1605
     13 C           0.1233   -1.5186    0.8289 C.ar    1  UNL1        0.0144
     14 C          -0.1391   -2.7531    1.3873 C.ar    1  UNL1        0.0344
     15 N          -1.3610   -3.1941    1.6763 N.ar    1  UNL1       -0.2625
     16 C          -2.4134   -2.4135    1.4198 C.ar    1  UNL1        0.0335
     17 C          -2.2090   -1.1628    0.8589 C.ar    1  UNL1        0.0023
     18 C          -3.4329   -0.3598    0.6055 C.3     1  UNL1        0.0923
     19 O          -4.0651   -0.1606    1.8466 O.3     1  UNL1       -0.3839
     20 C          -3.1284    0.9890    0.0005 C.3     1  UNL1       -0.0198
     21 C          -4.4295    1.7994    0.0599 C.3     1  UNL1       -0.0501
     22 C          -5.4974    1.0923   -0.7064 C.3     1  UNL1       -0.0529
     23 C          -5.0080   -0.2093   -1.3144 C.3     1  UNL1       -0.0501
     24 C          -4.3938   -1.1052   -0.2877 C.3     1  UNL1       -0.0198
     25 C          -0.9481   -0.7014    0.5580 C.ar    1  UNL1       -0.0462
     26 O           1.6515   -0.5334   -0.7534 O.3     1  UNL1       -0.4771
     27 H           8.2629    0.9808    0.8802 H       1  UNL1        0.1453
     28 H           7.6151    1.9447   -0.4850 H       1  UNL1        0.1453
     29 H           6.5521    0.9890   -1.9876 H       1  UNL1        0.0626
     30 H           4.9244    0.4483   -3.7820 H       1  UNL1        0.0619
     31 H           2.6350   -0.2626   -3.1933 H       1  UNL1        0.0655
     32 H           2.0590   -0.6134    2.5439 H       1  UNL1        0.0738
     33 H           1.5124    0.7900    1.5970 H       1  UNL1        0.0738
     34 H           2.1624   -2.0349    0.5719 H       1  UNL1        0.0820
     35 H           0.7112   -3.4148    1.6081 H       1  UNL1        0.0833
     36 H          -3.3920   -2.7998    1.6656 H       1  UNL1        0.0833
     37 H          -3.3506    0.0763    2.4858 H       1  UNL1        0.2106
     38 H          -2.3373    1.5064    0.5819 H       1  UNL1        0.0296
     39 H          -2.8237    0.8263   -1.0461 H       1  UNL1        0.0296
     40 H          -4.2304    2.8251   -0.3062 H       1  UNL1        0.0266
     41 H          -4.7185    1.8105    1.1364 H       1  UNL1        0.0266
     42 H          -5.8610    1.7220   -1.5455 H       1  UNL1        0.0265
     43 H          -6.3732    0.8272   -0.0521 H       1  UNL1        0.0265
     44 H          -5.9025   -0.7073   -1.7463 H       1  UNL1        0.0266
     45 H          -4.3113   -0.0223   -2.1542 H       1  UNL1        0.0266
     46 H          -3.7820   -1.8928   -0.8091 H       1  UNL1        0.0296
     47 H          -5.1343   -1.6271    0.3314 H       1  UNL1        0.0296
     48 H          -0.7960    0.2559    0.1287 H       1  UNL1        0.0626
@<TRIPOS>BOND
     1     1     2   am
     2     2     3    2
     3     2     4    1
     4     4     5   ar
     5     5     6   ar
     6     6     7   ar
     7     7     8   ar
     8     8     9   ar
     9     9    10    1
    10    10    11    1
    11    11    12    1
    12    12    13    1
    13    13    14   ar
    14    14    15   ar
    15    15    16   ar
    16    16    17   ar
    17    17    18    1
    18    18    19    1
    19    18    20    1
    20    20    21    1
    21    21    22    1
    22    22    23    1
    23    23    24    1
    24    17    25   ar
    25    12    26    1
    26     9     4   ar
    27    25    13   ar
    28    26     8    1
    29    24    18    1
    30     1    27    1
    31     1    28    1
    32     5    29    1
    33     6    30    1
    34     7    31    1
    35    11    32    1
    36    11    33    1
    37    12    34    1
    38    14    35    1
    39    16    36    1
    40    19    37    1
    41    20    38    1
    42    20    39    1
    43    21    40    1
    44    21    41    1
    45    22    42    1
    46    22    43    1
    47    23    44    1
    48    23    45    1
    49    24    46    1
    50    24    47    1
    51    25    48    1
