
     RDKit          3D

 48 51  0  0  0  0  0  0  0  0999 V2000
    7.4279    1.3007    0.3182 N   0  0  0  0  0  0  0  0  0  0  0  0
    6.1057    0.8897    0.6194 C   0  0  0  0  0  0  0  0  0  0  0  0
    5.7735    0.8044    1.8258 O   0  0  0  0  0  0  0  0  0  0  0  0
    5.1556    0.5741   -0.4366 C   0  0  0  0  0  0  0  0  0  0  0  0
    5.5297    0.6707   -1.7727 C   0  0  0  0  0  0  0  0  0  0  0  0
    4.6273    0.3711   -2.7588 C   0  0  0  0  0  0  0  0  0  0  0  0
    3.3578   -0.0230   -2.4243 C   0  0  0  0  0  0  0  0  0  0  0  0
    2.9326   -0.1360   -1.1094 C   0  0  0  0  0  0  0  0  0  0  0  0
    3.8700    0.1744   -0.1362 C   0  0  0  0  0  0  0  0  0  0  0  0
    3.4433    0.0613    1.1980 O   0  0  0  0  0  0  0  0  0  0  0  0
    2.0821   -0.1475    1.5261 C   0  0  0  0  0  0  0  0  0  0  0  0
    1.5240   -1.1279    0.5474 C   0  0  0  0  0  0  0  0  0  0  0  0
    0.1233   -1.5186    0.8289 C   0  0  0  0  0  0  0  0  0  0  0  0
   -0.1391   -2.7531    1.3873 C   0  0  0  0  0  0  0  0  0  0  0  0
   -1.3610   -3.1941    1.6763 N   0  0  0  0  0  0  0  0  0  0  0  0
   -2.4134   -2.4135    1.4198 C   0  0  0  0  0  0  0  0  0  0  0  0
   -2.2090   -1.1628    0.8589 C   0  0  0  0  0  0  0  0  0  0  0  0
   -3.4329   -0.3598    0.6055 C   0  0  0  0  0  0  0  0  0  0  0  0
   -4.0651   -0.1606    1.8466 O   0  0  0  0  0  0  0  0  0  0  0  0
   -3.1284    0.9890    0.0005 C   0  0  0  0  0  0  0  0  0  0  0  0
   -4.4295    1.7994    0.0599 C   0  0  0  0  0  0  0  0  0  0  0  0
   -5.4974    1.0923   -0.7064 C   0  0  0  0  0  0  0  0  0  0  0  0
   -5.0080   -0.2093   -1.3144 C   0  0  0  0  0  0  0  0  0  0  0  0
   -4.3938   -1.1052   -0.2877 C   0  0  0  0  0  0  0  0  0  0  0  0
   -0.9481   -0.7014    0.5580 C   0  0  0  0  0  0  0  0  0  0  0  0
    1.6515   -0.5334   -0.7534 O   0  0  0  0  0  0  0  0  0  0  0  0
    8.2629    0.9808    0.8802 H   0  0  0  0  0  0  0  0  0  0  0  0
    7.6151    1.9447   -0.4850 H   0  0  0  0  0  0  0  0  0  0  0  0
    6.5521    0.9890   -1.9876 H   0  0  0  0  0  0  0  0  0  0  0  0
    4.9244    0.4483   -3.7820 H   0  0  0  0  0  0  0  0  0  0  0  0
    2.6350   -0.2626   -3.1933 H   0  0  0  0  0  0  0  0  0  0  0  0
    2.0590   -0.6134    2.5439 H   0  0  0  0  0  0  0  0  0  0  0  0
    1.5124    0.7900    1.5970 H   0  0  0  0  0  0  0  0  0  0  0  0
    2.1624   -2.0349    0.5719 H   0  0  0  0  0  0  0  0  0  0  0  0
    0.7112   -3.4148    1.6081 H   0  0  0  0  0  0  0  0  0  0  0  0
   -3.3920   -2.7998    1.6656 H   0  0  0  0  0  0  0  0  0  0  0  0
   -3.3506    0.0763    2.4858 H   0  0  0  0  0  0  0  0  0  0  0  0
   -2.3373    1.5064    0.5819 H   0  0  0  0  0  0  0  0  0  0  0  0
   -2.8237    0.8263   -1.0461 H   0  0  0  0  0  0  0  0  0  0  0  0
   -4.2304    2.8251   -0.3062 H   0  0  0  0  0  0  0  0  0  0  0  0
   -4.7185    1.8105    1.1364 H   0  0  0  0  0  0  0  0  0  0  0  0
   -5.8610    1.7220   -1.5455 H   0  0  0  0  0  0  0  0  0  0  0  0
   -6.3732    0.8272   -0.0521 H   0  0  0  0  0  0  0  0  0  0  0  0
   -5.9025   -0.7073   -1.7463 H   0  0  0  0  0  0  0  0  0  0  0  0
   -4.3113   -0.0223   -2.1542 H   0  0  0  0  0  0  0  0  0  0  0  0
   -3.7820   -1.8928   -0.8091 H   0  0  0  0  0  0  0  0  0  0  0  0
   -5.1343   -1.6271    0.3314 H   0  0  0  0  0  0  0  0  0  0  0  0
   -0.7960    0.2559    0.1287 H   0  0  0  0  0  0  0  0  0  0  0  0
  1  2  1  0
  2  3  2  0
  2  4  1  0
  4  5  2  0
  5  6  1  0
  6  7  2  0
  7  8  1  0
  8  9  2  0
  9 10  1  0
 10 11  1  0
 11 12  1  0
 12 13  1  0
 13 14  2  0
 14 15  1  0
 15 16  2  0
 16 17  1  0
 17 18  1  0
 18 19  1  0
 18 20  1  0
 20 21  1  0
 21 22  1  0
 22 23  1  0
 23 24  1  0
 17 25  2  0
 12 26  1  0
  9  4  1  0
 25 13  1  0
 26  8  1  0
 24 18  1  0
  1 27  1  0
  1 28  1  0
  5 29  1  0
  6 30  1  0
  7 31  1  0
 11 32  1  0
 11 33  1  0
 12 34  1  0
 14 35  1  0
 16 36  1  0
 19 37  1  0
 20 38  1  0
 20 39  1  0
 21 40  1  0
 21 41  1  0
 22 42  1  0
 22 43  1  0
 23 44  1  0
 23 45  1  0
 24 46  1  0
 24 47  1  0
 25 48  1  0
M  END
$$$$
