
     RDKit          3D

 62 65  0  0  0  0  0  0  0  0999 V2000
    7.4046   -1.0673    0.6659 C   0  0  0  0  0  0  0  0  0  0  0  0
    6.6820   -0.5756    2.1961 S   0  0  0  0  0  6  0  0  0  0  0  0
    6.9526    0.8881    2.4479 O   0  0  0  0  0  0  0  0  0  0  0  0
    7.2723   -1.3131    3.3609 O   0  0  0  0  0  0  0  0  0  0  0  0
    4.9817   -0.7917    2.0996 N   0  0  0  0  0  0  0  0  0  0  0  0
    4.4595    0.0561    1.0413 C   0  0  0  0  0  0  0  0  0  0  0  0
    2.9779   -0.1691    0.9992 C   0  0  0  0  0  0  0  0  0  0  0  0
    2.2575    0.6362   -0.0448 C   0  0  0  0  0  0  0  0  0  0  0  0
    0.8274    0.3057    0.0390 N   0  0  0  0  0  0  0  0  0  0  0  0
   -0.1343    1.2461    0.5063 C   0  0  0  0  0  0  0  0  0  0  0  0
    0.2367    2.3890    0.8583 O   0  0  0  0  0  0  0  0  0  0  0  0
   -1.5804    0.9115    0.5925 C   0  0  0  0  0  0  0  0  0  0  0  0
   -2.2492    2.0623    1.1676 N   0  0  0  0  0  0  0  0  0  0  0  0
   -1.7444   -0.2435    1.5501 C   0  0  0  0  0  0  0  0  0  0  0  0
   -3.0288   -0.9862    1.4622 C   0  0  0  0  0  0  0  0  0  0  0  0
   -3.6263   -0.9705    0.1510 N   0  0  0  0  0  0  0  0  0  0  0  0
   -4.9590   -1.1249   -0.1843 C   0  0  0  0  0  0  0  0  0  0  0  0
   -5.4014   -2.1183   -0.9694 N   0  0  0  0  0  0  0  0  0  0  0  0
   -6.7014   -2.2738   -1.2954 C   0  0  0  0  0  0  0  0  0  0  0  0
   -7.6256   -1.4150   -0.8339 N   0  0  0  0  0  0  0  0  0  0  0  0
   -7.2583   -0.3986   -0.0455 C   0  0  0  0  0  0  0  0  0  0  0  0
   -7.9274    0.6112    0.5667 N   0  0  0  0  0  0  0  0  0  0  0  0
   -7.0561    1.3875    1.2674 C   0  0  0  0  0  0  0  0  0  0  0  0
   -5.8031    0.8538    1.0921 C   0  0  0  0  0  0  0  0  0  0  0  0
   -5.9128   -0.2493    0.2845 C   0  0  0  0  0  0  0  0  0  0  0  0
   -2.6587   -0.7664   -0.9441 C   0  0  0  0  0  0  0  0  0  0  0  0
   -2.1934    0.6603   -0.7437 C   0  0  0  0  0  0  0  0  0  0  0  0
    2.7893    0.5191   -1.4006 C   0  0  0  0  0  0  0  0  0  0  0  0
    2.5027   -0.5675   -2.2017 C   0  0  0  0  0  0  0  0  0  0  0  0
    3.0168   -0.6347   -3.4611 C   0  0  0  0  0  0  0  0  0  0  0  0
    3.8221    0.3547   -3.9708 C   0  0  0  0  0  0  0  0  0  0  0  0
    4.4485    0.2019   -5.6141 Cl  0  0  0  0  0  0  0  0  0  0  0  0
    4.1080    1.4356   -3.1778 C   0  0  0  0  0  0  0  0  0  0  0  0
    3.5955    1.5189   -1.8988 C   0  0  0  0  0  0  0  0  0  0  0  0
    8.4949   -0.8546    0.6485 H   0  0  0  0  0  0  0  0  0  0  0  0
    7.2114   -2.1632    0.5476 H   0  0  0  0  0  0  0  0  0  0  0  0
    6.8793   -0.5599   -0.1577 H   0  0  0  0  0  0  0  0  0  0  0  0
    4.6949   -1.7739    1.9946 H   0  0  0  0  0  0  0  0  0  0  0  0
    4.8861   -0.3193    0.0885 H   0  0  0  0  0  0  0  0  0  0  0  0
    4.6517    1.1163    1.2233 H   0  0  0  0  0  0  0  0  0  0  0  0
    2.5708    0.1979    1.9876 H   0  0  0  0  0  0  0  0  0  0  0  0
    2.7110   -1.2589    0.9794 H   0  0  0  0  0  0  0  0  0  0  0  0
    2.3453    1.7082    0.2993 H   0  0  0  0  0  0  0  0  0  0  0  0
    0.4507   -0.6254   -0.2356 H   0  0  0  0  0  0  0  0  0  0  0  0
   -2.2803    1.9274    2.1993 H   0  0  0  0  0  0  0  0  0  0  0  0
   -1.7687    2.9618    0.9717 H   0  0  0  0  0  0  0  0  0  0  0  0
   -0.9090   -0.9589    1.2861 H   0  0  0  0  0  0  0  0  0  0  0  0
   -1.5032    0.0805    2.5851 H   0  0  0  0  0  0  0  0  0  0  0  0
   -3.7057   -0.7122    2.2859 H   0  0  0  0  0  0  0  0  0  0  0  0
   -2.8110   -2.0818    1.6523 H   0  0  0  0  0  0  0  0  0  0  0  0
   -7.0185   -3.0790   -1.9250 H   0  0  0  0  0  0  0  0  0  0  0  0
   -8.9415    0.8013    0.5344 H   0  0  0  0  0  0  0  0  0  0  0  0
   -7.2510    2.2634    1.8612 H   0  0  0  0  0  0  0  0  0  0  0  0
   -4.8794    1.2094    1.4994 H   0  0  0  0  0  0  0  0  0  0  0  0
   -1.8042   -1.4527   -0.8199 H   0  0  0  0  0  0  0  0  0  0  0  0
   -3.1404   -0.8156   -1.9265 H   0  0  0  0  0  0  0  0  0  0  0  0
   -1.4898    0.9873   -1.5310 H   0  0  0  0  0  0  0  0  0  0  0  0
   -3.0934    1.2888   -0.8594 H   0  0  0  0  0  0  0  0  0  0  0  0
    1.8741   -1.3531   -1.8222 H   0  0  0  0  0  0  0  0  0  0  0  0
    2.7649   -1.5193   -4.0653 H   0  0  0  0  0  0  0  0  0  0  0  0
    4.7536    2.2322   -3.5805 H   0  0  0  0  0  0  0  0  0  0  0  0
    3.8330    2.3813   -1.2837 H   0  0  0  0  0  0  0  0  0  0  0  0
  1  2  1  0
  2  3  2  0
  2  4  2  0
  2  5  1  0
  5  6  1  0
  6  7  1  0
  7  8  1  0
  8  9  1  0
  9 10  1  0
 10 11  2  0
 10 12  1  0
 12 13  1  0
 12 14  1  0
 14 15  1  0
 15 16  1  0
 16 17  1  0
 17 18  2  0
 18 19  1  0
 19 20  2  0
 20 21  1  0
 21 22  1  0
 22 23  1  0
 23 24  2  0
 24 25  1  0
 16 26  1  0
 26 27  1  0
  8 28  1  0
 28 29  2  0
 29 30  1  0
 30 31  2  0
 31 32  1  0
 31 33  1  0
 33 34  2  0
 27 12  1  0
 34 28  1  0
 25 17  1  0
 25 21  2  0
  1 35  1  0
  1 36  1  0
  1 37  1  0
  5 38  1  0
  6 39  1  0
  6 40  1  0
  7 41  1  0
  7 42  1  0
  8 43  1  0
  9 44  1  0
 13 45  1  0
 13 46  1  0
 14 47  1  0
 14 48  1  0
 15 49  1  0
 15 50  1  0
 19 51  1  0
 22 52  1  0
 23 53  1  0
 24 54  1  0
 26 55  1  0
 26 56  1  0
 27 57  1  0
 27 58  1  0
 29 59  1  0
 30 60  1  0
 33 61  1  0
 34 62  1  0
M  END
$$$$
