@<TRIPOS>MOLECULE
*****
 62 65 0 0 0
SMALL
GASTEIGER

@<TRIPOS>ATOM
      1 C           7.4046   -1.0673    0.6659 C.3     1  UNL1        0.0705
      2 S           6.6820   -0.5756    2.1961 S.O2    1  UNL1        0.0265
      3 O           6.9526    0.8881    2.4479 O.2     1  UNL1       -0.1585
      4 O           7.2723   -1.3131    3.3609 O.2     1  UNL1       -0.1585
      5 N           4.9817   -0.7917    2.0996 N.3     1  UNL1       -0.1947
      6 C           4.4595    0.0561    1.0413 C.3     1  UNL1        0.0190
      7 C           2.9779   -0.1691    0.9992 C.3     1  UNL1       -0.0161
      8 C           2.2575    0.6362   -0.0448 C.3     1  UNL1        0.0496
      9 N           0.8274    0.3057    0.0390 N.am    1  UNL1       -0.3069
     10 C          -0.1343    1.2461    0.5063 C.2     1  UNL1        0.2336
     11 O           0.2367    2.3890    0.8583 O.2     1  UNL1       -0.2738
     12 C          -1.5804    0.9115    0.5925 C.3     1  UNL1        0.0965
     13 N          -2.2492    2.0623    1.1676 N.3     1  UNL1       -0.3173
     14 C          -1.7444   -0.2435    1.5501 C.3     1  UNL1       -0.0104
     15 C          -3.0288   -0.9862    1.4622 C.3     1  UNL1        0.0156
     16 N          -3.6263   -0.9705    0.1510 N.pl3   1  UNL1       -0.3144
     17 C          -4.9590   -1.1249   -0.1843 C.ar    1  UNL1        0.1337
     18 N          -5.4014   -2.1183   -0.9694 N.ar    1  UNL1       -0.2200
     19 C          -6.7014   -2.2738   -1.2954 C.ar    1  UNL1        0.1204
     20 N          -7.6256   -1.4150   -0.8339 N.ar    1  UNL1       -0.2178
     21 C          -7.2583   -0.3986   -0.0455 C.ar    1  UNL1        0.1432
     22 N          -7.9274    0.6112    0.5667 N.ar    1  UNL1       -0.3457
     23 C          -7.0561    1.3875    1.2674 C.ar    1  UNL1        0.0042
     24 C          -5.8031    0.8538    1.0921 C.ar    1  UNL1       -0.0318
     25 C          -5.9128   -0.2493    0.2845 C.ar    1  UNL1        0.0585
     26 C          -2.6587   -0.7664   -0.9441 C.3     1  UNL1        0.0156
     27 C          -2.1934    0.6603   -0.7437 C.3     1  UNL1       -0.0104
     28 C           2.7893    0.5191   -1.4006 C.ar    1  UNL1       -0.0271
     29 C           2.5027   -0.5675   -2.2017 C.ar    1  UNL1       -0.0554
     30 C           3.0168   -0.6347   -3.4611 C.ar    1  UNL1       -0.0431
     31 C           3.8221    0.3547   -3.9708 C.ar    1  UNL1        0.0410
     32 CL          4.4485    0.2019   -5.6141 Cl      1  UNL1       -0.0835
     33 C           4.1080    1.4356   -3.1778 C.ar    1  UNL1       -0.0431
     34 C           3.5955    1.5189   -1.8988 C.ar    1  UNL1       -0.0554
     35 H           8.4949   -0.8546    0.6485 H       1  UNL1        0.0479
     36 H           7.2114   -2.1632    0.5476 H       1  UNL1        0.0479
     37 H           6.8793   -0.5599   -0.1577 H       1  UNL1        0.0479
     38 H           4.6949   -1.7739    1.9946 H       1  UNL1        0.1476
     39 H           4.8861   -0.3193    0.0885 H       1  UNL1        0.0442
     40 H           4.6517    1.1163    1.2233 H       1  UNL1        0.0442
     41 H           2.5708    0.1979    1.9876 H       1  UNL1        0.0299
     42 H           2.7110   -1.2589    0.9794 H       1  UNL1        0.0299
     43 H           2.3453    1.7082    0.2993 H       1  UNL1        0.0549
     44 H           0.4507   -0.6254   -0.2356 H       1  UNL1        0.1493
     45 H          -2.2803    1.9274    2.1993 H       1  UNL1        0.1192
     46 H          -1.7687    2.9618    0.9717 H       1  UNL1        0.1192
     47 H          -0.9090   -0.9589    1.2861 H       1  UNL1        0.0303
     48 H          -1.5032    0.0805    2.5851 H       1  UNL1        0.0303
     49 H          -3.7057   -0.7122    2.2859 H       1  UNL1        0.0465
     50 H          -2.8110   -2.0818    1.6523 H       1  UNL1        0.0465
     51 H          -7.0185   -3.0790   -1.9250 H       1  UNL1        0.1048
     52 H          -8.9415    0.8013    0.5344 H       1  UNL1        0.1668
     53 H          -7.2510    2.2634    1.8612 H       1  UNL1        0.0807
     54 H          -4.8794    1.2094    1.4994 H       1  UNL1        0.0640
     55 H          -1.8042   -1.4527   -0.8199 H       1  UNL1        0.0465
     56 H          -3.1404   -0.8156   -1.9265 H       1  UNL1        0.0465
     57 H          -1.4898    0.9873   -1.5310 H       1  UNL1        0.0303
     58 H          -3.0934    1.2888   -0.8594 H       1  UNL1        0.0303
     59 H           1.8741   -1.3531   -1.8222 H       1  UNL1        0.0621
     60 H           2.7649   -1.5193   -4.0653 H       1  UNL1        0.0632
     61 H           4.7536    2.2322   -3.5805 H       1  UNL1        0.0632
     62 H           3.8330    2.3813   -1.2837 H       1  UNL1        0.0621
@<TRIPOS>BOND
     1     1     2    1
     2     2     3    2
     3     2     4    2
     4     2     5    1
     5     5     6    1
     6     6     7    1
     7     7     8    1
     8     8     9    1
     9     9    10   am
    10    10    11    2
    11    10    12    1
    12    12    13    1
    13    12    14    1
    14    14    15    1
    15    15    16    1
    16    16    17    1
    17    17    18   ar
    18    18    19   ar
    19    19    20   ar
    20    20    21   ar
    21    21    22   ar
    22    22    23   ar
    23    23    24   ar
    24    24    25   ar
    25    16    26    1
    26    26    27    1
    27     8    28    1
    28    28    29   ar
    29    29    30   ar
    30    30    31   ar
    31    31    32    1
    32    31    33   ar
    33    33    34   ar
    34    27    12    1
    35    34    28   ar
    36    25    17   ar
    37    25    21   ar
    38     1    35    1
    39     1    36    1
    40     1    37    1
    41     5    38    1
    42     6    39    1
    43     6    40    1
    44     7    41    1
    45     7    42    1
    46     8    43    1
    47     9    44    1
    48    13    45    1
    49    13    46    1
    50    14    47    1
    51    14    48    1
    52    15    49    1
    53    15    50    1
    54    19    51    1
    55    22    52    1
    56    23    53    1
    57    24    54    1
    58    26    55    1
    59    26    56    1
    60    27    57    1
    61    27    58    1
    62    29    59    1
    63    30    60    1
    64    33    61    1
    65    34    62    1
