@<TRIPOS>MOLECULE
*****
 49 52 0 0 0
SMALL
GASTEIGER

@<TRIPOS>ATOM
      1 C          -1.5586    0.8298   -1.7477 C.3     1  UNL1       -0.0352
      2 C          -1.9371   -0.0362   -0.5561 C.3     1  UNL1        0.0950
      3 C          -0.7296   -0.5211    0.1610 C.ar    1  UNL1        0.0168
      4 C           0.5366   -0.1555   -0.1533 C.ar    1  UNL1       -0.0323
      5 C           1.6615   -0.6254    0.5370 C.ar    1  UNL1        0.0342
      6 N           2.9416   -0.1749    0.1206 N.am    1  UNL1       -0.2815
      7 C           4.1790   -0.5347    0.6881 C.2     1  UNL1        0.2483
      8 O           4.2255   -1.3189    1.6493 O.2     1  UNL1       -0.2699
      9 C           5.4709   -0.0213    0.1962 C.ar    1  UNL1        0.0371
     10 C           6.6551   -0.4145    0.7986 C.ar    1  UNL1       -0.0482
     11 C           7.8884    0.0321    0.3822 C.ar    1  UNL1       -0.0427
     12 C           7.9807    0.9094   -0.6780 C.ar    1  UNL1        0.0410
     13 CL          9.5593    1.4901   -1.2221 Cl      1  UNL1       -0.0835
     14 C           6.8242    1.3206   -1.2995 C.ar    1  UNL1       -0.0427
     15 C           5.5810    0.8501   -0.8549 C.ar    1  UNL1       -0.0482
     16 C           1.4312   -1.4940    1.5726 C.ar    1  UNL1       -0.0377
     17 C           0.1460   -1.8906    1.9228 C.ar    1  UNL1       -0.0243
     18 C          -0.9294   -1.4039    1.2172 C.ar    1  UNL1        0.1290
     19 F          -2.1619   -1.8186    1.5949 F       1  UNL1       -0.2051
     20 C          -2.8084    0.7856    0.3372 C.3     1  UNL1        0.0166
     21 C          -4.2609    0.5038    0.2371 C.3     1  UNL1        0.1160
     22 C          -5.0216    1.0437    1.4537 C.3     1  UNL1       -0.0126
     23 C          -6.1621    1.3409    0.4863 C.3     1  UNL1       -0.0458
     24 C          -5.0822    1.4652   -0.5966 C.3     1  UNL1       -0.0126
     25 O          -4.5732   -0.8459    0.0003 O.2     1  UNL1       -0.4592
     26 C          -3.7834   -1.5681   -0.8480 C.2     1  UNL1        0.2765
     27 N          -4.3027   -2.7516   -1.4618 N.pl3   1  UNL1       -0.3133
     28 N          -2.5999   -1.2044   -1.0978 N.2     1  UNL1       -0.2257
     29 H          -2.5196    1.1622   -2.2033 H       1  UNL1        0.0256
     30 H          -1.0292    0.2131   -2.5226 H       1  UNL1        0.0256
     31 H          -1.0015    1.7266   -1.4688 H       1  UNL1        0.0256
     32 H           0.6679    0.5272   -0.9726 H       1  UNL1        0.0640
     33 H           2.9491    0.4994   -0.7011 H       1  UNL1        0.1551
     34 H           6.5978   -1.1142    1.6458 H       1  UNL1        0.0625
     35 H           8.8128   -0.2774    0.8556 H       1  UNL1        0.0632
     36 H           6.8724    2.0124   -2.1379 H       1  UNL1        0.0632
     37 H           4.6897    1.1852   -1.3560 H       1  UNL1        0.0625
     38 H           2.2485   -1.9044    2.1583 H       1  UNL1        0.0637
     39 H          -0.0059   -2.5814    2.7498 H       1  UNL1        0.0647
     40 H          -2.4477    0.6591    1.3997 H       1  UNL1        0.0330
     41 H          -2.6658    1.8896    0.1432 H       1  UNL1        0.0330
     42 H          -5.2472    0.2835    2.2185 H       1  UNL1        0.0304
     43 H          -4.5818    1.9891    1.8299 H       1  UNL1        0.0304
     44 H          -6.7644    0.4263    0.3631 H       1  UNL1        0.0268
     45 H          -6.7065    2.2753    0.6917 H       1  UNL1        0.0268
     46 H          -5.3941    1.0885   -1.5826 H       1  UNL1        0.0304
     47 H          -4.6689    2.4920   -0.5800 H       1  UNL1        0.0304
     48 H          -4.4418   -2.7663   -2.4930 H       1  UNL1        0.1466
     49 H          -4.5339   -3.5777   -0.8771 H       1  UNL1        0.1466
@<TRIPOS>BOND
     1     2     1    1
     2     2     3    1
     3     3     4   ar
     4     4     5   ar
     5     5     6    1
     6     6     7   am
     7     7     8    2
     8     7     9    1
     9     9    10   ar
    10    10    11   ar
    11    11    12   ar
    12    12    13    1
    13    12    14   ar
    14    14    15   ar
    15     5    16   ar
    16    16    17   ar
    17    17    18   ar
    18    18    19    1
    19     2    20    1
    20    20    21    1
    21    21    22    1
    22    22    23    1
    23    23    24    1
    24    21    25    1
    25    25    26    1
    26    26    27    1
    27    26    28    2
    28    28     2    1
    29    18     3   ar
    30    24    21    1
    31    15     9   ar
    32     1    29    1
    33     1    30    1
    34     1    31    1
    35     4    32    1
    36     6    33    1
    37    10    34    1
    38    11    35    1
    39    14    36    1
    40    15    37    1
    41    16    38    1
    42    17    39    1
    43    20    40    1
    44    20    41    1
    45    22    42    1
    46    22    43    1
    47    23    44    1
    48    23    45    1
    49    24    46    1
    50    24    47    1
    51    27    48    1
    52    27    49    1
