@<TRIPOS>MOLECULE
*****
 42 43 0 0 0
SMALL
GASTEIGER

@<TRIPOS>ATOM
      1 C           5.5146    0.3579    1.7317 C.3     1  UNL1        0.0365
      2 O           4.5847    1.0731    1.0027 O.3     1  UNL1       -0.3814
      3 C           3.8504    0.2066    0.1985 C.3     1  UNL1        0.0630
      4 C           2.8287    0.9715   -0.6210 C.3     1  UNL1        0.0380
      5 N           2.1017    0.0428   -1.4276 N.pl3   1  UNL1       -0.3005
      6 C           2.8272   -0.6266   -2.4878 C.3     1  UNL1        0.0034
      7 C           0.7257   -0.2241   -1.2317 C.ar    1  UNL1        0.2199
      8 N           0.1145   -1.1544   -2.0013 N.ar    1  UNL1       -0.1995
      9 C          -1.1734   -1.4589   -1.8961 C.ar    1  UNL1        0.1263
     10 N          -1.7706   -2.4286   -2.7034 N.pl3   1  UNL1       -0.3427
     11 C          -1.9399   -0.7759   -0.9324 C.ar    1  UNL1        0.0318
     12 C          -3.3729   -1.1017   -0.7577 C.3     1  UNL1        0.0239
     13 N          -3.5720   -2.3610   -0.0739 N.3     1  UNL1       -0.3260
     14 C          -1.3575    0.1722   -0.1368 C.ar    1  UNL1        0.0836
     15 C          -2.0702    0.9276    0.8869 C.ar    1  UNL1        0.0193
     16 C          -3.1126    1.8058    0.5737 C.ar    1  UNL1       -0.0498
     17 C          -3.7278    2.5216    1.5844 C.ar    1  UNL1       -0.0427
     18 C          -3.2998    2.3562    2.8831 C.ar    1  UNL1        0.0424
     19 CL         -4.0867    3.2701    4.1508 Cl      1  UNL1       -0.0835
     20 C          -2.2720    1.4968    3.2225 C.ar    1  UNL1       -0.0244
     21 C          -1.6640    0.7820    2.1920 C.ar    1  UNL1        0.0515
     22 CL         -0.3597   -0.3268    2.5378 Cl      1  UNL1       -0.0828
     23 N          -0.0201    0.4095   -0.3260 N.ar    1  UNL1       -0.2139
     24 H           6.2299   -0.1871    1.0692 H       1  UNL1        0.0523
     25 H           6.1214    1.0177    2.3983 H       1  UNL1        0.0523
     26 H           4.9819   -0.3903    2.3272 H       1  UNL1        0.0523
     27 H           3.2881   -0.4981    0.8553 H       1  UNL1        0.0575
     28 H           4.5755   -0.3262   -0.4415 H       1  UNL1        0.0575
     29 H           3.3848    1.6596   -1.2868 H       1  UNL1        0.0487
     30 H           2.1934    1.6151    0.0249 H       1  UNL1        0.0487
     31 H           3.6615    0.0033   -2.8465 H       1  UNL1        0.0429
     32 H           2.1483   -0.8232   -3.3671 H       1  UNL1        0.0429
     33 H           3.1409   -1.6131   -2.0951 H       1  UNL1        0.0429
     34 H          -2.3671   -2.1612   -3.5057 H       1  UNL1        0.1437
     35 H          -1.6257   -3.4342   -2.5144 H       1  UNL1        0.1437
     36 H          -3.8695   -0.3523   -0.1133 H       1  UNL1        0.0473
     37 H          -3.8896   -1.1286   -1.7146 H       1  UNL1        0.0473
     38 H          -4.1573   -3.0379   -0.6001 H       1  UNL1        0.1185
     39 H          -2.6872   -2.7649    0.2950 H       1  UNL1        0.1185
     40 H          -3.4039    1.9100   -0.4678 H       1  UNL1        0.0625
     41 H          -4.5289    3.2036    1.3621 H       1  UNL1        0.0632
     42 H          -1.9449    1.3721    4.2525 H       1  UNL1        0.0647
@<TRIPOS>BOND
     1     1     2    1
     2     2     3    1
     3     3     4    1
     4     4     5    1
     5     5     6    1
     6     5     7    1
     7     7     8   ar
     8     8     9   ar
     9     9    10    1
    10     9    11   ar
    11    11    12    1
    12    12    13    1
    13    11    14   ar
    14    14    15    1
    15    15    16   ar
    16    16    17   ar
    17    17    18   ar
    18    18    19    1
    19    18    20   ar
    20    20    21   ar
    21    21    22    1
    22    14    23   ar
    23    23     7   ar
    24    21    15   ar
    25     1    24    1
    26     1    25    1
    27     1    26    1
    28     3    27    1
    29     3    28    1
    30     4    29    1
    31     4    30    1
    32     6    31    1
    33     6    32    1
    34     6    33    1
    35    10    34    1
    36    10    35    1
    37    12    36    1
    38    12    37    1
    39    13    38    1
    40    13    39    1
    41    16    40    1
    42    17    41    1
    43    20    42    1
