
     RDKit          3D

 65 69  0  0  0  0  0  0  0  0999 V2000
   -4.1285    3.0261    4.3245 C   0  0  0  0  0  0  0  0  0  0  0  0
   -4.4170    2.3300    3.0289 C   0  0  0  0  0  0  0  0  0  0  0  0
   -3.3747    1.9036    2.2905 C   0  0  0  0  0  0  0  0  0  0  0  0
   -1.9486    1.9855    2.5514 N   0  0  0  0  0  0  0  0  0  0  0  0
   -1.3419    1.0783    3.4214 C   0  0  0  0  0  0  0  0  0  0  0  0
   -1.0905    1.5175    4.7766 C   0  0  0  0  0  0  0  0  0  0  0  0
   -1.0225    2.9914    4.8863 C   0  0  0  0  0  0  0  0  0  0  0  0
   -0.9560    4.0851    4.9706 N   0  0  0  0  0  0  0  0  0  0  0  0
   -0.7801    0.5781    5.6590 C   0  0  0  0  0  0  0  0  0  0  0  0
   -0.7126   -0.7442    5.2814 N   0  0  0  0  0  0  0  0  0  0  0  0
   -0.9279   -1.1527    4.0422 C   0  0  0  0  0  0  0  0  0  0  0  0
   -1.2521   -0.2054    3.0347 C   0  0  0  0  0  0  0  0  0  0  0  0
   -0.8745   -0.6972    1.6721 C   0  0  0  0  0  0  0  0  0  0  0  0
   -0.4623    0.1546    0.7237 C   0  0  0  0  0  0  0  0  0  0  0  0
   -0.0232   -0.0917   -0.5959 C   0  0  0  0  0  0  0  0  0  0  0  0
   -0.3422    0.9071   -1.6096 C   0  0  0  0  0  0  0  0  0  0  0  0
    0.1864    0.9207   -2.8270 C   0  0  0  0  0  0  0  0  0  0  0  0
    1.0772   -0.0005   -3.2384 C   0  0  0  0  0  0  0  0  0  0  0  0
    1.4370   -0.9897   -2.3426 C   0  0  0  0  0  0  0  0  0  0  0  0
    2.7382   -2.1017   -2.8343 S   0  0  0  0  0  6  0  0  0  0  0  0
    2.9545   -3.1765   -1.8461 O   0  0  0  0  0  0  0  0  0  0  0  0
    2.3983   -2.6561   -4.1672 O   0  0  0  0  0  0  0  0  0  0  0  0
    4.1626   -1.0963   -2.9632 N   0  0  0  0  0  0  0  0  0  0  0  0
    4.6128   -1.0160   -4.3204 C   0  0  0  0  0  0  0  0  0  0  0  0
    5.3372   -2.2554   -4.7498 C   0  0  0  0  0  0  0  0  0  0  0  0
    5.5614   -3.1852   -3.6456 N   0  0  0  0  0  0  0  0  0  0  0  0
    6.6347   -4.0624   -4.1313 C   0  0  0  0  0  0  0  0  0  0  0  0
    6.0665   -2.5418   -2.4516 C   0  0  0  0  0  0  0  0  0  0  0  0
    5.1840   -1.4050   -2.0081 C   0  0  0  0  0  0  0  0  0  0  0  0
    0.8910   -1.0077   -1.0802 C   0  0  0  0  0  0  0  0  0  0  0  0
   -3.7092    1.2849    1.0682 C   0  0  0  0  0  0  0  0  0  0  0  0
   -5.0344    1.1348    0.6755 C   0  0  0  0  0  0  0  0  0  0  0  0
   -6.0401    1.5771    1.4527 C   0  0  0  0  0  0  0  0  0  0  0  0
   -7.3994    1.5972    1.3555 N   0  0  0  0  0  0  0  0  0  0  0  0
   -7.9511    2.1872    2.4307 C   0  0  0  0  0  0  0  0  0  0  0  0
   -6.9214    2.5725    3.2625 C   0  0  0  0  0  0  0  0  0  0  0  0
   -5.7243    2.1989    2.6780 C   0  0  0  0  0  0  0  0  0  0  0  0
   -3.6931    2.4245    5.1255 H   0  0  0  0  0  0  0  0  0  0  0  0
   -5.1209    3.3616    4.7706 H   0  0  0  0  0  0  0  0  0  0  0  0
   -3.5977    3.9988    4.1136 H   0  0  0  0  0  0  0  0  0  0  0  0
   -1.4475    2.7525    2.0743 H   0  0  0  0  0  0  0  0  0  0  0  0
   -0.5477    0.7975    6.6684 H   0  0  0  0  0  0  0  0  0  0  0  0
   -0.8556   -2.1929    3.7496 H   0  0  0  0  0  0  0  0  0  0  0  0
   -0.9527   -1.7032    1.3770 H   0  0  0  0  0  0  0  0  0  0  0  0
   -0.4088    1.1965    1.0955 H   0  0  0  0  0  0  0  0  0  0  0  0
   -1.0636    1.6439   -1.2396 H   0  0  0  0  0  0  0  0  0  0  0  0
   -0.0844    1.6932   -3.5737 H   0  0  0  0  0  0  0  0  0  0  0  0
    1.4928    0.0355   -4.2330 H   0  0  0  0  0  0  0  0  0  0  0  0
    5.3240   -0.1776   -4.4177 H   0  0  0  0  0  0  0  0  0  0  0  0
    3.7250   -0.7789   -4.9258 H   0  0  0  0  0  0  0  0  0  0  0  0
    4.7210   -2.7917   -5.5041 H   0  0  0  0  0  0  0  0  0  0  0  0
    6.3412   -2.0517   -5.1995 H   0  0  0  0  0  0  0  0  0  0  0  0
    6.2770   -4.6796   -4.9828 H   0  0  0  0  0  0  0  0  0  0  0  0
    7.3761   -3.3351   -4.5745 H   0  0  0  0  0  0  0  0  0  0  0  0
    7.0884   -4.6691   -3.3462 H   0  0  0  0  0  0  0  0  0  0  0  0
    6.0611   -3.3059   -1.6545 H   0  0  0  0  0  0  0  0  0  0  0  0
    7.1027   -2.2208   -2.6367 H   0  0  0  0  0  0  0  0  0  0  0  0
    4.6362   -1.6634   -1.0522 H   0  0  0  0  0  0  0  0  0  0  0  0
    5.7599   -0.5002   -1.7856 H   0  0  0  0  0  0  0  0  0  0  0  0
    1.2116   -1.7859   -0.3688 H   0  0  0  0  0  0  0  0  0  0  0  0
   -2.9421    0.9537    0.4076 H   0  0  0  0  0  0  0  0  0  0  0  0
   -5.3160    0.7054   -0.2662 H   0  0  0  0  0  0  0  0  0  0  0  0
   -7.8769    1.1731    0.5383 H   0  0  0  0  0  0  0  0  0  0  0  0
   -8.9772    2.3753    2.6629 H   0  0  0  0  0  0  0  0  0  0  0  0
   -7.0404    3.0995    4.1997 H   0  0  0  0  0  0  0  0  0  0  0  0
  1  2  1  0
  2  3  2  0
  3  4  1  0
  4  5  1  0
  5  6  2  0
  6  7  1  0
  7  8  3  0
  6  9  1  0
  9 10  2  0
 10 11  1  0
 11 12  2  0
 12 13  1  0
 13 14  2  0
 14 15  1  0
 15 16  2  0
 16 17  1  0
 17 18  2  0
 18 19  1  0
 19 20  1  0
 20 21  2  0
 20 22  2  0
 20 23  1  0
 23 24  1  0
 24 25  1  0
 25 26  1  0
 26 27  1  0
 26 28  1  0
 28 29  1  0
 19 30  2  0
  3 31  1  0
 31 32  2  0
 32 33  1  0
 33 34  1  0
 34 35  1  0
 35 36  2  0
 36 37  1  0
 37  2  1  0
 12  5  1  0
 30 15  1  0
 37 33  2  0
 29 23  1  0
  1 38  1  0
  1 39  1  0
  1 40  1  0
  4 41  1  0
  9 42  1  0
 11 43  1  0
 13 44  1  0
 14 45  1  0
 16 46  1  0
 17 47  1  0
 18 48  1  0
 24 49  1  0
 24 50  1  0
 25 51  1  0
 25 52  1  0
 27 53  1  0
 27 54  1  0
 27 55  1  0
 28 56  1  0
 28 57  1  0
 29 58  1  0
 29 59  1  0
 30 60  1  0
 31 61  1  0
 32 62  1  0
 34 63  1  0
 35 64  1  0
 36 65  1  0
M  END
$$$$
