@<TRIPOS>MOLECULE
*****
 65 69 0 0 0
SMALL
GASTEIGER

@<TRIPOS>ATOM
      1 C          -4.1285    3.0261    4.3245 C.3     1  UNL1       -0.0373
      2 C          -4.4170    2.3300    3.0289 C.ar    1  UNL1       -0.0202
      3 C          -3.3747    1.9036    2.2905 C.ar    1  UNL1        0.0350
      4 N          -1.9486    1.9855    2.5514 N.pl3   1  UNL1       -0.3127
      5 C          -1.3419    1.0783    3.4214 C.ar    1  UNL1        0.0591
      6 C          -1.0905    1.5175    4.7766 C.ar    1  UNL1        0.0914
      7 C          -1.0225    2.9914    4.8863 C.1     1  UNL1        0.1026
      8 N          -0.9560    4.0851    4.9706 N.1     1  UNL1       -0.1908
      9 C          -0.7801    0.5781    5.6590 C.ar    1  UNL1        0.0467
     10 N          -0.7126   -0.7442    5.2814 N.ar    1  UNL1       -0.2613
     11 C          -0.9279   -1.1527    4.0422 C.ar    1  UNL1        0.0365
     12 C          -1.2521   -0.2054    3.0347 C.ar    1  UNL1        0.0155
     13 C          -0.8745   -0.6972    1.6721 C.2     1  UNL1       -0.0508
     14 C          -0.4623    0.1546    0.7237 C.2     1  UNL1       -0.0539
     15 C          -0.0232   -0.0917   -0.5959 C.ar    1  UNL1       -0.0232
     16 C          -0.3422    0.9071   -1.6096 C.ar    1  UNL1       -0.0545
     17 C           0.1864    0.9207   -2.8270 C.ar    1  UNL1       -0.0594
     18 C           1.0772   -0.0005   -3.2384 C.ar    1  UNL1       -0.0353
     19 C           1.4370   -0.9897   -2.3426 C.ar    1  UNL1        0.1060
     20 S           2.7382   -2.1017   -2.8343 S.O2    1  UNL1        0.0609
     21 O           2.9545   -3.1765   -1.8461 O.2     1  UNL1       -0.1528
     22 O           2.3983   -2.6561   -4.1672 O.2     1  UNL1       -0.1528
     23 N           4.1626   -1.0963   -2.9632 N.3     1  UNL1       -0.1741
     24 C           4.6128   -1.0160   -4.3204 C.3     1  UNL1        0.0333
     25 C           5.3372   -2.2554   -4.7498 C.3     1  UNL1        0.0131
     26 N           5.5614   -3.1852   -3.6456 N.3     1  UNL1       -0.3028
     27 C           6.6347   -4.0624   -4.1313 C.3     1  UNL1       -0.0127
     28 C           6.0665   -2.5418   -2.4516 C.3     1  UNL1        0.0131
     29 C           5.1840   -1.4050   -2.0081 C.3     1  UNL1        0.0333
     30 C           0.8910   -1.0077   -1.0802 C.ar    1  UNL1       -0.0282
     31 C          -3.7092    1.2849    1.0682 C.ar    1  UNL1       -0.0383
     32 C          -5.0344    1.1348    0.6755 C.ar    1  UNL1       -0.0360
     33 C          -6.0401    1.5771    1.4527 C.ar    1  UNL1        0.0468
     34 N          -7.3994    1.5972    1.3555 N.ar    1  UNL1       -0.3606
     35 C          -7.9511    2.1872    2.4307 C.ar    1  UNL1        0.0027
     36 C          -6.9214    2.5725    3.2625 C.ar    1  UNL1       -0.0364
     37 C          -5.7243    2.1989    2.6780 C.ar    1  UNL1        0.0043
     38 H          -3.6931    2.4245    5.1255 H       1  UNL1        0.0278
     39 H          -5.1209    3.3616    4.7706 H       1  UNL1        0.0278
     40 H          -3.5977    3.9988    4.1136 H       1  UNL1        0.0278
     41 H          -1.4475    2.7525    2.0743 H       1  UNL1        0.1522
     42 H          -0.5477    0.7975    6.6684 H       1  UNL1        0.0843
     43 H          -0.8556   -2.1929    3.7496 H       1  UNL1        0.0836
     44 H          -0.9527   -1.7032    1.3770 H       1  UNL1        0.0625
     45 H          -0.4088    1.1965    1.0955 H       1  UNL1        0.0624
     46 H          -1.0636    1.6439   -1.2396 H       1  UNL1        0.0623
     47 H          -0.0844    1.6932   -3.5737 H       1  UNL1        0.0618
     48 H           1.4928    0.0355   -4.2330 H       1  UNL1        0.0637
     49 H           5.3240   -0.1776   -4.4177 H       1  UNL1        0.0456
     50 H           3.7250   -0.7789   -4.9258 H       1  UNL1        0.0456
     51 H           4.7210   -2.7917   -5.5041 H       1  UNL1        0.0439
     52 H           6.3412   -2.0517   -5.1995 H       1  UNL1        0.0439
     53 H           6.2770   -4.6796   -4.9828 H       1  UNL1        0.0391
     54 H           7.3761   -3.3351   -4.5745 H       1  UNL1        0.0391
     55 H           7.0884   -4.6691   -3.3462 H       1  UNL1        0.0391
     56 H           6.0611   -3.3059   -1.6545 H       1  UNL1        0.0439
     57 H           7.1027   -2.2208   -2.6367 H       1  UNL1        0.0439
     58 H           4.6362   -1.6634   -1.0522 H       1  UNL1        0.0456
     59 H           5.7599   -0.5002   -1.7856 H       1  UNL1        0.0456
     60 H           1.2116   -1.7859   -0.3688 H       1  UNL1        0.0643
     61 H          -2.9421    0.9537    0.4076 H       1  UNL1        0.0637
     62 H          -5.3160    0.7054   -0.2662 H       1  UNL1        0.0639
     63 H          -7.8769    1.1731    0.5383 H       1  UNL1        0.1653
     64 H          -8.9772    2.3753    2.6629 H       1  UNL1        0.0807
     65 H          -7.0404    3.0995    4.1997 H       1  UNL1        0.0639
@<TRIPOS>BOND
     1     1     2    1
     2     2     3   ar
     3     3     4    1
     4     4     5    1
     5     5     6   ar
     6     6     7    1
     7     7     8    3
     8     6     9   ar
     9     9    10   ar
    10    10    11   ar
    11    11    12   ar
    12    12    13    1
    13    13    14    2
    14    14    15    1
    15    15    16   ar
    16    16    17   ar
    17    17    18   ar
    18    18    19   ar
    19    19    20    1
    20    20    21    2
    21    20    22    2
    22    20    23    1
    23    23    24    1
    24    24    25    1
    25    25    26    1
    26    26    27    1
    27    26    28    1
    28    28    29    1
    29    19    30   ar
    30     3    31   ar
    31    31    32   ar
    32    32    33   ar
    33    33    34   ar
    34    34    35   ar
    35    35    36   ar
    36    36    37   ar
    37    37     2   ar
    38    12     5   ar
    39    30    15   ar
    40    37    33   ar
    41    29    23    1
    42     1    38    1
    43     1    39    1
    44     1    40    1
    45     4    41    1
    46     9    42    1
    47    11    43    1
    48    13    44    1
    49    14    45    1
    50    16    46    1
    51    17    47    1
    52    18    48    1
    53    24    49    1
    54    24    50    1
    55    25    51    1
    56    25    52    1
    57    27    53    1
    58    27    54    1
    59    27    55    1
    60    28    56    1
    61    28    57    1
    62    29    58    1
    63    29    59    1
    64    30    60    1
    65    31    61    1
    66    32    62    1
    67    34    63    1
    68    35    64    1
    69    36    65    1
