@<TRIPOS>MOLECULE
*****
 21 21 0 0 0
SMALL
GASTEIGER

@<TRIPOS>ATOM
      1 C           3.1499   -0.5820    0.0998 C.3     1  UNL1       -0.0188
      2 C           1.6629   -0.4724   -0.0252 C.ar    1  UNL1        0.0801
      3 N           0.9622   -1.5046   -0.5529 N.ar    1  UNL1       -0.2562
      4 C          -0.3817   -1.4843   -0.6999 C.ar    1  UNL1        0.0341
      5 C          -1.1287   -0.3886   -0.3127 C.ar    1  UNL1        0.0096
      6 C          -2.6077   -0.2768   -0.4358 C.3     1  UNL1        0.0714
      7 O          -3.0438   -1.4922   -1.0124 O.3     1  UNL1       -0.3903
      8 C          -0.4187    0.6827    0.2329 C.ar    1  UNL1        0.0641
      9 C          -1.0689    1.9214    0.6932 C.2     1  UNL1        0.1541
     10 O          -1.3691    3.0322    0.1490 O.2     1  UNL1       -0.2956
     11 C           0.9724    0.6534    0.3816 C.ar    1  UNL1        0.1483
     12 O           1.6639    1.7217    0.9238 O.3     1  UNL1       -0.5043
     13 H           3.5757   -1.1804   -0.7045 H       1  UNL1        0.0294
     14 H           3.5542    0.4432    0.0306 H       1  UNL1        0.0294
     15 H           3.4618   -1.0227    1.0642 H       1  UNL1        0.0294
     16 H          -0.9279   -2.3159   -1.1229 H       1  UNL1        0.0833
     17 H          -2.9247    0.5934   -1.0467 H       1  UNL1        0.0608
     18 H          -3.0858   -0.2311    0.5865 H       1  UNL1        0.0608
     19 H          -2.8523   -2.2021   -0.3499 H       1  UNL1        0.2098
     20 H          -1.2555    1.6276    1.7376 H       1  UNL1        0.1083
     21 H           2.0616    2.4774    0.3637 H       1  UNL1        0.2922
@<TRIPOS>BOND
     1     1     2    1
     2     2     3   ar
     3     3     4   ar
     4     4     5   ar
     5     5     6    1
     6     6     7    1
     7     5     8   ar
     8     8     9    1
     9     9    10    2
    10     8    11   ar
    11    11    12    1
    12    11     2   ar
    13     1    13    1
    14     1    14    1
    15     1    15    1
    16     4    16    1
    17     6    17    1
    18     6    18    1
    19     7    19    1
    20     9    20    1
    21    12    21    1
