
     RDKit          3D

 31 32  0  0  0  0  0  0  0  0999 V2000
   -1.4521    0.5429    0.1478 C   0  0  1  0  0  0  0  0  0  0  0  0
   -2.2111    1.7852    0.5620 C   0  0  0  0  0  0  0  0  0  0  0  0
   -1.3001    2.8481    0.3510 O   0  0  0  0  0  0  0  0  0  0  0  0
   -0.3052    0.3874    0.9205 O   0  0  0  0  0  0  0  0  0  0  0  0
    0.6673   -0.2254    0.1374 C   0  0  2  0  0  0  0  0  0  0  0  0
    1.8050   -0.6343    0.9389 N   0  0  0  0  0  0  0  0  0  0  0  0
    2.8945   -0.0861    0.5394 C   0  0  0  0  0  0  0  0  0  0  0  0
    4.0890   -0.3624    1.1910 O   0  0  0  0  0  0  0  0  0  0  0  0
    2.6789    0.7796   -0.5915 N   0  0  0  0  0  0  0  0  0  0  0  0
    3.6858    1.5100   -1.2387 N   0  0  0  0  0  0  0  0  0  0  0  0
    1.2613    0.6924   -0.8493 C   0  0  0  0  0  0  0  0  0  0  0  0
    0.8058    1.3666   -1.8041 O   0  0  0  0  0  0  0  0  0  0  0  0
    0.0448   -1.4534   -0.4555 C   0  0  2  0  0  0  0  0  0  0  0  0
   -0.2631   -1.3306   -1.8054 O   0  0  0  0  0  0  0  0  0  0  0  0
   -1.2184   -1.8562    0.2901 C   0  0  1  0  0  0  0  0  0  0  0  0
   -0.9478   -2.1231    1.6271 O   0  0  0  0  0  0  0  0  0  0  0  0
   -2.2480   -0.7262    0.2783 C   0  0  2  0  0  0  0  0  0  0  0  0
   -3.0493   -0.9388   -0.8469 O   0  0  0  0  0  0  0  0  0  0  0  0
   -1.2484    0.6668   -0.9356 H   0  0  0  0  0  0  0  0  0  0  0  0
   -3.0441    2.0023   -0.1375 H   0  0  0  0  0  0  0  0  0  0  0  0
   -2.5843    1.7733    1.5854 H   0  0  0  0  0  0  0  0  0  0  0  0
   -1.4392    3.5257    1.0569 H   0  0  0  0  0  0  0  0  0  0  0  0
    4.3160   -1.3068    1.5164 H   0  0  0  0  0  0  0  0  0  0  0  0
    4.2421    2.0916   -0.5458 H   0  0  0  0  0  0  0  0  0  0  0  0
    3.1914    2.2482   -1.8183 H   0  0  0  0  0  0  0  0  0  0  0  0
    0.7270   -2.3232   -0.3738 H   0  0  0  0  0  0  0  0  0  0  0  0
   -0.6191   -2.2086   -2.0878 H   0  0  0  0  0  0  0  0  0  0  0  0
   -1.6147   -2.7813   -0.1563 H   0  0  0  0  0  0  0  0  0  0  0  0
   -0.0620   -1.8105    1.9130 H   0  0  0  0  0  0  0  0  0  0  0  0
   -2.8693   -0.7436    1.2139 H   0  0  0  0  0  0  0  0  0  0  0  0
   -3.9324   -1.3096   -0.6227 H   0  0  0  0  0  0  0  0  0  0  0  0
  1  2  1  0
  2  3  1  0
  1  4  1  0
  5  4  1  1
  5  6  1  0
  6  7  2  0
  7  8  1  0
  7  9  1  0
  9 10  1  0
  9 11  1  0
 11 12  2  0
  5 13  1  0
 13 14  1  0
 13 15  1  0
 15 16  1  0
 15 17  1  0
 17 18  1  0
 17  1  1  0
 11  5  1  0
  1 19  1  6
  2 20  1  0
  2 21  1  0
  3 22  1  0
  8 23  1  0
 10 24  1  0
 10 25  1  0
 13 26  1  6
 14 27  1  0
 15 28  1  6
 16 29  1  0
 17 30  1  1
 18 31  1  0
M  END
$$$$
