@<TRIPOS>MOLECULE
*****
 31 32 0 0 0
SMALL
GASTEIGER

@<TRIPOS>ATOM
      1 C          -1.4521    0.5429    0.1478 C.3     1  UNL1        0.1133
      2 C          -2.2111    1.7852    0.5620 C.3     1  UNL1        0.0730
      3 O          -1.3001    2.8481    0.3510 O.3     1  UNL1       -0.3924
      4 O          -0.3052    0.3874    0.9205 O.3     1  UNL1       -0.3346
      5 C           0.6673   -0.2254    0.1374 C.3     1  UNL1        0.2726
      6 N           1.8050   -0.6343    0.9389 N.2     1  UNL1       -0.1888
      7 C           2.8945   -0.0861    0.5394 C.2     1  UNL1        0.3022
      8 O           4.0890   -0.3624    1.1910 O.2     1  UNL1       -0.4804
      9 N           2.6789    0.7796   -0.5915 N.am    1  UNL1       -0.1551
     10 N           3.6858    1.5100   -1.2387 N.3     1  UNL1       -0.2432
     11 C           1.2613    0.6924   -0.8493 C.2     1  UNL1        0.2946
     12 O           0.8058    1.3666   -1.8041 O.2     1  UNL1       -0.2683
     13 C           0.0448   -1.4534   -0.4555 C.3     1  UNL1        0.1419
     14 O          -0.2631   -1.3306   -1.8054 O.3     1  UNL1       -0.3838
     15 C          -1.2184   -1.8562    0.2901 C.3     1  UNL1        0.1144
     16 O          -0.9478   -2.1231    1.6271 O.3     1  UNL1       -0.3864
     17 C          -2.2480   -0.7262    0.2783 C.3     1  UNL1        0.1119
     18 O          -3.0493   -0.9388   -0.8469 O.3     1  UNL1       -0.3865
     19 H          -1.2484    0.6668   -0.9356 H       1  UNL1        0.0647
     20 H          -3.0441    2.0023   -0.1375 H       1  UNL1        0.0584
     21 H          -2.5843    1.7733    1.5854 H       1  UNL1        0.0584
     22 H          -1.4392    3.5257    1.0569 H       1  UNL1        0.2095
     23 H           4.3160   -1.3068    1.5164 H       1  UNL1        0.2951
     24 H           4.2421    2.0916   -0.5458 H       1  UNL1        0.1412
     25 H           3.1914    2.2482   -1.8183 H       1  UNL1        0.1412
     26 H           0.7270   -2.3232   -0.3738 H       1  UNL1        0.0674
     27 H          -0.6191   -2.2086   -2.0878 H       1  UNL1        0.2101
     28 H          -1.6147   -2.7813   -0.1563 H       1  UNL1        0.0648
     29 H          -0.0620   -1.8105    1.9130 H       1  UNL1        0.2100
     30 H          -2.8693   -0.7436    1.2139 H       1  UNL1        0.0647
     31 H          -3.9324   -1.3096   -0.6227 H       1  UNL1        0.2100
@<TRIPOS>BOND
     1     1     2    1
     2     2     3    1
     3     1     4    1
     4     5     4    1
     5     5     6    1
     6     6     7    2
     7     7     8    1
     8     7     9    1
     9     9    10    1
    10     9    11   am
    11    11    12    2
    12     5    13    1
    13    13    14    1
    14    13    15    1
    15    15    16    1
    16    15    17    1
    17    17    18    1
    18    17     1    1
    19    11     5    1
    20     1    19    1
    21     2    20    1
    22     2    21    1
    23     3    22    1
    24     8    23    1
    25    10    24    1
    26    10    25    1
    27    13    26    1
    28    14    27    1
    29    15    28    1
    30    16    29    1
    31    17    30    1
    32    18    31    1
