@<TRIPOS>MOLECULE
*****
 55 59 0 0 0
SMALL
GASTEIGER

@<TRIPOS>ATOM
      1 N           3.5483   -1.5220    2.8492 N.pl3   1  UNL1       -0.3565
      2 C           4.5054   -1.0051    1.9432 C.ar    1  UNL1        0.0461
      3 C           5.8586   -1.2722    2.1876 C.ar    1  UNL1       -0.0386
      4 C           6.8187   -0.7767    1.3139 C.ar    1  UNL1       -0.0517
      5 C           6.4169   -0.0377    0.2338 C.ar    1  UNL1       -0.0094
      6 C           7.4558    0.4751   -0.6727 C.ar    1  UNL1        0.0194
      7 C           7.3674    1.2167   -1.7796 C.ar    1  UNL1       -0.0469
      8 C           8.4859    1.5578   -2.4318 C.ar    1  UNL1       -0.0541
      9 C           9.6743    1.1392   -1.9478 C.ar    1  UNL1       -0.0237
     10 S           9.2032    0.1839   -0.4500 S.2     1  UNL1       -0.0967
     11 C           5.0824    0.2039    0.0259 C.ar    1  UNL1       -0.0305
     12 C           4.0960   -0.2621    0.8571 C.ar    1  UNL1        0.0551
     13 N           2.7147   -0.0227    0.6486 N.am    1  UNL1       -0.2799
     14 C           1.8727   -0.8679   -0.0947 C.2     1  UNL1        0.2498
     15 O           2.3789   -1.8951   -0.6029 O.2     1  UNL1       -0.2698
     16 C           0.4498   -0.5930   -0.2914 C.ar    1  UNL1        0.0552
     17 C          -0.1570    0.5041    0.2421 C.ar    1  UNL1       -0.0449
     18 C          -1.5011    0.7100    0.0210 C.ar    1  UNL1       -0.0210
     19 C          -2.2755   -0.1610   -0.7298 C.ar    1  UNL1        0.1212
     20 N          -3.6751    0.0649   -0.9563 N.pl3   1  UNL1       -0.3149
     21 C          -4.2556    1.2320   -0.3677 C.3     1  UNL1        0.0172
     22 C          -5.7022    1.3600   -0.7196 C.3     1  UNL1        0.0046
     23 C          -6.3291   -0.0012   -0.4875 C.3     1  UNL1        0.1334
     24 C          -5.8505   -1.0053   -1.5042 C.3     1  UNL1        0.0046
     25 C          -4.3919   -0.8714   -1.7477 C.3     1  UNL1        0.0172
     26 C          -7.8111    0.1395   -0.4284 C.3     1  UNL1        0.0548
     27 N          -8.0407    0.5866    0.9451 N.am    1  UNL1       -0.2773
     28 C          -6.9073    0.1378    1.6725 C.2     1  UNL1        0.4010
     29 O          -6.7684    0.2348    2.9230 O.2     1  UNL1       -0.2265
     30 O          -5.9789   -0.4183    0.8115 O.3     1  UNL1       -0.4421
     31 N          -1.6300   -1.2284   -1.2339 N.ar    1  UNL1       -0.2396
     32 C          -0.3196   -1.4667   -1.0424 C.ar    1  UNL1        0.0418
     33 H           2.7568   -0.8707    3.1178 H       1  UNL1        0.1424
     34 H           3.5633   -2.4661    3.2591 H       1  UNL1        0.1424
     35 H           6.1813   -1.8552    3.0378 H       1  UNL1        0.0637
     36 H           7.8660   -0.9999    1.5282 H       1  UNL1        0.0624
     37 H           6.3549    1.5372   -2.1387 H       1  UNL1        0.0629
     38 H           8.4640    2.1833   -3.3701 H       1  UNL1        0.0623
     39 H          10.7250    1.2694   -2.2726 H       1  UNL1        0.0693
     40 H           4.7939    0.7893   -0.8311 H       1  UNL1        0.0643
     41 H           2.3477    0.8578    1.1001 H       1  UNL1        0.1552
     42 H           0.3643    1.2266    0.8342 H       1  UNL1        0.0627
     43 H          -2.0205    1.5786    0.4332 H       1  UNL1        0.0652
     44 H          -4.1158    1.2113    0.7447 H       1  UNL1        0.0465
     45 H          -3.6738    2.1362   -0.6892 H       1  UNL1        0.0465
     46 H          -5.8006    1.7007   -1.7623 H       1  UNL1        0.0319
     47 H          -6.1790    2.0509    0.0076 H       1  UNL1        0.0319
     48 H          -6.0495   -2.0132   -1.0330 H       1  UNL1        0.0319
     49 H          -6.4661   -0.9561   -2.4277 H       1  UNL1        0.0319
     50 H          -4.2771   -0.6392   -2.8504 H       1  UNL1        0.0465
     51 H          -3.9156   -1.8935   -1.6662 H       1  UNL1        0.0465
     52 H          -8.3515   -0.8443   -0.5077 H       1  UNL1        0.0502
     53 H          -8.2142    0.8983   -1.1402 H       1  UNL1        0.0502
     54 H          -8.8467    1.1165    1.3259 H       1  UNL1        0.1521
     55 H           0.1578   -2.3579   -1.4798 H       1  UNL1        0.0838
@<TRIPOS>BOND
     1     1     2    1
     2     2     3   ar
     3     3     4   ar
     4     4     5   ar
     5     5     6    1
     6     6     7   ar
     7     7     8   ar
     8     8     9   ar
     9     9    10   ar
    10     5    11   ar
    11    11    12   ar
    12    12    13    1
    13    13    14   am
    14    14    15    2
    15    14    16    1
    16    16    17   ar
    17    17    18   ar
    18    18    19   ar
    19    19    20    1
    20    20    21    1
    21    21    22    1
    22    22    23    1
    23    23    24    1
    24    24    25    1
    25    23    26    1
    26    26    27    1
    27    27    28   am
    28    28    29    2
    29    28    30    1
    30    19    31   ar
    31    31    32   ar
    32    12     2   ar
    33    32    16   ar
    34    10     6   ar
    35    25    20    1
    36    30    23    1
    37     1    33    1
    38     1    34    1
    39     3    35    1
    40     4    36    1
    41     7    37    1
    42     8    38    1
    43     9    39    1
    44    11    40    1
    45    13    41    1
    46    17    42    1
    47    18    43    1
    48    21    44    1
    49    21    45    1
    50    22    46    1
    51    22    47    1
    52    24    48    1
    53    24    49    1
    54    25    50    1
    55    25    51    1
    56    26    52    1
    57    26    53    1
    58    27    54    1
    59    32    55    1
