
     RDKit          3D

 69 71  0  0  0  0  0  0  0  0999 V2000
   -9.4181    2.9831   -1.2544 C   0  0  0  0  0  0  0  0  0  0  0  0
   -8.7723    1.4257   -0.5556 S   0  0  0  0  0  0  0  0  0  0  0  0
   -6.9684    1.3951   -0.7179 C   0  0  0  0  0  0  0  0  0  0  0  0
   -6.4081    2.4905    0.1678 C   0  0  0  0  0  0  0  0  0  0  0  0
   -4.9699    2.5671    0.1230 N   0  0  0  0  0  0  0  0  0  0  0  0
   -4.1152    1.4927    0.4933 C   0  0  0  0  0  0  0  0  0  0  0  0
   -2.7206    1.5903    0.4416 C   0  0  0  0  0  0  0  0  0  0  0  0
   -1.9267    2.6114    0.0705 N   0  0  0  0  0  0  0  0  0  0  0  0
   -0.6210    2.2491    0.1824 C   0  0  0  0  0  0  0  0  0  0  0  0
   -0.6228    0.9820    0.6306 N   0  0  0  0  0  0  0  0  0  0  0  0
    0.5752    0.2529    0.8723 C   0  0  2  0  0  0  0  0  0  0  0  0
    1.5485    0.4795   -0.1286 O   0  0  0  0  0  0  0  0  0  0  0  0
    2.5240   -0.4382    0.2551 C   0  0  2  0  0  0  0  0  0  0  0  0
    3.6344   -0.5469   -0.7600 C   0  0  0  0  0  0  0  0  0  0  0  0
    4.2106    0.7235   -0.8754 O   0  0  0  0  0  0  0  0  0  0  0  0
    5.4750    0.7011   -2.0153 P   0  0  0  0  0  0  0  0  0  0  0  0
    4.8924    0.4032   -3.5657 O   0  0  0  0  0  0  0  0  0  0  0  0
    6.1376    2.0482   -2.0171 O   0  0  0  0  0  0  0  0  0  0  0  0
    6.5696   -0.4864   -1.5178 O   0  0  0  0  0  0  0  0  0  0  0  0
    8.0431    0.1417   -1.0423 P   0  0  0  0  0  0  0  0  0  0  0  0
    9.1828   -0.1089   -2.2903 O   0  0  0  0  0  0  0  0  0  0  0  0
    7.9975    1.6085   -0.7004 O   0  0  0  0  0  0  0  0  0  0  0  0
    8.7276   -0.7208    0.4187 C   0  0  0  0  0  0  0  0  0  0  0  0
    7.5822   -0.7766    1.7532 Cl  0  0  0  0  0  0  0  0  0  0  0  0
    9.2297   -2.3804   -0.0388 Cl  0  0  0  0  0  0  0  0  0  0  0  0
   10.2004    0.2391    0.9124 P   0  0  0  0  0  0  0  0  0  0  0  0
   11.2251    0.2450   -0.4551 O   0  0  0  0  0  0  0  0  0  0  0  0
    9.6772    1.8302    1.1813 O   0  0  0  0  0  0  0  0  0  0  0  0
   10.8657   -0.3565    2.1093 O   0  0  0  0  0  0  0  0  0  0  0  0
    1.7175   -1.7207    0.3445 C   0  0  1  0  0  0  0  0  0  0  0  0
    2.3565   -2.6976    1.0895 O   0  0  0  0  0  0  0  0  0  0  0  0
    0.4616   -1.2139    1.0371 C   0  0  1  0  0  0  0  0  0  0  0  0
    0.5538   -1.6277    2.3793 O   0  0  0  0  0  0  0  0  0  0  0  0
   -1.8867    0.5557    0.7972 C   0  0  0  0  0  0  0  0  0  0  0  0
   -2.4656   -0.5806    1.2063 N   0  0  0  0  0  0  0  0  0  0  0  0
   -3.8128   -0.7185    1.2716 C   0  0  0  0  0  0  0  0  0  0  0  0
   -4.4042   -2.3020    1.8402 S   0  0  0  0  0  0  0  0  0  0  0  0
   -4.6354   -3.4634    0.4931 C   0  0  0  0  0  0  0  0  0  0  0  0
   -5.7745   -2.9347   -0.3813 C   0  0  0  0  0  0  0  0  0  0  0  0
   -7.0491   -2.8118    0.4013 C   0  0  0  0  0  0  0  0  0  0  0  0
   -7.4851   -3.9888    0.9265 F   0  0  0  0  0  0  0  0  0  0  0  0
   -8.0280   -2.4178   -0.5211 F   0  0  0  0  0  0  0  0  0  0  0  0
   -6.9447   -1.7829    1.3226 F   0  0  0  0  0  0  0  0  0  0  0  0
   -4.6027    0.3105    0.9174 N   0  0  0  0  0  0  0  0  0  0  0  0
   -9.0970    3.1152   -2.3144 H   0  0  0  0  0  0  0  0  0  0  0  0
   -9.1057    3.8578   -0.6333 H   0  0  0  0  0  0  0  0  0  0  0  0
  -10.5225    2.9588   -1.1994 H   0  0  0  0  0  0  0  0  0  0  0  0
   -6.6782    1.5890   -1.7722 H   0  0  0  0  0  0  0  0  0  0  0  0
   -6.6168    0.4266   -0.3428 H   0  0  0  0  0  0  0  0  0  0  0  0
   -6.8336    3.4687   -0.0826 H   0  0  0  0  0  0  0  0  0  0  0  0
   -6.7836    2.2555    1.1954 H   0  0  0  0  0  0  0  0  0  0  0  0
   -4.4936    3.4465   -0.1944 H   0  0  0  0  0  0  0  0  0  0  0  0
    0.2321    2.8835   -0.0527 H   0  0  0  0  0  0  0  0  0  0  0  0
    1.0336    0.6633    1.8093 H   0  0  0  0  0  0  0  0  0  0  0  0
    2.8744   -0.1477    1.2452 H   0  0  0  0  0  0  0  0  0  0  0  0
    3.2940   -0.9022   -1.7344 H   0  0  0  0  0  0  0  0  0  0  0  0
    4.4272   -1.2050   -0.3500 H   0  0  0  0  0  0  0  0  0  0  0  0
    3.8854    0.3915   -3.6020 H   0  0  0  0  0  0  0  0  0  0  0  0
    9.0643    0.6460   -2.9047 H   0  0  0  0  0  0  0  0  0  0  0  0
   11.1852   -0.6299   -0.9285 H   0  0  0  0  0  0  0  0  0  0  0  0
   10.0522    2.4644    0.5136 H   0  0  0  0  0  0  0  0  0  0  0  0
    1.4464   -2.0728   -0.6596 H   0  0  0  0  0  0  0  0  0  0  0  0
    2.6412   -2.3427    1.9475 H   0  0  0  0  0  0  0  0  0  0  0  0
   -0.4434   -1.6939    0.6356 H   0  0  0  0  0  0  0  0  0  0  0  0
    0.7881   -0.8358    2.9586 H   0  0  0  0  0  0  0  0  0  0  0  0
   -4.9669   -4.4347    0.9214 H   0  0  0  0  0  0  0  0  0  0  0  0
   -3.7158   -3.5942   -0.0762 H   0  0  0  0  0  0  0  0  0  0  0  0
   -5.4669   -1.9464   -0.7385 H   0  0  0  0  0  0  0  0  0  0  0  0
   -5.9562   -3.6129   -1.2403 H   0  0  0  0  0  0  0  0  0  0  0  0
  1  2  1  0
  2  3  1  0
  3  4  1  0
  4  5  1  0
  5  6  1  0
  6  7  2  0
  7  8  1  0
  8  9  2  0
  9 10  1  0
 10 11  1  0
 11 12  1  0
 12 13  1  0
 13 14  1  0
 14 15  1  0
 15 16  1  0
 16 17  1  0
 16 18  2  0
 16 19  1  0
 19 20  1  0
 20 21  1  0
 20 22  2  0
 20 23  1  0
 23 24  1  0
 23 25  1  0
 23 26  1  0
 26 27  1  0
 26 28  1  0
 26 29  2  0
 13 30  1  0
 30 31  1  0
 30 32  1  0
 32 33  1  0
 10 34  1  0
 34 35  2  0
 35 36  1  0
 36 37  1  0
 37 38  1  0
 38 39  1  0
 39 40  1  0
 40 41  1  0
 40 42  1  0
 40 43  1  0
 36 44  2  0
 44  6  1  0
 34  7  1  0
 32 11  1  0
  1 45  1  0
  1 46  1  0
  1 47  1  0
  3 48  1  0
  3 49  1  0
  4 50  1  0
  4 51  1  0
  5 52  1  0
  9 53  1  0
 11 54  1  1
 13 55  1  1
 14 56  1  0
 14 57  1  0
 17 58  1  0
 21 59  1  0
 27 60  1  0
 28 61  1  0
 30 62  1  6
 31 63  1  0
 32 64  1  6
 33 65  1  0
 38 66  1  0
 38 67  1  0
 39 68  1  0
 39 69  1  0
M  END
$$$$
