@<TRIPOS>MOLECULE
*****
 69 71 0 0 0
SMALL
GASTEIGER

@<TRIPOS>ATOM
      1 C          -9.4181    2.9831   -1.2544 C.3     1  UNL1       -0.0181
      2 S          -8.7723    1.4257   -0.5556 S.3     1  UNL1       -0.1626
      3 C          -6.9684    1.3951   -0.7179 C.3     1  UNL1        0.0090
      4 C          -6.4081    2.4905    0.1678 C.3     1  UNL1        0.0195
      5 N          -4.9699    2.5671    0.1230 N.pl3   1  UNL1       -0.3264
      6 C          -4.1152    1.4927    0.4933 C.ar    1  UNL1        0.1509
      7 C          -2.7206    1.5903    0.4416 C.ar    1  UNL1        0.1476
      8 N          -1.9267    2.6114    0.0705 N.ar    1  UNL1       -0.2306
      9 C          -0.6210    2.2491    0.1824 C.ar    1  UNL1        0.1004
     10 N          -0.6228    0.9820    0.6306 N.ar    1  UNL1       -0.2855
     11 C           0.5752    0.2529    0.8723 C.3     1  UNL1        0.1667
     12 O           1.5485    0.4795   -0.1286 O.3     1  UNL1       -0.3456
     13 C           2.5240   -0.4382    0.2551 C.3     1  UNL1        0.1134
     14 C           3.6344   -0.5469   -0.7600 C.3     1  UNL1        0.0879
     15 O           4.2106    0.7235   -0.8754 O.3     1  UNL1       -0.2837
     16 P           5.4750    0.7011   -2.0153 P.3     1  UNL1        0.4820
     17 O           4.8924    0.4032   -3.5657 O.3     1  UNL1       -0.3022
     18 O           6.1376    2.0482   -2.0171 O.2     1  UNL1       -0.2269
     19 O           6.5696   -0.4864   -1.5178 O.3     1  UNL1       -0.2057
     20 P           8.0431    0.1417   -1.0423 P.3     1  UNL1        0.3860
     21 O           9.1828   -0.1089   -2.2903 O.3     1  UNL1       -0.3213
     22 O           7.9975    1.6085   -0.7004 O.2     1  UNL1       -0.2544
     23 C           8.7276   -0.7208    0.4187 C.3     1  UNL1        0.3178
     24 CL          7.5822   -0.7766    1.7532 Cl      1  UNL1       -0.0751
     25 CL          9.2297   -2.3804   -0.0388 Cl      1  UNL1       -0.0751
     26 P          10.2004    0.2391    0.9124 P.3     1  UNL1        0.3752
     27 O          11.2251    0.2450   -0.4551 O.3     1  UNL1       -0.3216
     28 O           9.6772    1.8302    1.1813 O.3     1  UNL1       -0.3216
     29 O          10.8657   -0.3565    2.1093 O.2     1  UNL1       -0.2550
     30 C           1.7175   -1.7207    0.3445 C.3     1  UNL1        0.1135
     31 O           2.3565   -2.6976    1.0895 O.3     1  UNL1       -0.3864
     32 C           0.4616   -1.2139    1.0371 C.3     1  UNL1        0.1285
     33 O           0.5538   -1.6277    2.3793 O.3     1  UNL1       -0.3847
     34 C          -1.8867    0.5557    0.7972 C.ar    1  UNL1        0.1686
     35 N          -2.4656   -0.5806    1.2063 N.ar    1  UNL1       -0.2021
     36 C          -3.8128   -0.7185    1.2716 C.ar    1  UNL1        0.1919
     37 S          -4.4042   -2.3020    1.8402 S.3     1  UNL1       -0.0856
     38 C          -4.6354   -3.4634    0.4931 C.3     1  UNL1        0.0093
     39 C          -5.7745   -2.9347   -0.3813 C.3     1  UNL1        0.0522
     40 C          -7.0491   -2.8118    0.4013 C.3     1  UNL1        0.3909
     41 F          -7.4851   -3.9888    0.9265 F       1  UNL1       -0.1707
     42 F          -8.0280   -2.4178   -0.5211 F       1  UNL1       -0.1707
     43 F          -6.9447   -1.7829    1.3226 F       1  UNL1       -0.1707
     44 N          -4.6027    0.3105    0.9174 N.ar    1  UNL1       -0.2048
     45 H          -9.0970    3.1152   -2.3144 H       1  UNL1        0.0340
     46 H          -9.1057    3.8578   -0.6333 H       1  UNL1        0.0340
     47 H         -10.5225    2.9588   -1.1994 H       1  UNL1        0.0340
     48 H          -6.6782    1.5890   -1.7722 H       1  UNL1        0.0391
     49 H          -6.6168    0.4266   -0.3428 H       1  UNL1        0.0391
     50 H          -6.8336    3.4687   -0.0826 H       1  UNL1        0.0470
     51 H          -6.7836    2.2555    1.1954 H       1  UNL1        0.0470
     52 H          -4.4936    3.4465   -0.1944 H       1  UNL1        0.1475
     53 H           0.2321    2.8835   -0.0527 H       1  UNL1        0.1030
     54 H           1.0336    0.6633    1.8093 H       1  UNL1        0.0866
     55 H           2.8744   -0.1477    1.2452 H       1  UNL1        0.0647
     56 H           3.2940   -0.9022   -1.7344 H       1  UNL1        0.0592
     57 H           4.4272   -1.2050   -0.3500 H       1  UNL1        0.0592
     58 H           3.8854    0.3915   -3.6020 H       1  UNL1        0.2220
     59 H           9.0643    0.6460   -2.9047 H       1  UNL1        0.2199
     60 H          11.1852   -0.6299   -0.9285 H       1  UNL1        0.2198
     61 H          10.0522    2.4644    0.5136 H       1  UNL1        0.2198
     62 H           1.4464   -2.0728   -0.6596 H       1  UNL1        0.0647
     63 H           2.6412   -2.3427    1.9475 H       1  UNL1        0.2100
     64 H          -0.4434   -1.6939    0.6356 H       1  UNL1        0.0665
     65 H           0.7881   -0.8358    2.9586 H       1  UNL1        0.2101
     66 H          -4.9669   -4.4347    0.9214 H       1  UNL1        0.0383
     67 H          -3.7158   -3.5942   -0.0762 H       1  UNL1        0.0383
     68 H          -5.4669   -1.9464   -0.7385 H       1  UNL1        0.0360
     69 H          -5.9562   -3.6129   -1.2403 H       1  UNL1        0.0360
@<TRIPOS>BOND
     1     1     2    1
     2     2     3    1
     3     3     4    1
     4     4     5    1
     5     5     6    1
     6     6     7   ar
     7     7     8   ar
     8     8     9   ar
     9     9    10   ar
    10    10    11    1
    11    11    12    1
    12    12    13    1
    13    13    14    1
    14    14    15    1
    15    15    16    1
    16    16    17    1
    17    16    18    2
    18    16    19    1
    19    19    20    1
    20    20    21    1
    21    20    22    2
    22    20    23    1
    23    23    24    1
    24    23    25    1
    25    23    26    1
    26    26    27    1
    27    26    28    1
    28    26    29    2
    29    13    30    1
    30    30    31    1
    31    30    32    1
    32    32    33    1
    33    10    34   ar
    34    34    35   ar
    35    35    36   ar
    36    36    37    1
    37    37    38    1
    38    38    39    1
    39    39    40    1
    40    40    41    1
    41    40    42    1
    42    40    43    1
    43    36    44   ar
    44    44     6   ar
    45    34     7   ar
    46    32    11    1
    47     1    45    1
    48     1    46    1
    49     1    47    1
    50     3    48    1
    51     3    49    1
    52     4    50    1
    53     4    51    1
    54     5    52    1
    55     9    53    1
    56    11    54    1
    57    13    55    1
    58    14    56    1
    59    14    57    1
    60    17    58    1
    61    21    59    1
    62    27    60    1
    63    28    61    1
    64    30    62    1
    65    31    63    1
    66    32    64    1
    67    33    65    1
    68    38    66    1
    69    38    67    1
    70    39    68    1
    71    39    69    1
