@<TRIPOS>MOLECULE
*****
 58 62 0 0 0
SMALL
GASTEIGER

@<TRIPOS>ATOM
      1 O          -3.9200   -1.9494    3.2113 O.2     1  UNL1       -0.2817
      2 C          -3.8850   -0.9331    2.4804 C.2     1  UNL1        0.2496
      3 C          -4.9912   -0.2142    1.8999 C.2     1  UNL1        0.2915
      4 O          -6.2066   -0.4691    2.0154 O.2     1  UNL1       -0.2661
      5 N          -4.4395    0.8689    1.1499 N.am    1  UNL1       -0.2598
      6 C          -5.2215    1.8238    0.4191 C.3     1  UNL1        0.0452
      7 C          -5.4741    1.3890   -0.9582 C.ar    1  UNL1       -0.0296
      8 C          -6.5806    0.6381   -1.2545 C.ar    1  UNL1       -0.0560
      9 C          -6.8533    0.2088   -2.5478 C.ar    1  UNL1       -0.0475
     10 C          -5.9765    0.5544   -3.5593 C.ar    1  UNL1        0.0179
     11 BR         -6.2928   -0.0050   -5.3666 Br      1  UNL1       -0.0503
     12 C          -4.8609    1.3088   -3.2745 C.ar    1  UNL1       -0.0475
     13 C          -4.6123    1.7257   -1.9676 C.ar    1  UNL1       -0.0560
     14 C          -3.0161    0.8015    1.2786 C.ar    1  UNL1        0.0481
     15 C          -2.0247    1.6039    0.7566 C.ar    1  UNL1       -0.0377
     16 C          -0.7006    1.3129    1.0415 C.ar    1  UNL1       -0.0335
     17 C          -0.3366    0.2467    1.8307 C.ar    1  UNL1        0.1063
     18 S           1.3246   -0.1089    2.1810 S.O2    1  UNL1        0.0612
     19 O           1.4530   -0.7328    3.5541 O.2     1  UNL1       -0.1528
     20 O           2.1686    1.1531    2.2271 O.2     1  UNL1       -0.1528
     21 N           2.0453   -1.1613    1.0500 N.3     1  UNL1       -0.1703
     22 C           1.4436   -2.4525    0.9660 C.3     1  UNL1        0.0210
     23 C           2.4339   -3.4580    1.4781 C.3     1  UNL1       -0.0370
     24 C           3.5970   -2.6824    2.0201 C.3     1  UNL1       -0.0313
     25 C           3.4369   -1.3310    1.4048 C.3     1  UNL1        0.0659
     26 C           4.3510   -1.1162    0.2178 C.3     1  UNL1        0.1067
     27 O           4.1834    0.1946   -0.2852 O.3     1  UNL1       -0.4904
     28 C           4.8623    0.7048   -1.3546 C.ar    1  UNL1        0.1206
     29 C           4.6030    2.0021   -1.7425 C.ar    1  UNL1       -0.0199
     30 C           5.2809    2.5330   -2.8220 C.ar    1  UNL1       -0.0583
     31 C           6.2063    1.8093   -3.5226 C.ar    1  UNL1       -0.0615
     32 C           6.4518    0.5178   -3.1217 C.ar    1  UNL1       -0.0583
     33 C           5.7870   -0.0321   -2.0473 C.ar    1  UNL1       -0.0199
     34 C          -1.3206   -0.5573    2.3543 C.ar    1  UNL1       -0.0226
     35 C          -2.6525   -0.2719    2.0729 C.ar    1  UNL1        0.0502
     36 H          -6.2037    1.9602    0.9158 H       1  UNL1        0.0518
     37 H          -4.6587    2.7885    0.4056 H       1  UNL1        0.0518
     38 H          -7.2789    0.3583   -0.4715 H       1  UNL1        0.0621
     39 H          -7.7232   -0.3817   -2.7810 H       1  UNL1        0.0629
     40 H          -4.1834    1.5772   -4.0492 H       1  UNL1        0.0629
     41 H          -3.7219    2.3156   -1.8048 H       1  UNL1        0.0621
     42 H          -2.3328    2.4364    0.1402 H       1  UNL1        0.0637
     43 H           0.0437    1.9535    0.6221 H       1  UNL1        0.0638
     44 H           0.4479   -2.5249    1.4282 H       1  UNL1        0.0444
     45 H           1.2928   -2.6814   -0.1298 H       1  UNL1        0.0444
     46 H           2.8185   -4.1343    0.6723 H       1  UNL1        0.0279
     47 H           2.0082   -4.0922    2.2857 H       1  UNL1        0.0279
     48 H           4.5825   -3.0921    1.6683 H       1  UNL1        0.0282
     49 H           3.5813   -2.6267    3.1311 H       1  UNL1        0.0282
     50 H           3.7478   -0.5735    2.1802 H       1  UNL1        0.0513
     51 H           5.4055   -1.2666    0.5101 H       1  UNL1        0.0713
     52 H           4.0673   -1.8142   -0.6105 H       1  UNL1        0.0713
     53 H           3.8790    2.6231   -1.2236 H       1  UNL1        0.0654
     54 H           5.0983    3.5552   -3.1530 H       1  UNL1        0.0619
     55 H           6.7457    2.2208   -4.3759 H       1  UNL1        0.0618
     56 H           7.1878   -0.0378   -3.6895 H       1  UNL1        0.0619
     57 H           6.0296   -1.0658   -1.7805 H       1  UNL1        0.0654
     58 H          -1.0966   -1.4196    2.9884 H       1  UNL1        0.0645
@<TRIPOS>BOND
     1     1     2    2
     2     2     3    1
     3     3     4    2
     4     3     5   am
     5     5     6    1
     6     6     7    1
     7     7     8   ar
     8     8     9   ar
     9     9    10   ar
    10    10    11    1
    11    10    12   ar
    12    12    13   ar
    13     5    14    1
    14    14    15   ar
    15    15    16   ar
    16    16    17   ar
    17    17    18    1
    18    18    19    2
    19    18    20    2
    20    18    21    1
    21    21    22    1
    22    22    23    1
    23    23    24    1
    24    24    25    1
    25    25    26    1
    26    26    27    1
    27    27    28    1
    28    28    29   ar
    29    29    30   ar
    30    30    31   ar
    31    31    32   ar
    32    32    33   ar
    33    17    34   ar
    34    34    35   ar
    35    35     2    1
    36    13     7   ar
    37    35    14   ar
    38    25    21    1
    39    33    28   ar
    40     6    36    1
    41     6    37    1
    42     8    38    1
    43     9    39    1
    44    12    40    1
    45    13    41    1
    46    15    42    1
    47    16    43    1
    48    22    44    1
    49    22    45    1
    50    23    46    1
    51    23    47    1
    52    24    48    1
    53    24    49    1
    54    25    50    1
    55    26    51    1
    56    26    52    1
    57    29    53    1
    58    30    54    1
    59    31    55    1
    60    32    56    1
    61    33    57    1
    62    34    58    1
