@<TRIPOS>MOLECULE
*****
 48 50 0 0 0
SMALL
GASTEIGER

@<TRIPOS>ATOM
      1 O           2.8889   -0.8989   -1.6515 O.2     1  UNL1       -0.2523
      2 C           2.0252   -0.3781   -0.8804 C.2     1  UNL1        0.3065
      3 N           2.5107    0.2217    0.2967 N.am    1  UNL1       -0.2693
      4 C           3.9035    0.2433    0.6080 C.ar    1  UNL1        0.0349
      5 C           4.4203   -0.8084    1.3377 C.ar    1  UNL1       -0.0391
      6 C           5.7605   -0.8459    1.6710 C.ar    1  UNL1       -0.0416
      7 C           6.5493    0.2037    1.2461 C.ar    1  UNL1        0.0411
      8 CL          8.2504    0.1545    1.6702 Cl      1  UNL1       -0.0835
      9 C           6.0411    1.2613    0.5151 C.ar    1  UNL1       -0.0416
     10 C           4.7017    1.2957    0.1837 C.ar    1  UNL1       -0.0391
     11 N           0.6327   -0.3919   -1.1773 N.am    1  UNL1       -0.2845
     12 C           0.2543   -1.0377   -2.4203 C.3     1  UNL1        0.0162
     13 C          -1.2179   -0.9979   -2.6977 C.3     1  UNL1       -0.0362
     14 C          -1.9222   -1.1717   -1.3633 C.3     1  UNL1       -0.0404
     15 C          -1.7187    0.0289   -0.5118 C.3     1  UNL1        0.0137
     16 C          -2.2574    1.3005   -1.1059 C.3     1  UNL1       -0.0186
     17 C          -3.7394    1.2544   -1.3647 C.3     1  UNL1        0.0451
     18 O          -4.1282    2.4760   -1.9119 O.3     1  UNL1       -0.3950
     19 C          -2.3706   -0.2054    0.8165 C.ar    1  UNL1       -0.0396
     20 C          -3.0421   -1.3923    1.0986 C.ar    1  UNL1       -0.0580
     21 C          -3.6365   -1.5980    2.3217 C.ar    1  UNL1       -0.0615
     22 C          -3.5483   -0.5845    3.2732 C.ar    1  UNL1       -0.0617
     23 C          -2.8710    0.6038    2.9788 C.ar    1  UNL1       -0.0615
     24 C          -2.2773    0.8038    1.7505 C.ar    1  UNL1       -0.0580
     25 C          -0.2569    0.2188   -0.2448 C.3     1  UNL1        0.0258
     26 H           1.8769    0.6701    0.9810 H       1  UNL1        0.1564
     27 H           3.7565   -1.6045    1.6447 H       1  UNL1        0.0636
     28 H           6.1681   -1.6720    2.2445 H       1  UNL1        0.0633
     29 H           6.6655    2.0792    0.1863 H       1  UNL1        0.0633
     30 H           4.2826    2.1010   -0.3804 H       1  UNL1        0.0636
     31 H           0.7783   -0.5966   -3.2946 H       1  UNL1        0.0465
     32 H           0.5952   -2.1085   -2.3505 H       1  UNL1        0.0465
     33 H          -1.4722   -0.0700   -3.2100 H       1  UNL1        0.0281
     34 H          -1.5144   -1.9032   -3.3030 H       1  UNL1        0.0281
     35 H          -2.9853   -1.4420   -1.5215 H       1  UNL1        0.0275
     36 H          -1.4416   -2.0399   -0.8692 H       1  UNL1        0.0275
     37 H          -1.7097    1.5729   -2.0293 H       1  UNL1        0.0296
     38 H          -2.0687    2.1226   -0.3870 H       1  UNL1        0.0296
     39 H          -4.0458    0.4505   -2.0462 H       1  UNL1        0.0557
     40 H          -4.3226    1.1343   -0.4291 H       1  UNL1        0.0557
     41 H          -3.7116    2.6468   -2.7946 H       1  UNL1        0.2094
     42 H          -3.1127   -2.1809    0.3654 H       1  UNL1        0.0620
     43 H          -4.1695   -2.4944    2.5983 H       1  UNL1        0.0618
     44 H          -3.9899   -0.6708    4.2586 H       1  UNL1        0.0618
     45 H          -2.8204    1.3683    3.7355 H       1  UNL1        0.0618
     46 H          -1.7681    1.7392    1.5813 H       1  UNL1        0.0620
     47 H           0.0233    1.3115   -0.1951 H       1  UNL1        0.0474
     48 H           0.0339   -0.1691    0.7768 H       1  UNL1        0.0474
@<TRIPOS>BOND
     1     1     2    2
     2     2     3   am
     3     3     4    1
     4     4     5   ar
     5     5     6   ar
     6     6     7   ar
     7     7     8    1
     8     7     9   ar
     9     9    10   ar
    10     2    11   am
    11    11    12    1
    12    12    13    1
    13    13    14    1
    14    14    15    1
    15    15    16    1
    16    16    17    1
    17    17    18    1
    18    15    19    1
    19    19    20   ar
    20    20    21   ar
    21    21    22   ar
    22    22    23   ar
    23    23    24   ar
    24    15    25    1
    25    10     4   ar
    26    25    11    1
    27    24    19   ar
    28     3    26    1
    29     5    27    1
    30     6    28    1
    31     9    29    1
    32    10    30    1
    33    12    31    1
    34    12    32    1
    35    13    33    1
    36    13    34    1
    37    14    35    1
    38    14    36    1
    39    16    37    1
    40    16    38    1
    41    17    39    1
    42    17    40    1
    43    18    41    1
    44    20    42    1
    45    21    43    1
    46    22    44    1
    47    23    45    1
    48    24    46    1
    49    25    47    1
    50    25    48    1
