
     RDKit          3D

 48 50  0  0  0  0  0  0  0  0999 V2000
    2.8889   -0.8989   -1.6515 O   0  0  0  0  0  0  0  0  0  0  0  0
    2.0252   -0.3781   -0.8804 C   0  0  0  0  0  0  0  0  0  0  0  0
    2.5107    0.2217    0.2967 N   0  0  0  0  0  0  0  0  0  0  0  0
    3.9035    0.2433    0.6080 C   0  0  0  0  0  0  0  0  0  0  0  0
    4.4203   -0.8084    1.3377 C   0  0  0  0  0  0  0  0  0  0  0  0
    5.7605   -0.8459    1.6710 C   0  0  0  0  0  0  0  0  0  0  0  0
    6.5493    0.2037    1.2461 C   0  0  0  0  0  0  0  0  0  0  0  0
    8.2504    0.1545    1.6702 Cl  0  0  0  0  0  0  0  0  0  0  0  0
    6.0411    1.2613    0.5151 C   0  0  0  0  0  0  0  0  0  0  0  0
    4.7017    1.2957    0.1837 C   0  0  0  0  0  0  0  0  0  0  0  0
    0.6327   -0.3919   -1.1773 N   0  0  0  0  0  0  0  0  0  0  0  0
    0.2543   -1.0377   -2.4203 C   0  0  0  0  0  0  0  0  0  0  0  0
   -1.2179   -0.9979   -2.6977 C   0  0  0  0  0  0  0  0  0  0  0  0
   -1.9222   -1.1717   -1.3633 C   0  0  0  0  0  0  0  0  0  0  0  0
   -1.7187    0.0289   -0.5118 C   0  0  0  0  0  0  0  0  0  0  0  0
   -2.2574    1.3005   -1.1059 C   0  0  0  0  0  0  0  0  0  0  0  0
   -3.7394    1.2544   -1.3647 C   0  0  0  0  0  0  0  0  0  0  0  0
   -4.1282    2.4760   -1.9119 O   0  0  0  0  0  0  0  0  0  0  0  0
   -2.3706   -0.2054    0.8165 C   0  0  0  0  0  0  0  0  0  0  0  0
   -3.0421   -1.3923    1.0986 C   0  0  0  0  0  0  0  0  0  0  0  0
   -3.6365   -1.5980    2.3217 C   0  0  0  0  0  0  0  0  0  0  0  0
   -3.5483   -0.5845    3.2732 C   0  0  0  0  0  0  0  0  0  0  0  0
   -2.8710    0.6038    2.9788 C   0  0  0  0  0  0  0  0  0  0  0  0
   -2.2773    0.8038    1.7505 C   0  0  0  0  0  0  0  0  0  0  0  0
   -0.2569    0.2188   -0.2448 C   0  0  0  0  0  0  0  0  0  0  0  0
    1.8769    0.6701    0.9810 H   0  0  0  0  0  0  0  0  0  0  0  0
    3.7565   -1.6045    1.6447 H   0  0  0  0  0  0  0  0  0  0  0  0
    6.1681   -1.6720    2.2445 H   0  0  0  0  0  0  0  0  0  0  0  0
    6.6655    2.0792    0.1863 H   0  0  0  0  0  0  0  0  0  0  0  0
    4.2826    2.1010   -0.3804 H   0  0  0  0  0  0  0  0  0  0  0  0
    0.7783   -0.5966   -3.2946 H   0  0  0  0  0  0  0  0  0  0  0  0
    0.5952   -2.1085   -2.3505 H   0  0  0  0  0  0  0  0  0  0  0  0
   -1.4722   -0.0700   -3.2100 H   0  0  0  0  0  0  0  0  0  0  0  0
   -1.5144   -1.9032   -3.3030 H   0  0  0  0  0  0  0  0  0  0  0  0
   -2.9853   -1.4420   -1.5215 H   0  0  0  0  0  0  0  0  0  0  0  0
   -1.4416   -2.0399   -0.8692 H   0  0  0  0  0  0  0  0  0  0  0  0
   -1.7097    1.5729   -2.0293 H   0  0  0  0  0  0  0  0  0  0  0  0
   -2.0687    2.1226   -0.3870 H   0  0  0  0  0  0  0  0  0  0  0  0
   -4.0458    0.4505   -2.0462 H   0  0  0  0  0  0  0  0  0  0  0  0
   -4.3226    1.1343   -0.4291 H   0  0  0  0  0  0  0  0  0  0  0  0
   -3.7116    2.6468   -2.7946 H   0  0  0  0  0  0  0  0  0  0  0  0
   -3.1127   -2.1809    0.3654 H   0  0  0  0  0  0  0  0  0  0  0  0
   -4.1695   -2.4944    2.5983 H   0  0  0  0  0  0  0  0  0  0  0  0
   -3.9899   -0.6708    4.2586 H   0  0  0  0  0  0  0  0  0  0  0  0
   -2.8204    1.3683    3.7355 H   0  0  0  0  0  0  0  0  0  0  0  0
   -1.7681    1.7392    1.5813 H   0  0  0  0  0  0  0  0  0  0  0  0
    0.0233    1.3115   -0.1951 H   0  0  0  0  0  0  0  0  0  0  0  0
    0.0339   -0.1691    0.7768 H   0  0  0  0  0  0  0  0  0  0  0  0
  1  2  2  0
  2  3  1  0
  3  4  1  0
  4  5  2  0
  5  6  1  0
  6  7  2  0
  7  8  1  0
  7  9  1  0
  9 10  2  0
  2 11  1  0
 11 12  1  0
 12 13  1  0
 13 14  1  0
 14 15  1  0
 15 16  1  0
 16 17  1  0
 17 18  1  0
 15 19  1  0
 19 20  2  0
 20 21  1  0
 21 22  2  0
 22 23  1  0
 23 24  2  0
 15 25  1  0
 10  4  1  0
 25 11  1  0
 24 19  1  0
  3 26  1  0
  5 27  1  0
  6 28  1  0
  9 29  1  0
 10 30  1  0
 12 31  1  0
 12 32  1  0
 13 33  1  0
 13 34  1  0
 14 35  1  0
 14 36  1  0
 16 37  1  0
 16 38  1  0
 17 39  1  0
 17 40  1  0
 18 41  1  0
 20 42  1  0
 21 43  1  0
 22 44  1  0
 23 45  1  0
 24 46  1  0
 25 47  1  0
 25 48  1  0
M  END
$$$$
