@<TRIPOS>MOLECULE
*****
 72 74 0 0 0
SMALL
GASTEIGER

@<TRIPOS>ATOM
      1 C           6.7521    0.9502    2.0717 C.3     1  UNL1       -0.0383
      2 C           6.6122    0.3829    0.7002 C.ar    1  UNL1       -0.0321
      3 C           7.4257   -0.6317    0.2430 C.ar    1  UNL1        0.0308
      4 N           7.2840   -1.1215   -0.9781 N.ar    1  UNL1       -0.2596
      5 C           6.3428   -0.6663   -1.8521 C.ar    1  UNL1        0.0414
      6 C           6.2943   -1.3152   -3.2058 C.3     1  UNL1       -0.0221
      7 C           5.5058    0.3387   -1.4576 C.ar    1  UNL1       -0.0261
      8 C           4.4728    0.8399   -2.4188 C.3     1  UNL1       -0.0257
      9 C           3.3259   -0.1239   -2.5452 C.3     1  UNL1       -0.0461
     10 C           2.6665   -0.3043   -1.2142 C.3     1  UNL1       -0.0383
     11 C           1.5136   -1.2918   -1.2848 C.3     1  UNL1       -0.0357
     12 C           0.3307   -0.9244   -0.4675 C.3     1  UNL1        0.0204
     13 N           0.5905   -0.2657    0.7720 N.3     1  UNL1       -0.1810
     14 S          -0.8872    0.5279    1.2416 S.O2    1  UNL1        0.0339
     15 O          -1.1898    1.5510    0.1934 O.2     1  UNL1       -0.1580
     16 O          -0.6215    1.2468    2.5396 O.2     1  UNL1       -0.1580
     17 C          -2.1775   -0.6521    1.4812 C.3     1  UNL1        0.1053
     18 C          -3.4841   -0.0408    1.8812 C.3     1  UNL1        0.0821
     19 C          -4.4887   -1.1403    2.0731 C.3     1  UNL1       -0.0396
     20 C          -3.9533    1.0434    0.9791 C.3     1  UNL1       -0.0183
     21 C          -4.1878    0.6931   -0.4437 C.3     1  UNL1        0.0182
     22 C          -4.6483    2.0011   -1.1257 C.3     1  UNL1       -0.0554
     23 C          -5.3285   -0.2402   -0.6501 C.ar    1  UNL1        0.1320
     24 N          -6.5236   -0.1280   -0.0662 N.ar    1  UNL1       -0.2372
     25 C          -7.5373   -0.9720   -0.2696 C.ar    1  UNL1        0.0663
     26 C          -7.3514   -2.0307   -1.1346 C.ar    1  UNL1        0.1594
     27 F          -8.3742   -2.9125   -1.3616 F       1  UNL1       -0.2023
     28 C          -6.1308   -2.1688   -1.7486 C.ar    1  UNL1        0.0663
     29 N          -5.1689   -1.2822   -1.4920 N.ar    1  UNL1       -0.2372
     30 N          -3.2588    0.5733    3.1972 N.am    1  UNL1       -0.1788
     31 O          -3.4445    1.9059    3.4065 O.3     1  UNL1       -0.2921
     32 C          -2.8372   -0.2136    4.2974 C.2     1  UNL1        0.2256
     33 O          -2.6440    0.3004    5.4246 O.2     1  UNL1       -0.2772
     34 C           1.6018    0.7453    0.7032 C.3     1  UNL1        0.0204
     35 C           2.0437    1.0043   -0.7387 C.3     1  UNL1       -0.0357
     36 C           5.6424    0.8654   -0.1742 C.ar    1  UNL1       -0.0525
     37 H           6.0538    0.4163    2.7550 H       1  UNL1        0.0278
     38 H           7.8097    0.7970    2.3750 H       1  UNL1        0.0278
     39 H           6.5131    2.0335    2.1091 H       1  UNL1        0.0278
     40 H           8.1914   -1.0107    0.9381 H       1  UNL1        0.0832
     41 H           5.9075   -0.6473   -3.9865 H       1  UNL1        0.0293
     42 H           7.3696   -1.5096   -3.4706 H       1  UNL1        0.0293
     43 H           5.7297   -2.2675   -3.1757 H       1  UNL1        0.0293
     44 H           4.1815    1.8346   -2.0695 H       1  UNL1        0.0314
     45 H           4.9310    1.0189   -3.4341 H       1  UNL1        0.0314
     46 H           2.6086    0.3006   -3.3054 H       1  UNL1        0.0271
     47 H           3.6738   -1.0671   -2.9756 H       1  UNL1        0.0271
     48 H           3.3818   -0.6385   -0.4621 H       1  UNL1        0.0302
     49 H           1.1958   -1.3149   -2.3667 H       1  UNL1        0.0281
     50 H           1.9270   -2.3058   -1.0805 H       1  UNL1        0.0281
     51 H          -0.4350   -0.3344   -1.0386 H       1  UNL1        0.0444
     52 H          -0.2062   -1.8868   -0.2121 H       1  UNL1        0.0444
     53 H          -2.2742   -1.3510    0.6165 H       1  UNL1        0.0538
     54 H          -1.8479   -1.3025    2.3329 H       1  UNL1        0.0538
     55 H          -4.1599   -1.7989    2.9328 H       1  UNL1        0.0252
     56 H          -5.4426   -0.6851    2.4322 H       1  UNL1        0.0252
     57 H          -4.6340   -1.7695    1.1799 H       1  UNL1        0.0252
     58 H          -3.3121    1.9493    1.0839 H       1  UNL1        0.0294
     59 H          -4.9517    1.3843    1.3896 H       1  UNL1        0.0294
     60 H          -3.3140    0.3740   -1.0241 H       1  UNL1        0.0377
     61 H          -5.3749    2.5329   -0.4778 H       1  UNL1        0.0236
     62 H          -5.1140    1.6968   -2.0931 H       1  UNL1        0.0236
     63 H          -3.7162    2.5750   -1.2996 H       1  UNL1        0.0236
     64 H          -8.5074   -0.8626    0.2179 H       1  UNL1        0.0860
     65 H          -5.9912   -2.9968   -2.4228 H       1  UNL1        0.0860
     66 H          -4.3931    2.0881    3.2996 H       1  UNL1        0.2417
     67 H          -2.6709   -1.2740    4.1968 H       1  UNL1        0.1274
     68 H           1.2964    1.7114    1.1478 H       1  UNL1        0.0444
     69 H           2.5051    0.4034    1.2394 H       1  UNL1        0.0444
     70 H           1.1705    1.2419   -1.3847 H       1  UNL1        0.0281
     71 H           2.7550    1.8391   -0.6763 H       1  UNL1        0.0281
     72 H           4.9763    1.6655    0.1330 H       1  UNL1        0.0624
@<TRIPOS>BOND
     1     1     2    1
     2     2     3   ar
     3     3     4   ar
     4     4     5   ar
     5     5     6    1
     6     5     7   ar
     7     7     8    1
     8     8     9    1
     9     9    10    1
    10    10    11    1
    11    11    12    1
    12    12    13    1
    13    13    14    1
    14    14    15    2
    15    14    16    2
    16    14    17    1
    17    17    18    1
    18    18    19    1
    19    18    20    1
    20    20    21    1
    21    21    22    1
    22    21    23    1
    23    23    24   ar
    24    24    25   ar
    25    25    26   ar
    26    26    27    1
    27    26    28   ar
    28    28    29   ar
    29    18    30    1
    30    30    31    1
    31    30    32   am
    32    32    33    2
    33    13    34    1
    34    34    35    1
    35     7    36   ar
    36    36     2   ar
    37    35    10    1
    38    29    23   ar
    39     1    37    1
    40     1    38    1
    41     1    39    1
    42     3    40    1
    43     6    41    1
    44     6    42    1
    45     6    43    1
    46     8    44    1
    47     8    45    1
    48     9    46    1
    49     9    47    1
    50    10    48    1
    51    11    49    1
    52    11    50    1
    53    12    51    1
    54    12    52    1
    55    17    53    1
    56    17    54    1
    57    19    55    1
    58    19    56    1
    59    19    57    1
    60    20    58    1
    61    20    59    1
    62    21    60    1
    63    22    61    1
    64    22    62    1
    65    22    63    1
    66    25    64    1
    67    28    65    1
    68    31    66    1
    69    32    67    1
    70    34    68    1
    71    34    69    1
    72    35    70    1
    73    35    71    1
    74    36    72    1
