
     RDKit          3D

 20 20  0  0  0  0  0  0  0  0999 V2000
    3.7310   -0.2446    0.0342 C   0  0  0  0  0  0  0  0  0  0  0  0
    2.3620   -0.3073   -0.5853 C   0  0  0  0  0  0  0  0  0  0  0  0
    2.1279   -0.6090   -1.7757 O   0  0  0  0  0  0  0  0  0  0  0  0
    1.3581    0.0192    0.3485 N   0  0  0  0  0  0  0  0  0  0  0  0
   -0.0509    0.0762    0.1638 C   0  0  0  0  0  0  0  0  0  0  0  0
   -0.6749    1.2334   -0.2319 C   0  0  0  0  0  0  0  0  0  0  0  0
   -2.0420    1.3019   -0.4147 C   0  0  0  0  0  0  0  0  0  0  0  0
   -2.7624    0.1440   -0.1799 C   0  0  0  0  0  0  0  0  0  0  0  0
   -4.1486    0.1048   -0.3352 O   0  0  0  0  0  0  0  0  0  0  0  0
   -2.1580   -1.0526    0.2244 C   0  0  0  0  0  0  0  0  0  0  0  0
   -0.7771   -1.0760    0.3964 C   0  0  0  0  0  0  0  0  0  0  0  0
    3.7652   -1.0414    0.7915 H   0  0  0  0  0  0  0  0  0  0  0  0
    4.5166   -0.3482   -0.7321 H   0  0  0  0  0  0  0  0  0  0  0  0
    3.8190    0.7452    0.5549 H   0  0  0  0  0  0  0  0  0  0  0  0
    1.4826    0.2790    1.3518 H   0  0  0  0  0  0  0  0  0  0  0  0
   -0.1132    2.1476   -0.4181 H   0  0  0  0  0  0  0  0  0  0  0  0
   -2.6064    2.1637   -0.7214 H   0  0  0  0  0  0  0  0  0  0  0  0
   -4.7883    0.3850    0.4236 H   0  0  0  0  0  0  0  0  0  0  0  0
   -2.7519   -1.9318    0.3971 H   0  0  0  0  0  0  0  0  0  0  0  0
   -0.2886   -1.9890    0.7081 H   0  0  0  0  0  0  0  0  0  0  0  0
  1  2  1  0
  2  3  2  0
  2  4  1  0
  4  5  1  0
  5  6  2  0
  6  7  1  0
  7  8  2  0
  8  9  1  0
  8 10  1  0
 10 11  2  0
 11  5  1  0
  1 12  1  0
  1 13  1  0
  1 14  1  0
  4 15  1  0
  6 16  1  0
  7 17  1  0
  9 18  1  0
 10 19  1  0
 11 20  1  0
M  END
$$$$
