
     RDKit          3D

 30 32  0  0  0  0  0  0  0  0999 V2000
   -4.6261    1.0535   -0.3151 C   0  0  0  0  0  0  0  0  0  0  0  0
   -3.7865   -0.0564    0.1755 C   0  0  0  0  0  0  0  0  0  0  0  0
   -4.3522   -1.1727    0.7838 C   0  0  0  0  0  0  0  0  0  0  0  0
   -3.5655   -2.2081    1.2412 C   0  0  0  0  0  0  0  0  0  0  0  0
   -4.0863   -3.2328    1.7997 O   0  0  0  0  0  0  0  0  0  0  0  0
   -2.2640   -2.1233    1.0924 O   0  0  0  0  0  0  0  0  0  0  0  0
   -1.6945   -1.0842    0.5227 C   0  0  0  0  0  0  0  0  0  0  0  0
   -0.3330   -1.0557    0.3975 C   0  0  0  0  0  0  0  0  0  0  0  0
    0.3562   -0.0137   -0.1835 C   0  0  0  0  0  0  0  0  0  0  0  0
    1.7388   -0.0482   -0.2788 O   0  0  0  0  0  0  0  0  0  0  0  0
    2.5992    0.4381    0.6720 C   0  0  0  0  0  0  0  0  0  0  0  0
    2.0985    0.9527    1.7049 O   0  0  0  0  0  0  0  0  0  0  0  0
    4.0543    0.3918    0.5519 C   0  0  0  0  0  0  0  0  0  0  0  0
    4.7879   -0.1276   -0.4951 C   0  0  0  0  0  0  0  0  0  0  0  0
    6.1460    0.0261   -0.2155 C   0  0  0  0  0  0  0  0  0  0  0  0
    6.1465    0.6534    1.0319 C   0  0  0  0  0  0  0  0  0  0  0  0
    4.9307    0.8358    1.4180 O   0  0  0  0  0  0  0  0  0  0  0  0
   -0.3759    1.0495   -0.6594 C   0  0  0  0  0  0  0  0  0  0  0  0
   -1.7641    1.0434   -0.5432 C   0  0  0  0  0  0  0  0  0  0  0  0
   -2.4129   -0.0236    0.0470 C   0  0  0  0  0  0  0  0  0  0  0  0
   -4.2101    2.0486   -0.0419 H   0  0  0  0  0  0  0  0  0  0  0  0
   -4.8226    0.9857   -1.4037 H   0  0  0  0  0  0  0  0  0  0  0  0
   -5.6262    1.0083    0.2058 H   0  0  0  0  0  0  0  0  0  0  0  0
   -5.4287   -1.2488    0.9098 H   0  0  0  0  0  0  0  0  0  0  0  0
    0.2459   -1.8859    0.7684 H   0  0  0  0  0  0  0  0  0  0  0  0
    4.3927   -0.5813   -1.3898 H   0  0  0  0  0  0  0  0  0  0  0  0
    6.9816   -0.2637   -0.8079 H   0  0  0  0  0  0  0  0  0  0  0  0
    7.0883    0.9109    1.5259 H   0  0  0  0  0  0  0  0  0  0  0  0
    0.1403    1.8754   -1.1174 H   0  0  0  0  0  0  0  0  0  0  0  0
   -2.3583    1.8526   -0.9024 H   0  0  0  0  0  0  0  0  0  0  0  0
  1  2  1  0
  2  3  2  0
  3  4  1  0
  4  5  2  0
  4  6  1  0
  6  7  1  0
  7  8  2  0
  8  9  1  0
  9 10  1  0
 10 11  1  0
 11 12  2  0
 11 13  1  0
 13 14  2  0
 14 15  1  0
 15 16  2  0
 16 17  1  0
  9 18  2  0
 18 19  1  0
 19 20  2  0
 20  2  1  0
 20  7  1  0
 17 13  1  0
  1 21  1  0
  1 22  1  0
  1 23  1  0
  3 24  1  0
  8 25  1  0
 14 26  1  0
 15 27  1  0
 16 28  1  0
 18 29  1  0
 19 30  1  0
M  END
$$$$
