@<TRIPOS>MOLECULE
*****
 30 32 0 0 0
SMALL
GASTEIGER

@<TRIPOS>ATOM
      1 C          -4.6261    1.0535   -0.3151 C.3     1  UNL1       -0.0388
      2 C          -3.7865   -0.0564    0.1755 C.ar    1  UNL1       -0.0330
      3 C          -4.3522   -1.1727    0.7838 C.ar    1  UNL1        0.0265
      4 C          -3.5655   -2.2081    1.2412 C.ar    1  UNL1        0.3375
      5 O          -4.0863   -3.2328    1.7997 O.2     1  UNL1       -0.2452
      6 O          -2.2640   -2.1233    1.0924 O.2     1  UNL1       -0.4220
      7 C          -1.6945   -1.0842    0.5227 C.ar    1  UNL1        0.1428
      8 C          -0.3330   -1.0557    0.3975 C.ar    1  UNL1        0.0238
      9 C           0.3562   -0.0137   -0.1835 C.ar    1  UNL1        0.1356
     10 O           1.7388   -0.0482   -0.2788 O.3     1  UNL1       -0.4201
     11 C           2.5992    0.4381    0.6720 C.2     1  UNL1        0.3801
     12 O           2.0985    0.9527    1.7049 O.2     1  UNL1       -0.2410
     13 C           4.0543    0.3918    0.5519 C.ar    1  UNL1        0.2116
     14 C           4.7879   -0.1276   -0.4951 C.ar    1  UNL1       -0.0093
     15 C           6.1460    0.0261   -0.2155 C.ar    1  UNL1       -0.0231
     16 C           6.1465    0.6534    1.0319 C.ar    1  UNL1        0.0929
     17 O           4.9307    0.8358    1.4180 O.2     1  UNL1       -0.4563
     18 C          -0.3759    1.0495   -0.6594 C.ar    1  UNL1       -0.0184
     19 C          -1.7641    1.0434   -0.5432 C.ar    1  UNL1       -0.0474
     20 C          -2.4129   -0.0236    0.0470 C.ar    1  UNL1        0.0207
     21 H          -4.2101    2.0486   -0.0419 H       1  UNL1        0.0278
     22 H          -4.8226    0.9857   -1.4037 H       1  UNL1        0.0278
     23 H          -5.6262    1.0083    0.2058 H       1  UNL1        0.0278
     24 H          -5.4287   -1.2488    0.9098 H       1  UNL1        0.0692
     25 H           0.2459   -1.8859    0.7684 H       1  UNL1        0.0691
     26 H           4.3927   -0.5813   -1.3898 H       1  UNL1        0.0657
     27 H           6.9816   -0.2637   -0.8079 H       1  UNL1        0.0649
     28 H           7.0883    0.9109    1.5259 H       1  UNL1        0.1029
     29 H           0.1403    1.8754   -1.1174 H       1  UNL1        0.0654
     30 H          -2.3583    1.8526   -0.9024 H       1  UNL1        0.0626
@<TRIPOS>BOND
     1     1     2    1
     2     2     3   ar
     3     3     4   ar
     4     4     5    2
     5     4     6   ar
     6     6     7   ar
     7     7     8   ar
     8     8     9   ar
     9     9    10    1
    10    10    11    1
    11    11    12    2
    12    11    13    1
    13    13    14   ar
    14    14    15   ar
    15    15    16   ar
    16    16    17   ar
    17     9    18   ar
    18    18    19   ar
    19    19    20   ar
    20    20     2   ar
    21    20     7   ar
    22    17    13   ar
    23     1    21    1
    24     1    22    1
    25     1    23    1
    26     3    24    1
    27     8    25    1
    28    14    26    1
    29    15    27    1
    30    16    28    1
    31    18    29    1
    32    19    30    1
