@<TRIPOS>MOLECULE
*****
 37 40 0 0 0
SMALL
GASTEIGER

@<TRIPOS>ATOM
      1 O          -5.5650    1.1563   -2.6405 O.2     1  UNL1       -0.2490
      2 C          -4.6381    1.0822   -1.8004 C.2     1  UNL1        0.3247
      3 O          -4.8505    1.6716   -0.5683 O.3     1  UNL1       -0.4794
      4 C          -3.3727    0.3795   -2.1506 C.3     1  UNL1        0.1202
      5 N          -2.4398    0.4083   -1.0430 N.ar    1  UNL1       -0.3356
      6 C          -1.5075    1.3424   -0.7880 C.ar    1  UNL1        0.0099
      7 C          -0.8186    0.9898    0.3813 C.ar    1  UNL1       -0.0158
      8 C           0.2705    1.7923    0.9217 C.3     1  UNL1        0.0233
      9 C           1.6037    1.2046    0.5678 C.ar    1  UNL1        0.0839
     10 N           2.4342    1.1349   -0.2446 N.ar    1  UNL1       -0.2436
     11 C           3.5789    0.4947   -0.2374 C.ar    1  UNL1        0.0813
     12 C           4.5580    0.4318   -1.2349 C.ar    1  UNL1       -0.0350
     13 C           5.7025   -0.3016   -1.0346 C.ar    1  UNL1       -0.0570
     14 C           5.9657   -1.0049    0.1185 C.ar    1  UNL1       -0.0252
     15 C           5.0024   -0.9505    1.1156 C.ar    1  UNL1        0.1391
     16 F           5.1660   -1.6033    2.2793 F       1  UNL1       -0.2043
     17 C           3.8420   -0.2090    0.9167 C.ar    1  UNL1        0.0743
     18 S           2.4078    0.1151    1.8977 S.2     1  UNL1       -0.0689
     19 C          -1.3917   -0.1859    0.7916 C.ar    1  UNL1        0.0034
     20 C          -1.1274   -0.9889    1.8774 C.ar    1  UNL1       -0.0523
     21 C          -1.8777   -2.1314    2.0460 C.ar    1  UNL1       -0.0611
     22 C          -2.8796   -2.5131    1.1852 C.ar    1  UNL1       -0.0598
     23 C          -3.1433   -1.7082    0.0994 C.ar    1  UNL1       -0.0376
     24 C          -2.4076   -0.5514   -0.1006 C.ar    1  UNL1        0.0498
     25 H          -5.4379    2.5132   -0.4711 H       1  UNL1        0.2951
     26 H          -2.9468    0.9199   -3.0302 H       1  UNL1        0.0607
     27 H          -3.5845   -0.6693   -2.4546 H       1  UNL1        0.0607
     28 H          -1.3200    2.2218   -1.3876 H       1  UNL1        0.0812
     29 H           0.2552    2.8508    0.5671 H       1  UNL1        0.0383
     30 H           0.1377    1.8708    2.0348 H       1  UNL1        0.0383
     31 H           4.4390    0.9621   -2.1960 H       1  UNL1        0.0639
     32 H           6.4431   -0.3138   -1.8628 H       1  UNL1        0.0619
     33 H           6.8762   -1.5565    0.2121 H       1  UNL1        0.0646
     34 H          -0.3458   -0.6972    2.5662 H       1  UNL1        0.0624
     35 H          -1.6583   -2.7625    2.9133 H       1  UNL1        0.0618
     36 H          -3.4484   -3.4252    1.3561 H       1  UNL1        0.0618
     37 H          -3.9217   -1.9696   -0.6024 H       1  UNL1        0.0638
@<TRIPOS>BOND
     1     1     2    2
     2     2     3    1
     3     2     4    1
     4     4     5    1
     5     5     6   ar
     6     6     7   ar
     7     7     8    1
     8     8     9    1
     9     9    10   ar
    10    10    11   ar
    11    11    12   ar
    12    12    13   ar
    13    13    14   ar
    14    14    15   ar
    15    15    16    1
    16    15    17   ar
    17    17    18   ar
    18     7    19   ar
    19    19    20   ar
    20    20    21   ar
    21    21    22   ar
    22    22    23   ar
    23    23    24   ar
    24    24     5   ar
    25    18     9   ar
    26    24    19   ar
    27    17    11   ar
    28     3    25    1
    29     4    26    1
    30     4    27    1
    31     6    28    1
    32     8    29    1
    33     8    30    1
    34    12    31    1
    35    13    32    1
    36    14    33    1
    37    20    34    1
    38    21    35    1
    39    22    36    1
    40    23    37    1
