
     RDKit          3D

 37 40  0  0  0  0  0  0  0  0999 V2000
   -5.5650    1.1563   -2.6405 O   0  0  0  0  0  0  0  0  0  0  0  0
   -4.6381    1.0822   -1.8004 C   0  0  0  0  0  0  0  0  0  0  0  0
   -4.8505    1.6716   -0.5683 O   0  0  0  0  0  0  0  0  0  0  0  0
   -3.3727    0.3795   -2.1506 C   0  0  0  0  0  0  0  0  0  0  0  0
   -2.4398    0.4083   -1.0430 N   0  0  0  0  0  0  0  0  0  0  0  0
   -1.5075    1.3424   -0.7880 C   0  0  0  0  0  0  0  0  0  0  0  0
   -0.8186    0.9898    0.3813 C   0  0  0  0  0  0  0  0  0  0  0  0
    0.2705    1.7923    0.9217 C   0  0  0  0  0  0  0  0  0  0  0  0
    1.6037    1.2046    0.5678 C   0  0  0  0  0  0  0  0  0  0  0  0
    2.4342    1.1349   -0.2446 N   0  0  0  0  0  0  0  0  0  0  0  0
    3.5789    0.4947   -0.2374 C   0  0  0  0  0  0  0  0  0  0  0  0
    4.5580    0.4318   -1.2349 C   0  0  0  0  0  0  0  0  0  0  0  0
    5.7025   -0.3016   -1.0346 C   0  0  0  0  0  0  0  0  0  0  0  0
    5.9657   -1.0049    0.1185 C   0  0  0  0  0  0  0  0  0  0  0  0
    5.0024   -0.9505    1.1156 C   0  0  0  0  0  0  0  0  0  0  0  0
    5.1660   -1.6033    2.2793 F   0  0  0  0  0  0  0  0  0  0  0  0
    3.8420   -0.2090    0.9167 C   0  0  0  0  0  0  0  0  0  0  0  0
    2.4078    0.1151    1.8977 S   0  0  0  0  0  0  0  0  0  0  0  0
   -1.3917   -0.1859    0.7916 C   0  0  0  0  0  0  0  0  0  0  0  0
   -1.1274   -0.9889    1.8774 C   0  0  0  0  0  0  0  0  0  0  0  0
   -1.8777   -2.1314    2.0460 C   0  0  0  0  0  0  0  0  0  0  0  0
   -2.8796   -2.5131    1.1852 C   0  0  0  0  0  0  0  0  0  0  0  0
   -3.1433   -1.7082    0.0994 C   0  0  0  0  0  0  0  0  0  0  0  0
   -2.4076   -0.5514   -0.1006 C   0  0  0  0  0  0  0  0  0  0  0  0
   -5.4379    2.5132   -0.4711 H   0  0  0  0  0  0  0  0  0  0  0  0
   -2.9468    0.9199   -3.0302 H   0  0  0  0  0  0  0  0  0  0  0  0
   -3.5845   -0.6693   -2.4546 H   0  0  0  0  0  0  0  0  0  0  0  0
   -1.3200    2.2218   -1.3876 H   0  0  0  0  0  0  0  0  0  0  0  0
    0.2552    2.8508    0.5671 H   0  0  0  0  0  0  0  0  0  0  0  0
    0.1377    1.8708    2.0348 H   0  0  0  0  0  0  0  0  0  0  0  0
    4.4390    0.9621   -2.1960 H   0  0  0  0  0  0  0  0  0  0  0  0
    6.4431   -0.3138   -1.8628 H   0  0  0  0  0  0  0  0  0  0  0  0
    6.8762   -1.5565    0.2121 H   0  0  0  0  0  0  0  0  0  0  0  0
   -0.3458   -0.6972    2.5662 H   0  0  0  0  0  0  0  0  0  0  0  0
   -1.6583   -2.7625    2.9133 H   0  0  0  0  0  0  0  0  0  0  0  0
   -3.4484   -3.4252    1.3561 H   0  0  0  0  0  0  0  0  0  0  0  0
   -3.9217   -1.9696   -0.6024 H   0  0  0  0  0  0  0  0  0  0  0  0
  1  2  2  0
  2  3  1  0
  2  4  1  0
  4  5  1  0
  5  6  1  0
  6  7  2  0
  7  8  1  0
  8  9  1  0
  9 10  2  0
 10 11  1  0
 11 12  2  0
 12 13  1  0
 13 14  2  0
 14 15  1  0
 15 16  1  0
 15 17  2  0
 17 18  1  0
  7 19  1  0
 19 20  2  0
 20 21  1  0
 21 22  2  0
 22 23  1  0
 23 24  2  0
 24  5  1  0
 18  9  1  0
 24 19  1  0
 17 11  1  0
  3 25  1  0
  4 26  1  0
  4 27  1  0
  6 28  1  0
  8 29  1  0
  8 30  1  0
 12 31  1  0
 13 32  1  0
 14 33  1  0
 20 34  1  0
 21 35  1  0
 22 36  1  0
 23 37  1  0
M  END
$$$$
