@<TRIPOS>MOLECULE
*****
 51 55 0 0 0
SMALL
GASTEIGER

@<TRIPOS>ATOM
      1 C          -4.2678   -0.1529    3.1538 C.3     1  UNL1       -0.0377
      2 C          -2.9361   -0.1589    2.5246 C.ar    1  UNL1       -0.0243
      3 C          -1.8687   -0.6911    3.2330 C.ar    1  UNL1       -0.0536
      4 C          -0.6337   -0.6753    2.6003 C.ar    1  UNL1       -0.0212
      5 C          -0.5080   -0.1433    1.3165 C.ar    1  UNL1        0.1256
      6 N           0.8305   -0.2224    0.8519 N.am    1  UNL1       -0.2696
      7 C           1.2589   -1.3683    0.1411 C.2     1  UNL1        0.2288
      8 O           0.3279   -2.2346   -0.0036 O.2     1  UNL1       -0.2745
      9 C           2.5730   -1.7168   -0.4476 C.3     1  UNL1        0.0723
     10 C           2.6524   -2.6389   -1.6047 C.3     1  UNL1       -0.0337
     11 C           2.9263   -3.1767   -0.2612 C.3     1  UNL1       -0.0337
     12 C           3.6538   -0.7390   -0.2117 C.ar    1  UNL1       -0.0288
     13 C           4.0101   -0.1857    0.9864 C.ar    1  UNL1       -0.0539
     14 C           5.0032    0.7286    1.1808 C.ar    1  UNL1       -0.0156
     15 C           5.7402    1.1614    0.0985 C.ar    1  UNL1        0.1727
     16 O           6.7847    2.0623    0.0002 O.3     1  UNL1       -0.3955
     17 C           7.3433    1.9227   -1.2998 C.3     1  UNL1        0.5891
     18 F           7.6385    3.1566   -1.8436 F       1  UNL1       -0.1252
     19 F           8.4849    1.1597   -1.1363 F       1  UNL1       -0.1252
     20 O           6.3287    1.2557   -2.0185 O.3     1  UNL1       -0.3954
     21 C           5.4369    0.6442   -1.1489 C.ar    1  UNL1        0.1729
     22 C           4.4175   -0.2822   -1.2898 C.ar    1  UNL1       -0.0118
     23 N          -1.5655    0.3542    0.6833 N.ar    1  UNL1       -0.2316
     24 C          -2.7920    0.3628    1.2557 C.ar    1  UNL1        0.0760
     25 C          -3.8876    0.9308    0.4786 C.ar    1  UNL1        0.0014
     26 C          -3.9442    0.5396   -0.8442 C.ar    1  UNL1       -0.0386
     27 C          -4.9553    1.0393   -1.6362 C.ar    1  UNL1        0.0595
     28 C          -5.9114    1.9129   -1.1614 C.ar    1  UNL1       -0.0477
     29 C          -5.8517    2.3024    0.1636 C.ar    1  UNL1       -0.0604
     30 C          -4.8380    1.8001    0.9531 C.ar    1  UNL1       -0.0525
     31 C          -5.1458    0.7147   -3.0625 C.2     1  UNL1        0.3368
     32 O          -4.3634   -0.1278   -3.8401 O.3     1  UNL1       -0.4771
     33 O          -6.0466    1.1404   -3.8273 O.2     1  UNL1       -0.2451
     34 H          -4.3309   -1.0716    3.8025 H       1  UNL1        0.0278
     35 H          -5.1037   -0.2404    2.4444 H       1  UNL1        0.0278
     36 H          -4.3786    0.6931    3.8814 H       1  UNL1        0.0278
     37 H          -2.0262   -1.0862    4.2174 H       1  UNL1        0.0622
     38 H           0.1708   -1.1025    3.1942 H       1  UNL1        0.0652
     39 H           1.5642    0.5068    0.9755 H       1  UNL1        0.1562
     40 H           3.5216   -2.4962   -2.2776 H       1  UNL1        0.0279
     41 H           1.7456   -2.9555   -2.1526 H       1  UNL1        0.0279
     42 H           3.9253   -3.3723    0.1283 H       1  UNL1        0.0279
     43 H           2.1438   -3.8898    0.1168 H       1  UNL1        0.0279
     44 H           3.4833   -0.4903    1.8667 H       1  UNL1        0.0622
     45 H           5.2317    1.1283    2.1715 H       1  UNL1        0.0655
     46 H           4.2753   -0.6102   -2.3072 H       1  UNL1        0.0658
     47 H          -3.2774   -0.1360   -1.3776 H       1  UNL1        0.0632
     48 H          -6.7221    2.3296   -1.7472 H       1  UNL1        0.0626
     49 H          -6.5706    2.9881    0.6083 H       1  UNL1        0.0618
     50 H          -4.7797    2.0901    1.9715 H       1  UNL1        0.0624
     51 H          -4.7673   -0.9594   -4.2875 H       1  UNL1        0.2954
@<TRIPOS>BOND
     1     1     2    1
     2     2     3   ar
     3     3     4   ar
     4     4     5   ar
     5     5     6    1
     6     6     7   am
     7     7     8    2
     8     7     9    1
     9     9    10    1
    10    10    11    1
    11     9    12    1
    12    12    13   ar
    13    13    14   ar
    14    14    15   ar
    15    15    16    1
    16    16    17    1
    17    17    18    1
    18    17    19    1
    19    17    20    1
    20    20    21    1
    21    21    22   ar
    22     5    23   ar
    23    23    24   ar
    24    24    25    1
    25    25    26   ar
    26    26    27   ar
    27    27    28   ar
    28    28    29   ar
    29    29    30   ar
    30    27    31    1
    31    31    32    1
    32    31    33    2
    33    24     2   ar
    34    30    25   ar
    35    11     9    1
    36    22    12   ar
    37    21    15   ar
    38     1    34    1
    39     1    35    1
    40     1    36    1
    41     3    37    1
    42     4    38    1
    43     6    39    1
    44    10    40    1
    45    10    41    1
    46    11    42    1
    47    11    43    1
    48    13    44    1
    49    14    45    1
    50    22    46    1
    51    26    47    1
    52    28    48    1
    53    29    49    1
    54    30    50    1
    55    32    51    1
