
     RDKit          3D

 50 54  0  0  0  0  0  0  0  0999 V2000
   -4.6390   -0.3977    3.4449 O   0  0  0  0  0  0  0  0  0  0  0  0
   -3.4051   -0.1639    3.5066 C   0  0  0  0  0  0  0  0  0  0  0  0
   -2.6824   -0.2051    4.6450 N   0  0  0  0  0  0  0  0  0  0  0  0
   -1.4530    0.0960    4.2849 N   0  0  0  0  0  0  0  0  0  0  0  0
   -1.3778    0.3257    2.9557 C   0  0  0  0  0  0  0  0  0  0  0  0
   -0.2098    0.6846    2.1623 C   0  0  0  0  0  0  0  0  0  0  0  0
   -0.0027    1.9931    1.7813 C   0  0  0  0  0  0  0  0  0  0  0  0
    1.1063    2.3609    1.0226 C   0  0  0  0  0  0  0  0  0  0  0  0
    1.9756    1.3960    0.6699 N   0  0  0  0  0  0  0  0  0  0  0  0
    1.8352    0.1025    1.0066 C   0  0  0  0  0  0  0  0  0  0  0  0
    2.8026   -0.8513    0.5908 N   0  0  0  0  0  0  0  0  0  0  0  0
    3.9385   -0.4320   -0.1971 C   0  0  0  0  0  0  0  0  0  0  0  0
    4.8502   -1.6169   -0.5131 C   0  0  0  0  0  0  0  0  0  0  0  0
    6.1249   -1.0126   -1.1108 C   0  0  0  0  0  0  0  0  0  0  0  0
    5.9036    0.2781   -1.5380 O   0  0  0  0  0  0  0  0  0  0  0  0
    4.7827    0.3730   -2.3530 C   0  0  0  0  0  0  0  0  0  0  0  0
    3.5217    0.1192   -1.5557 C   0  0  0  0  0  0  0  0  0  0  0  0
    0.7305   -0.2390    1.7575 C   0  0  0  0  0  0  0  0  0  0  0  0
   -2.6146    0.1611    2.4614 N   0  0  0  0  0  0  0  0  0  0  0  0
   -3.0160    0.3018    1.0999 C   0  0  0  0  0  0  0  0  0  0  0  0
   -3.1267    1.5563    0.5370 C   0  0  0  0  0  0  0  0  0  0  0  0
   -3.5147    1.7182   -0.7822 C   0  0  0  0  0  0  0  0  0  0  0  0
   -3.8059    0.6326   -1.5863 C   0  0  0  0  0  0  0  0  0  0  0  0
   -4.1949    0.7909   -2.9087 C   0  0  0  0  0  0  0  0  0  0  0  0
   -4.4779   -0.3151   -3.6832 C   0  0  0  0  0  0  0  0  0  0  0  0
   -4.8593   -0.1780   -4.9766 F   0  0  0  0  0  0  0  0  0  0  0  0
   -4.3803   -1.5914   -3.1609 C   0  0  0  0  0  0  0  0  0  0  0  0
   -3.9909   -1.7091   -1.8430 C   0  0  0  0  0  0  0  0  0  0  0  0
   -3.6999   -0.6283   -1.0382 C   0  0  0  0  0  0  0  0  0  0  0  0
   -3.3074   -0.7786    0.2942 C   0  0  0  0  0  0  0  0  0  0  0  0
   -3.0278   -0.4283    5.6036 H   0  0  0  0  0  0  0  0  0  0  0  0
   -0.6920    2.7618    2.0604 H   0  0  0  0  0  0  0  0  0  0  0  0
    1.2891    3.3804    0.7124 H   0  0  0  0  0  0  0  0  0  0  0  0
    2.7163   -1.8526    0.8395 H   0  0  0  0  0  0  0  0  0  0  0  0
    4.5578    0.3369    0.3128 H   0  0  0  0  0  0  0  0  0  0  0  0
    5.0792   -2.2192    0.3791 H   0  0  0  0  0  0  0  0  0  0  0  0
    4.3462   -2.1965   -1.3218 H   0  0  0  0  0  0  0  0  0  0  0  0
    6.9537   -1.0014   -0.3754 H   0  0  0  0  0  0  0  0  0  0  0  0
    6.4433   -1.6124   -2.0082 H   0  0  0  0  0  0  0  0  0  0  0  0
    4.8689   -0.3264   -3.2337 H   0  0  0  0  0  0  0  0  0  0  0  0
    4.6998    1.3808   -2.7937 H   0  0  0  0  0  0  0  0  0  0  0  0
    2.9852   -0.7339   -2.0646 H   0  0  0  0  0  0  0  0  0  0  0  0
    2.8822    1.0008   -1.4873 H   0  0  0  0  0  0  0  0  0  0  0  0
    0.6223   -1.2744    2.0243 H   0  0  0  0  0  0  0  0  0  0  0  0
   -2.9069    2.4357    1.1339 H   0  0  0  0  0  0  0  0  0  0  0  0
   -3.6086    2.6982   -1.2465 H   0  0  0  0  0  0  0  0  0  0  0  0
   -4.2818    1.7764   -3.3498 H   0  0  0  0  0  0  0  0  0  0  0  0
   -4.6092   -2.4404   -3.7941 H   0  0  0  0  0  0  0  0  0  0  0  0
   -3.9065   -2.6951   -1.4095 H   0  0  0  0  0  0  0  0  0  0  0  0
   -3.2246   -1.7613    0.7215 H   0  0  0  0  0  0  0  0  0  0  0  0
  1  2  2  0
  2  3  1  0
  3  4  1  0
  4  5  2  0
  5  6  1  0
  6  7  2  0
  7  8  1  0
  8  9  2  0
  9 10  1  0
 10 11  1  0
 11 12  1  0
 12 13  1  0
 13 14  1  0
 14 15  1  0
 15 16  1  0
 16 17  1  0
 10 18  2  0
  5 19  1  0
 19 20  1  0
 20 21  2  0
 21 22  1  0
 22 23  2  0
 23 24  1  0
 24 25  2  0
 25 26  1  0
 25 27  1  0
 27 28  2  0
 28 29  1  0
 29 30  2  0
 19  2  1  0
 30 20  1  0
 18  6  1  0
 29 23  1  0
 17 12  1  0
  3 31  1  0
  7 32  1  0
  8 33  1  0
 11 34  1  0
 12 35  1  0
 13 36  1  0
 13 37  1  0
 14 38  1  0
 14 39  1  0
 16 40  1  0
 16 41  1  0
 17 42  1  0
 17 43  1  0
 18 44  1  0
 21 45  1  0
 22 46  1  0
 24 47  1  0
 27 48  1  0
 28 49  1  0
 30 50  1  0
M  END
$$$$
