@<TRIPOS>MOLECULE
*****
 50 54 0 0 0
SMALL
GASTEIGER

@<TRIPOS>ATOM
      1 O          -4.6390   -0.3977    3.4449 O.2     1  UNL1       -0.2446
      2 C          -3.4051   -0.1639    3.5066 C.ar    1  UNL1        0.3489
      3 N          -2.6824   -0.2051    4.6450 N.ar    1  UNL1       -0.2260
      4 N          -1.4530    0.0960    4.2849 N.ar    1  UNL1       -0.1509
      5 C          -1.3778    0.3257    2.9557 C.ar    1  UNL1        0.1693
      6 C          -0.2098    0.6846    2.1623 C.ar    1  UNL1        0.0243
      7 C          -0.0027    1.9931    1.7813 C.ar    1  UNL1       -0.0327
      8 C           1.1063    2.3609    1.0226 C.ar    1  UNL1        0.0304
      9 N           1.9756    1.3960    0.6699 N.ar    1  UNL1       -0.2405
     10 C           1.8352    0.1025    1.0066 C.ar    1  UNL1        0.1195
     11 N           2.8026   -0.8513    0.5908 N.pl3   1  UNL1       -0.3261
     12 C           3.9385   -0.4320   -0.1971 C.3     1  UNL1        0.0261
     13 C           4.8502   -1.6169   -0.5131 C.3     1  UNL1       -0.0109
     14 C           6.1249   -1.0126   -1.1108 C.3     1  UNL1        0.0493
     15 O           5.9036    0.2781   -1.5380 O.3     1  UNL1       -0.3796
     16 C           4.7827    0.3730   -2.3530 C.3     1  UNL1        0.0493
     17 C           3.5217    0.1192   -1.5557 C.3     1  UNL1       -0.0109
     18 C           0.7305   -0.2390    1.7575 C.ar    1  UNL1       -0.0112
     19 N          -2.6146    0.1611    2.4614 N.ar    1  UNL1       -0.2437
     20 C          -3.0160    0.3018    1.0999 C.ar    1  UNL1        0.0535
     21 C          -3.1267    1.5563    0.5370 C.ar    1  UNL1       -0.0370
     22 C          -3.5147    1.7182   -0.7822 C.ar    1  UNL1       -0.0520
     23 C          -3.8059    0.6326   -1.5863 C.ar    1  UNL1       -0.0150
     24 C          -4.1949    0.7909   -2.9087 C.ar    1  UNL1       -0.0187
     25 C          -4.4779   -0.3151   -3.6832 C.ar    1  UNL1        0.1240
     26 F          -4.8593   -0.1780   -4.9766 F       1  UNL1       -0.2055
     27 C          -4.3803   -1.5914   -3.1609 C.ar    1  UNL1       -0.0259
     28 C          -3.9909   -1.7091   -1.8430 C.ar    1  UNL1       -0.0513
     29 C          -3.6999   -0.6283   -1.0382 C.ar    1  UNL1       -0.0158
     30 C          -3.3074   -0.7786    0.2942 C.ar    1  UNL1       -0.0299
     31 H          -3.0278   -0.4283    5.6036 H       1  UNL1        0.1937
     32 H          -0.6920    2.7618    2.0604 H       1  UNL1        0.0640
     33 H           1.2891    3.3804    0.7124 H       1  UNL1        0.0830
     34 H           2.7163   -1.8526    0.8395 H       1  UNL1        0.1477
     35 H           4.5578    0.3369    0.3128 H       1  UNL1        0.0499
     36 H           5.0792   -2.2192    0.3791 H       1  UNL1        0.0305
     37 H           4.3462   -2.1965   -1.3218 H       1  UNL1        0.0305
     38 H           6.9537   -1.0014   -0.3754 H       1  UNL1        0.0560
     39 H           6.4433   -1.6124   -2.0082 H       1  UNL1        0.0560
     40 H           4.8689   -0.3264   -3.2337 H       1  UNL1        0.0560
     41 H           4.6998    1.3808   -2.7937 H       1  UNL1        0.0560
     42 H           2.9852   -0.7339   -2.0646 H       1  UNL1        0.0305
     43 H           2.8822    1.0008   -1.4873 H       1  UNL1        0.0305
     44 H           0.6223   -1.2744    2.0243 H       1  UNL1        0.0659
     45 H          -2.9069    2.4357    1.1339 H       1  UNL1        0.0638
     46 H          -3.6086    2.6982   -1.2465 H       1  UNL1        0.0624
     47 H          -4.2818    1.7764   -3.3498 H       1  UNL1        0.0652
     48 H          -4.6092   -2.4404   -3.7941 H       1  UNL1        0.0646
     49 H          -3.9065   -2.6951   -1.4095 H       1  UNL1        0.0624
     50 H          -3.2246   -1.7613    0.7215 H       1  UNL1        0.0644
@<TRIPOS>BOND
     1     1     2    2
     2     2     3   ar
     3     3     4   ar
     4     4     5   ar
     5     5     6    1
     6     6     7   ar
     7     7     8   ar
     8     8     9   ar
     9     9    10   ar
    10    10    11    1
    11    11    12    1
    12    12    13    1
    13    13    14    1
    14    14    15    1
    15    15    16    1
    16    16    17    1
    17    10    18   ar
    18     5    19   ar
    19    19    20    1
    20    20    21   ar
    21    21    22   ar
    22    22    23   ar
    23    23    24   ar
    24    24    25   ar
    25    25    26    1
    26    25    27   ar
    27    27    28   ar
    28    28    29   ar
    29    29    30   ar
    30    19     2   ar
    31    30    20   ar
    32    18     6   ar
    33    29    23   ar
    34    17    12    1
    35     3    31    1
    36     7    32    1
    37     8    33    1
    38    11    34    1
    39    12    35    1
    40    13    36    1
    41    13    37    1
    42    14    38    1
    43    14    39    1
    44    16    40    1
    45    16    41    1
    46    17    42    1
    47    17    43    1
    48    18    44    1
    49    21    45    1
    50    22    46    1
    51    24    47    1
    52    27    48    1
    53    28    49    1
    54    30    50    1
