@<TRIPOS>MOLECULE
*****
 65 68 0 0 0
SMALL
GASTEIGER

@<TRIPOS>ATOM
      1 C          -4.0871   -4.6633   -1.5341 C.3     1  UNL1        0.0124
      2 C          -2.8347   -4.1121   -2.1622 C.2     1  UNL1        0.2126
      3 O          -2.0447   -4.6906   -2.9317 O.2     1  UNL1       -0.2759
      4 N          -2.5117   -2.7715   -1.8410 N.am    1  UNL1       -0.2987
      5 C          -1.3070   -2.2320   -2.4398 C.3     1  UNL1        0.0305
      6 C          -1.0760   -0.8028   -1.9980 C.3     1  UNL1        0.0306
      7 N          -1.2637   -0.7100   -0.5729 N.am    1  UNL1       -0.2972
      8 C          -2.3142   -1.4397    0.1082 C.3     1  UNL1        0.0306
      9 C          -3.2913   -1.8998   -0.9614 C.3     1  UNL1        0.0305
     10 C          -0.3692    0.1225    0.1348 C.2     1  UNL1        0.2346
     11 O           0.4540    0.6262   -0.6783 O.2     1  UNL1       -0.2738
     12 C           0.0928    0.7138    1.4052 C.3     1  UNL1        0.1089
     13 C          -0.9649    1.4847    2.1164 C.3     1  UNL1       -0.0021
     14 C          -1.5376    2.6254    1.4057 C.ar    1  UNL1       -0.0446
     15 C          -2.5847    2.4885    0.5214 C.ar    1  UNL1       -0.0585
     16 C          -3.1858    3.5171   -0.1698 C.ar    1  UNL1       -0.0607
     17 C          -2.7328    4.8073    0.0089 C.ar    1  UNL1       -0.0469
     18 C          -1.6914    5.0168    0.8766 C.ar    1  UNL1        0.0650
     19 C          -1.1366    3.9427    1.5357 C.ar    1  UNL1       -0.0437
     20 C          -1.2119    6.3816    1.0654 C.2     1  UNL1        0.3081
     21 N          -1.2570    7.3932    0.0658 N.pl3   1  UNL1       -0.2466
     22 N          -0.6725    7.0290    2.0416 N.2     1  UNL1       -0.0994
     23 N           1.2541    1.5229    1.1852 N.3     1  UNL1       -0.1777
     24 S           2.6577    0.9782    2.0172 S.O2    1  UNL1        0.0591
     25 O           3.8007    1.9130    1.8122 O.2     1  UNL1       -0.1530
     26 O           2.4318    0.8964    3.4999 O.2     1  UNL1       -0.1530
     27 C           3.0555   -0.6178    1.4442 C.ar    1  UNL1        0.1059
     28 C           2.6416   -1.8315    1.9669 C.ar    1  UNL1       -0.0348
     29 C           3.0418   -3.0219    1.3967 C.ar    1  UNL1       -0.0522
     30 C           3.8673   -2.9834    0.2889 C.ar    1  UNL1       -0.0178
     31 C           4.2563   -4.1992   -0.2680 C.ar    1  UNL1       -0.0540
     32 C           5.0803   -4.1641   -1.3745 C.ar    1  UNL1       -0.0612
     33 C           5.5328   -2.9965   -1.9500 C.ar    1  UNL1       -0.0612
     34 C           5.1381   -1.8005   -1.3864 C.ar    1  UNL1       -0.0540
     35 C           4.3146   -1.7928   -0.2793 C.ar    1  UNL1       -0.0160
     36 C           3.8883   -0.6300    0.3251 C.ar    1  UNL1       -0.0276
     37 H          -4.1257   -4.4401   -0.4525 H       1  UNL1        0.0323
     38 H          -4.9934   -4.2031   -1.9999 H       1  UNL1        0.0323
     39 H          -4.1051   -5.7802   -1.6404 H       1  UNL1        0.0323
     40 H          -1.4029   -2.2213   -3.5380 H       1  UNL1        0.0480
     41 H          -0.4190   -2.8176   -2.1617 H       1  UNL1        0.0480
     42 H          -1.6863   -0.0714   -2.5674 H       1  UNL1        0.0480
     43 H          -0.0122   -0.5923   -2.2211 H       1  UNL1        0.0480
     44 H          -1.8759   -2.3345    0.5981 H       1  UNL1        0.0480
     45 H          -2.7765   -0.7724    0.8431 H       1  UNL1        0.0480
     46 H          -3.5830   -1.0280   -1.6007 H       1  UNL1        0.0480
     47 H          -4.1525   -2.4031   -0.5251 H       1  UNL1        0.0480
     48 H           0.4281   -0.1087    2.1095 H       1  UNL1        0.0576
     49 H          -0.5795    1.8031    3.1293 H       1  UNL1        0.0334
     50 H          -1.8156    0.7923    2.3887 H       1  UNL1        0.0334
     51 H          -3.0292    1.5312    0.2960 H       1  UNL1        0.0620
     52 H          -4.0038    3.3941   -0.8575 H       1  UNL1        0.0618
     53 H          -3.1675    5.6493   -0.5078 H       1  UNL1        0.0626
     54 H          -0.3316    4.2115    2.2038 H       1  UNL1        0.0629
     55 H          -0.4693    7.5008   -0.5975 H       1  UNL1        0.2884
     56 H          -1.8391    8.1571   -0.3050 H       1  UNL1        0.2884
     57 H          -0.4732    6.5971    2.9790 H       1  UNL1        0.3633
     58 H           1.0676    2.4872    1.5090 H       1  UNL1        0.1489
     59 H           1.9997   -1.7505    2.8345 H       1  UNL1        0.0637
     60 H           2.6898   -3.9241    1.8453 H       1  UNL1        0.0624
     61 H           3.9170   -5.1362    0.1620 H       1  UNL1        0.0624
     62 H           5.4105   -5.0825   -1.8439 H       1  UNL1        0.0618
     63 H           6.1713   -2.9901   -2.8080 H       1  UNL1        0.0618
     64 H           5.4598   -0.8422   -1.7913 H       1  UNL1        0.0624
     65 H           4.2645    0.2745   -0.1554 H       1  UNL1        0.0643
@<TRIPOS>BOND
     1     1     2    1
     2     2     3    2
     3     2     4   am
     4     4     5    1
     5     5     6    1
     6     6     7    1
     7     7     8    1
     8     8     9    1
     9     7    10   am
    10    10    11    2
    11    10    12    1
    12    12    13    1
    13    13    14    1
    14    14    15   ar
    15    15    16   ar
    16    16    17   ar
    17    17    18   ar
    18    18    19   ar
    19    18    20    1
    20    20    21    1
    21    20    22    2
    22    12    23    1
    23    23    24    1
    24    24    25    2
    25    24    26    2
    26    24    27    1
    27    27    28   ar
    28    28    29   ar
    29    29    30   ar
    30    30    31   ar
    31    31    32   ar
    32    32    33   ar
    33    33    34   ar
    34    34    35   ar
    35    35    36   ar
    36     9     4    1
    37    19    14   ar
    38    36    27   ar
    39    35    30   ar
    40     1    37    1
    41     1    38    1
    42     1    39    1
    43     5    40    1
    44     5    41    1
    45     6    42    1
    46     6    43    1
    47     8    44    1
    48     8    45    1
    49     9    46    1
    50     9    47    1
    51    12    48    1
    52    13    49    1
    53    13    50    1
    54    15    51    1
    55    16    52    1
    56    17    53    1
    57    19    54    1
    58    21    55    1
    59    21    56    1
    60    22    57    1
    61    23    58    1
    62    28    59    1
    63    29    60    1
    64    31    61    1
    65    32    62    1
    66    33    63    1
    67    34    64    1
    68    36    65    1
