
     RDKit          3D

 32 32  0  0  0  0  0  0  0  0999 V2000
    4.6254   -0.2823   -0.2378 C   0  0  0  0  0  0  0  0  0  0  0  0
    3.2429    0.2455    0.0317 C   0  0  0  0  0  0  0  0  0  0  0  0
    3.0857    1.5738   -0.7059 C   0  0  0  0  0  0  0  0  0  0  0  0
    2.1947   -0.6676   -0.3067 N   0  0  0  0  0  0  0  0  0  0  0  0
    0.8832   -0.1584   -0.0474 C   0  0  0  0  0  0  0  0  0  0  0  0
   -0.2010   -1.1574   -0.4203 C   0  0  0  0  0  0  0  0  0  0  0  0
   -0.0602   -2.3337    0.3059 O   0  0  0  0  0  0  0  0  0  0  0  0
   -1.5542   -0.5811   -0.2199 C   0  0  0  0  0  0  0  0  0  0  0  0
   -2.1703   -0.4727    1.0090 C   0  0  0  0  0  0  0  0  0  0  0  0
   -3.4470    0.0829    1.1116 C   0  0  0  0  0  0  0  0  0  0  0  0
   -4.0783    0.1975    2.3444 O   0  0  0  0  0  0  0  0  0  0  0  0
   -4.1265    0.5379   -0.0108 C   0  0  0  0  0  0  0  0  0  0  0  0
   -5.3936    1.0978    0.0277 O   0  0  0  0  0  0  0  0  0  0  0  0
   -3.5464    0.4467   -1.2482 C   0  0  0  0  0  0  0  0  0  0  0  0
   -2.2788   -0.1096   -1.3152 C   0  0  0  0  0  0  0  0  0  0  0  0
    4.8477   -0.1183   -1.3192 H   0  0  0  0  0  0  0  0  0  0  0  0
    4.7711   -1.3308    0.0338 H   0  0  0  0  0  0  0  0  0  0  0  0
    5.3531    0.3490    0.3154 H   0  0  0  0  0  0  0  0  0  0  0  0
    3.1693    0.4622    1.1227 H   0  0  0  0  0  0  0  0  0  0  0  0
    2.5007    2.2838   -0.0771 H   0  0  0  0  0  0  0  0  0  0  0  0
    2.5479    1.3870   -1.6539 H   0  0  0  0  0  0  0  0  0  0  0  0
    4.0561    2.0438   -0.9445 H   0  0  0  0  0  0  0  0  0  0  0  0
    2.2930   -1.1689   -1.1950 H   0  0  0  0  0  0  0  0  0  0  0  0
    0.7497    0.0589    1.0330 H   0  0  0  0  0  0  0  0  0  0  0  0
    0.7575    0.7624   -0.6284 H   0  0  0  0  0  0  0  0  0  0  0  0
   -0.0956   -1.4331   -1.4810 H   0  0  0  0  0  0  0  0  0  0  0  0
   -0.2614   -3.1534   -0.2071 H   0  0  0  0  0  0  0  0  0  0  0  0
   -1.6427   -0.8269    1.8871 H   0  0  0  0  0  0  0  0  0  0  0  0
   -4.9445   -0.3426    2.4898 H   0  0  0  0  0  0  0  0  0  0  0  0
   -5.4853    2.0273   -0.3612 H   0  0  0  0  0  0  0  0  0  0  0  0
   -3.9957    0.7740   -2.1857 H   0  0  0  0  0  0  0  0  0  0  0  0
   -1.7966   -0.1938   -2.2822 H   0  0  0  0  0  0  0  0  0  0  0  0
  1  2  1  0
  2  3  1  0
  2  4  1  0
  4  5  1  0
  5  6  1  0
  6  7  1  0
  6  8  1  0
  8  9  2  0
  9 10  1  0
 10 11  1  0
 10 12  2  0
 12 13  1  0
 12 14  1  0
 14 15  2  0
 15  8  1  0
  1 16  1  0
  1 17  1  0
  1 18  1  0
  2 19  1  0
  3 20  1  0
  3 21  1  0
  3 22  1  0
  4 23  1  0
  5 24  1  0
  5 25  1  0
  6 26  1  0
  7 27  1  0
  9 28  1  0
 11 29  1  0
 13 30  1  0
 14 31  1  0
 15 32  1  0
M  END
$$$$
