@<TRIPOS>MOLECULE
*****
 50 53 0 0 0
SMALL
GASTEIGER

@<TRIPOS>ATOM
      1 C           4.4850    0.7432    3.9957 C.3     1  UNL1        0.0789
      2 O           3.8139    0.5197    2.7725 O.3     1  UNL1       -0.4928
      3 C           4.4081    0.8693    1.5666 C.ar    1  UNL1        0.1517
      4 C           5.6615    1.4374    1.5826 C.ar    1  UNL1        0.0012
      5 C           6.2402    1.7799    0.3793 C.ar    1  UNL1        0.0733
      6 C           7.5404    2.3705    0.3765 C.1     1  UNL1        0.1008
      7 N           8.6123    2.8388    0.3649 N.1     1  UNL1       -0.1908
      8 C           5.5594    1.5486   -0.7960 C.ar    1  UNL1        0.0460
      9 N           4.3409    0.9967   -0.8166 N.ar    1  UNL1       -0.2455
     10 C           3.7757    0.6624    0.3552 C.ar    1  UNL1        0.1672
     11 C           2.4400    0.0523    0.3971 C.2     1  UNL1        0.2702
     12 O           1.9132   -0.2599    1.4854 O.2     1  UNL1       -0.2680
     13 N           1.6939   -0.2079   -0.7876 N.am    1  UNL1       -0.2801
     14 C           0.3985   -0.7993   -0.7575 C.ar    1  UNL1        0.0345
     15 C           0.3624   -2.1872   -0.8209 C.ar    1  UNL1       -0.0348
     16 C          -0.8142   -2.8796   -0.8011 C.ar    1  UNL1       -0.0132
     17 C          -0.8608   -4.3613   -0.8684 C.3     1  UNL1       -0.0369
     18 C          -1.9912   -2.1259   -0.7135 C.ar    1  UNL1        0.1320
     19 F          -3.1317   -2.8639   -0.7276 F       1  UNL1       -0.2048
     20 C          -1.9551   -0.7572   -0.6500 C.ar    1  UNL1        0.0230
     21 C          -3.2540   -0.0218   -0.5262 C.3     1  UNL1        0.1603
     22 C          -3.7852   -0.3181    0.8568 C.3     1  UNL1        0.2686
     23 F          -5.0070    0.3127    1.0963 F       1  UNL1       -0.2062
     24 F          -3.7391   -1.6021    1.2591 F       1  UNL1       -0.2062
     25 N          -2.9811    1.4281   -0.5177 N.2     1  UNL1       -0.2194
     26 C          -3.9606    2.2070   -0.7949 C.2     1  UNL1        0.2764
     27 N          -3.7746    3.6273   -0.8058 N.pl3   1  UNL1       -0.3134
     28 O          -5.2280    1.6653   -1.0912 O.2     1  UNL1       -0.4622
     29 C          -5.2567    0.5442   -1.9584 C.3     1  UNL1        0.1091
     30 C          -5.5221   -0.8223   -1.5155 C.3     1  UNL1       -0.0064
     31 C          -4.1205   -0.3762   -1.6557 C.3     1  UNL1        0.0344
     32 C          -0.7512   -0.0828   -0.6724 C.ar    1  UNL1       -0.0320
     33 H           5.2955   -0.0070    4.1464 H       1  UNL1        0.0660
     34 H           4.9016    1.7668    4.0813 H       1  UNL1        0.0660
     35 H           3.7640    0.6048    4.8477 H       1  UNL1        0.0660
     36 H           6.2023    1.6210    2.5179 H       1  UNL1        0.0668
     37 H           6.0407    1.8283   -1.7183 H       1  UNL1        0.0843
     38 H           2.1562    0.0630   -1.6943 H       1  UNL1        0.1552
     39 H           1.2872   -2.7721   -0.8894 H       1  UNL1        0.0640
     40 H          -1.5838   -4.6635   -1.6725 H       1  UNL1        0.0278
     41 H           0.1640   -4.7171   -1.1007 H       1  UNL1        0.0278
     42 H          -1.2199   -4.7604    0.1012 H       1  UNL1        0.0278
     43 H          -3.0810    0.2432    1.5511 H       1  UNL1        0.1047
     44 H          -2.8346    4.0080   -1.0153 H       1  UNL1        0.1466
     45 H          -4.5461    4.2875   -0.6119 H       1  UNL1        0.1466
     46 H          -5.4872    0.8268   -3.0177 H       1  UNL1        0.0737
     47 H          -5.9728   -1.0185   -0.5198 H       1  UNL1        0.0306
     48 H          -5.8921   -1.5251   -2.2909 H       1  UNL1        0.0306
     49 H          -3.5692   -0.6993   -2.5886 H       1  UNL1        0.0366
     50 H          -0.7370    0.9760   -0.6234 H       1  UNL1        0.0640
@<TRIPOS>BOND
     1     1     2    1
     2     2     3    1
     3     3     4   ar
     4     4     5   ar
     5     5     6    1
     6     6     7    3
     7     5     8   ar
     8     8     9   ar
     9     9    10   ar
    10    10    11    1
    11    11    12    2
    12    11    13   am
    13    13    14    1
    14    14    15   ar
    15    15    16   ar
    16    16    17    1
    17    16    18   ar
    18    18    19    1
    19    18    20   ar
    20    20    21    1
    21    21    22    1
    22    22    23    1
    23    22    24    1
    24    21    25    1
    25    25    26    2
    26    26    27    1
    27    26    28    1
    28    28    29    1
    29    29    30    1
    30    30    31    1
    31    20    32   ar
    32    10     3   ar
    33    32    14   ar
    34    31    21    1
    35    31    29    1
    36     1    33    1
    37     1    34    1
    38     1    35    1
    39     4    36    1
    40     8    37    1
    41    13    38    1
    42    15    39    1
    43    17    40    1
    44    17    41    1
    45    17    42    1
    46    22    43    1
    47    27    44    1
    48    27    45    1
    49    29    46    1
    50    30    47    1
    51    30    48    1
    52    31    49    1
    53    32    50    1
