@<TRIPOS>MOLECULE
*****
 73 76 0 0 0
SMALL
GASTEIGER

@<TRIPOS>ATOM
      1 C           8.3571    2.1109   -2.7120 C.3     1  UNL1        0.0000
      2 O           8.8622    1.4642   -1.6093 O.3     1  UNL1        0.0000
      3 C           8.3620    0.2147   -1.4782 C.3     1  UNL1        0.0000
      4 C           6.8602    0.0985   -1.3031 C.3     1  UNL1        0.0000
      5 C           6.5319    0.7649    0.0048 C.3     1  UNL1        0.0000
      6 C           6.6970   -0.3465    1.0025 C.3     1  UNL1        0.0000
      7 C           6.9097   -1.6054    0.1926 C.3     1  UNL1        0.0000
      8 N           6.5763   -1.2886   -1.1678 N.3     1  UNL1        0.0000
      9 S           5.0057   -1.7934   -1.5244 S.O2    1  UNL1        0.0000
     10 O           4.7433   -1.4593   -2.9893 O.2     1  UNL1        0.0000
     11 O           4.8444   -3.2880   -1.4326 O.2     1  UNL1        0.0000
     12 C           3.7528   -1.0381   -0.5684 C.ar    1  UNL1        0.0000
     13 C           3.1235    0.1044   -1.0167 C.ar    1  UNL1        0.0000
     14 C           2.1330    0.7048   -0.2664 C.ar    1  UNL1        0.0000
     15 C           1.7167    0.2055    0.9623 C.ar    1  UNL1        0.0000
     16 C           2.3447   -0.9471    1.4251 C.ar    1  UNL1        0.0000
     17 C           3.3462   -1.5395    0.6486 C.ar    1  UNL1        0.0000
     18 C           1.7575   -1.2847    2.7155 C.2     1  UNL1        0.0000
     19 O           2.0933   -2.2660    3.4075 O.2     1  UNL1        0.0000
     20 C           0.7443   -0.2895    3.0212 C.2     1  UNL1        0.0000
     21 O           0.0006   -0.2286    4.0610 O.2     1  UNL1        0.0000
     22 N           0.7479    0.6107    1.9196 N.am    1  UNL1        0.0000
     23 C          -0.1006    1.7499    1.8080 C.3     1  UNL1        0.0000
     24 C          -1.3986    1.5141    1.1773 C.ar    1  UNL1        0.0000
     25 C          -2.4942    1.1420    1.9436 C.ar    1  UNL1        0.0000
     26 C          -3.7256    0.9181    1.3582 C.ar    1  UNL1        0.0000
     27 C          -3.8714    1.0679   -0.0234 C.ar    1  UNL1        0.0000
     28 O          -5.1226    0.8395   -0.6124 O.3     1  UNL1        0.0000
     29 SI         -6.2845   -0.1103    0.2443 Si      1  UNL1        0.0000
     30 C          -7.0096    0.8588    1.6758 C.3     1  UNL1        0.0000
     31 C          -5.4989   -1.6814    0.8907 C.3     1  UNL1        0.0000
     32 C          -7.6807   -0.5957   -0.8902 C.3     1  UNL1        0.0000
     33 C          -7.1657   -1.3211   -2.1102 C.3     1  UNL1        0.0000
     34 C          -8.6471   -1.4969   -0.1453 C.3     1  UNL1        0.0000
     35 C          -8.4634    0.6156   -1.3537 C.3     1  UNL1        0.0000
     36 C          -2.7745    1.4379   -0.7722 C.ar    1  UNL1        0.0000
     37 C          -1.5235    1.6665   -0.1859 C.ar    1  UNL1        0.0000
     38 H           7.2645    2.2147   -2.6164 H       1  UNL1        0.0000
     39 H           8.6409    1.5584   -3.6452 H       1  UNL1        0.0000
     40 H           8.8095    3.1330   -2.8133 H       1  UNL1        0.0000
     41 H           8.6665   -0.4306   -2.3569 H       1  UNL1        0.0000
     42 H           8.8867   -0.2795   -0.6058 H       1  UNL1        0.0000
     43 H           6.3149    0.5647   -2.1571 H       1  UNL1        0.0000
     44 H           5.5430    1.2519    0.0357 H       1  UNL1        0.0000
     45 H           7.3306    1.5249    0.2641 H       1  UNL1        0.0000
     46 H           5.8105   -0.4017    1.6642 H       1  UNL1        0.0000
     47 H           7.5684   -0.1990    1.6895 H       1  UNL1        0.0000
     48 H           7.9524   -1.9715    0.3072 H       1  UNL1        0.0000
     49 H           6.1735   -2.3503    0.5762 H       1  UNL1        0.0000
     50 H           3.4151    0.5280   -1.9673 H       1  UNL1        0.0000
     51 H           1.6286    1.6083   -0.6067 H       1  UNL1        0.0000
     52 H           3.8173   -2.4286    1.0255 H       1  UNL1        0.0000
     53 H          -0.2877    2.2266    2.7942 H       1  UNL1        0.0000
     54 H           0.4340    2.5193    1.2062 H       1  UNL1        0.0000
     55 H          -2.3120    1.0444    3.0038 H       1  UNL1        0.0000
     56 H          -4.5383    0.6346    1.9827 H       1  UNL1        0.0000
     57 H          -6.5698    1.8780    1.6832 H       1  UNL1        0.0000
     58 H          -6.8413    0.3248    2.6232 H       1  UNL1        0.0000
     59 H          -8.1173    0.9777    1.5665 H       1  UNL1        0.0000
     60 H          -5.3978   -1.6620    1.9978 H       1  UNL1        0.0000
     61 H          -4.4857   -1.8416    0.4234 H       1  UNL1        0.0000
     62 H          -6.0942   -2.5814    0.6311 H       1  UNL1        0.0000
     63 H          -6.6633   -0.5494   -2.7524 H       1  UNL1        0.0000
     64 H          -8.0305   -1.7719   -2.6407 H       1  UNL1        0.0000
     65 H          -6.4251   -2.0911   -1.8255 H       1  UNL1        0.0000
     66 H          -8.1631   -2.4483    0.1674 H       1  UNL1        0.0000
     67 H          -9.0170   -0.9654    0.7568 H       1  UNL1        0.0000
     68 H          -9.4887   -1.7143   -0.8415 H       1  UNL1        0.0000
     69 H          -7.9890    0.9825   -2.2928 H       1  UNL1        0.0000
     70 H          -9.5108    0.2792   -1.5619 H       1  UNL1        0.0000
     71 H          -8.4472    1.4250   -0.5952 H       1  UNL1        0.0000
     72 H          -2.9067    1.5483   -1.8360 H       1  UNL1        0.0000
     73 H          -0.7202    1.9536   -0.8468 H       1  UNL1        0.0000
@<TRIPOS>BOND
     1     1     2    1
     2     2     3    1
     3     3     4    1
     4     4     5    1
     5     5     6    1
     6     6     7    1
     7     7     8    1
     8     8     9    1
     9     9    10    2
    10     9    11    2
    11     9    12    1
    12    12    13   ar
    13    13    14   ar
    14    14    15   ar
    15    15    16   ar
    16    16    17   ar
    17    16    18    1
    18    18    19    2
    19    18    20    1
    20    20    21    2
    21    20    22   am
    22    22    23    1
    23    23    24    1
    24    24    25   ar
    25    25    26   ar
    26    26    27   ar
    27    27    28    1
    28    28    29    1
    29    29    30    1
    30    29    31    1
    31    29    32    1
    32    32    33    1
    33    32    34    1
    34    32    35    1
    35    27    36   ar
    36    36    37   ar
    37     8     4    1
    38    17    12   ar
    39    37    24   ar
    40    22    15    1
    41     1    38    1
    42     1    39    1
    43     1    40    1
    44     3    41    1
    45     3    42    1
    46     4    43    1
    47     5    44    1
    48     5    45    1
    49     6    46    1
    50     6    47    1
    51     7    48    1
    52     7    49    1
    53    13    50    1
    54    14    51    1
    55    17    52    1
    56    23    53    1
    57    23    54    1
    58    25    55    1
    59    26    56    1
    60    30    57    1
    61    30    58    1
    62    30    59    1
    63    31    60    1
    64    31    61    1
    65    31    62    1
    66    33    63    1
    67    33    64    1
    68    33    65    1
    69    34    66    1
    70    34    67    1
    71    34    68    1
    72    35    69    1
    73    35    70    1
    74    35    71    1
    75    36    72    1
    76    37    73    1
