
     RDKit          3D

 73 76  0  0  0  0  0  0  0  0999 V2000
    8.3571    2.1109   -2.7120 C   0  0  0  0  0  0  0  0  0  0  0  0
    8.8622    1.4642   -1.6093 O   0  0  0  0  0  0  0  0  0  0  0  0
    8.3620    0.2147   -1.4782 C   0  0  0  0  0  0  0  0  0  0  0  0
    6.8602    0.0985   -1.3031 C   0  0  2  0  0  0  0  0  0  0  0  0
    6.5319    0.7649    0.0048 C   0  0  0  0  0  0  0  0  0  0  0  0
    6.6970   -0.3465    1.0025 C   0  0  0  0  0  0  0  0  0  0  0  0
    6.9097   -1.6054    0.1926 C   0  0  0  0  0  0  0  0  0  0  0  0
    6.5763   -1.2886   -1.1678 N   0  0  0  0  0  0  0  0  0  0  0  0
    5.0057   -1.7934   -1.5244 S   0  0  0  0  0  6  0  0  0  0  0  0
    4.7433   -1.4593   -2.9893 O   0  0  0  0  0  0  0  0  0  0  0  0
    4.8444   -3.2880   -1.4326 O   0  0  0  0  0  0  0  0  0  0  0  0
    3.7528   -1.0381   -0.5684 C   0  0  0  0  0  0  0  0  0  0  0  0
    3.1235    0.1044   -1.0167 C   0  0  0  0  0  0  0  0  0  0  0  0
    2.1330    0.7048   -0.2664 C   0  0  0  0  0  0  0  0  0  0  0  0
    1.7167    0.2055    0.9623 C   0  0  0  0  0  0  0  0  0  0  0  0
    2.3447   -0.9471    1.4251 C   0  0  0  0  0  0  0  0  0  0  0  0
    3.3462   -1.5395    0.6486 C   0  0  0  0  0  0  0  0  0  0  0  0
    1.7575   -1.2847    2.7155 C   0  0  0  0  0  0  0  0  0  0  0  0
    2.0933   -2.2660    3.4075 O   0  0  0  0  0  0  0  0  0  0  0  0
    0.7443   -0.2895    3.0212 C   0  0  0  0  0  0  0  0  0  0  0  0
    0.0006   -0.2286    4.0610 O   0  0  0  0  0  0  0  0  0  0  0  0
    0.7479    0.6107    1.9196 N   0  0  0  0  0  0  0  0  0  0  0  0
   -0.1006    1.7499    1.8080 C   0  0  0  0  0  0  0  0  0  0  0  0
   -1.3986    1.5141    1.1773 C   0  0  0  0  0  0  0  0  0  0  0  0
   -2.4942    1.1420    1.9436 C   0  0  0  0  0  0  0  0  0  0  0  0
   -3.7256    0.9181    1.3582 C   0  0  0  0  0  0  0  0  0  0  0  0
   -3.8714    1.0679   -0.0234 C   0  0  0  0  0  0  0  0  0  0  0  0
   -5.1226    0.8395   -0.6124 O   0  0  0  0  0  0  0  0  0  0  0  0
   -6.2845   -0.1103    0.2443 Si  0  0  0  0  0  4  0  0  0  0  0  0
   -7.0096    0.8588    1.6758 C   0  0  0  0  0  0  0  0  0  0  0  0
   -5.4989   -1.6814    0.8907 C   0  0  0  0  0  0  0  0  0  0  0  0
   -7.6807   -0.5957   -0.8902 C   0  0  0  0  0  0  0  0  0  0  0  0
   -7.1657   -1.3211   -2.1102 C   0  0  0  0  0  0  0  0  0  0  0  0
   -8.6471   -1.4969   -0.1453 C   0  0  0  0  0  0  0  0  0  0  0  0
   -8.4634    0.6156   -1.3537 C   0  0  0  0  0  0  0  0  0  0  0  0
   -2.7745    1.4379   -0.7722 C   0  0  0  0  0  0  0  0  0  0  0  0
   -1.5235    1.6665   -0.1859 C   0  0  0  0  0  0  0  0  0  0  0  0
    7.2645    2.2147   -2.6164 H   0  0  0  0  0  0  0  0  0  0  0  0
    8.6409    1.5584   -3.6452 H   0  0  0  0  0  0  0  0  0  0  0  0
    8.8095    3.1330   -2.8133 H   0  0  0  0  0  0  0  0  0  0  0  0
    8.6665   -0.4306   -2.3569 H   0  0  0  0  0  0  0  0  0  0  0  0
    8.8867   -0.2795   -0.6058 H   0  0  0  0  0  0  0  0  0  0  0  0
    6.3149    0.5647   -2.1571 H   0  0  0  0  0  0  0  0  0  0  0  0
    5.5430    1.2519    0.0357 H   0  0  0  0  0  0  0  0  0  0  0  0
    7.3306    1.5249    0.2641 H   0  0  0  0  0  0  0  0  0  0  0  0
    5.8105   -0.4017    1.6642 H   0  0  0  0  0  0  0  0  0  0  0  0
    7.5684   -0.1990    1.6895 H   0  0  0  0  0  0  0  0  0  0  0  0
    7.9524   -1.9715    0.3072 H   0  0  0  0  0  0  0  0  0  0  0  0
    6.1735   -2.3503    0.5762 H   0  0  0  0  0  0  0  0  0  0  0  0
    3.4151    0.5280   -1.9673 H   0  0  0  0  0  0  0  0  0  0  0  0
    1.6286    1.6083   -0.6067 H   0  0  0  0  0  0  0  0  0  0  0  0
    3.8173   -2.4286    1.0255 H   0  0  0  0  0  0  0  0  0  0  0  0
   -0.2877    2.2266    2.7942 H   0  0  0  0  0  0  0  0  0  0  0  0
    0.4340    2.5193    1.2062 H   0  0  0  0  0  0  0  0  0  0  0  0
   -2.3120    1.0444    3.0038 H   0  0  0  0  0  0  0  0  0  0  0  0
   -4.5383    0.6346    1.9827 H   0  0  0  0  0  0  0  0  0  0  0  0
   -6.5698    1.8780    1.6832 H   0  0  0  0  0  0  0  0  0  0  0  0
   -6.8413    0.3248    2.6232 H   0  0  0  0  0  0  0  0  0  0  0  0
   -8.1173    0.9777    1.5665 H   0  0  0  0  0  0  0  0  0  0  0  0
   -5.3978   -1.6620    1.9978 H   0  0  0  0  0  0  0  0  0  0  0  0
   -4.4857   -1.8416    0.4234 H   0  0  0  0  0  0  0  0  0  0  0  0
   -6.0942   -2.5814    0.6311 H   0  0  0  0  0  0  0  0  0  0  0  0
   -6.6633   -0.5494   -2.7524 H   0  0  0  0  0  0  0  0  0  0  0  0
   -8.0305   -1.7719   -2.6407 H   0  0  0  0  0  0  0  0  0  0  0  0
   -6.4251   -2.0911   -1.8255 H   0  0  0  0  0  0  0  0  0  0  0  0
   -8.1631   -2.4483    0.1674 H   0  0  0  0  0  0  0  0  0  0  0  0
   -9.0170   -0.9654    0.7568 H   0  0  0  0  0  0  0  0  0  0  0  0
   -9.4887   -1.7143   -0.8415 H   0  0  0  0  0  0  0  0  0  0  0  0
   -7.9890    0.9825   -2.2928 H   0  0  0  0  0  0  0  0  0  0  0  0
   -9.5108    0.2792   -1.5619 H   0  0  0  0  0  0  0  0  0  0  0  0
   -8.4472    1.4250   -0.5952 H   0  0  0  0  0  0  0  0  0  0  0  0
   -2.9067    1.5483   -1.8360 H   0  0  0  0  0  0  0  0  0  0  0  0
   -0.7202    1.9536   -0.8468 H   0  0  0  0  0  0  0  0  0  0  0  0
  1  2  1  0
  2  3  1  0
  3  4  1  0
  4  5  1  0
  5  6  1  0
  6  7  1  0
  7  8  1  0
  8  9  1  0
  9 10  2  0
  9 11  2  0
  9 12  1  0
 12 13  2  0
 13 14  1  0
 14 15  2  0
 15 16  1  0
 16 17  2  0
 16 18  1  0
 18 19  2  0
 18 20  1  0
 20 21  2  0
 20 22  1  0
 22 23  1  0
 23 24  1  0
 24 25  2  0
 25 26  1  0
 26 27  2  0
 27 28  1  0
 28 29  1  0
 29 30  1  0
 29 31  1  0
 29 32  1  0
 32 33  1  0
 32 34  1  0
 32 35  1  0
 27 36  1  0
 36 37  2  0
  8  4  1  0
 17 12  1  0
 37 24  1  0
 22 15  1  0
  1 38  1  0
  1 39  1  0
  1 40  1  0
  3 41  1  0
  3 42  1  0
  4 43  1  6
  5 44  1  0
  5 45  1  0
  6 46  1  0
  6 47  1  0
  7 48  1  0
  7 49  1  0
 13 50  1  0
 14 51  1  0
 17 52  1  0
 23 53  1  0
 23 54  1  0
 25 55  1  0
 26 56  1  0
 30 57  1  0
 30 58  1  0
 30 59  1  0
 31 60  1  0
 31 61  1  0
 31 62  1  0
 33 63  1  0
 33 64  1  0
 33 65  1  0
 34 66  1  0
 34 67  1  0
 34 68  1  0
 35 69  1  0
 35 70  1  0
 35 71  1  0
 36 72  1  0
 37 73  1  0
M  END
$$$$
