@<TRIPOS>MOLECULE
*****
 29 29 0 0 0
SMALL
GASTEIGER

@<TRIPOS>ATOM
      1 C           2.8024    0.7748   -1.2713 C.3     1  UNL1       -0.0533
      2 C           1.8559    0.4048   -0.1100 C.3     1  UNL1        0.0417
      3 C           2.4831   -0.8222    0.5806 C.3     1  UNL1        0.0015
      4 S           4.1254   -0.3661    1.1891 S.3     1  UNL1       -0.1775
      5 C           0.5569    0.0559   -0.6913 C.2     1  UNL1        0.2198
      6 O           0.5041   -0.1125   -1.9600 O.2     1  UNL1       -0.2753
      7 N          -0.6392   -0.1082    0.0283 N.am    1  UNL1       -0.2878
      8 C          -0.8260    0.0707    1.4477 C.3     1  UNL1        0.0156
      9 C          -1.8918   -1.0137    1.6940 C.3     1  UNL1       -0.0349
     10 C          -2.8671   -0.6426    0.5947 C.3     1  UNL1       -0.0225
     11 C          -1.9014   -0.5027   -0.5700 C.3     1  UNL1        0.1228
     12 C          -2.3788    0.4670   -1.5724 C.2     1  UNL1        0.3255
     13 O          -3.4682    0.2113   -2.1468 O.2     1  UNL1       -0.2489
     14 O          -1.7150    1.6188   -1.9135 O.3     1  UNL1       -0.4793
     15 H           3.2873   -0.1452   -1.5986 H       1  UNL1        0.0237
     16 H           3.5102    1.5532   -0.9524 H       1  UNL1        0.0237
     17 H           2.1804    1.2040   -2.0957 H       1  UNL1        0.0237
     18 H           1.8051    1.1923    0.6482 H       1  UNL1        0.0399
     19 H           1.8583   -1.2599    1.3474 H       1  UNL1        0.0381
     20 H           2.6390   -1.5621   -0.2568 H       1  UNL1        0.0381
     21 H           4.1250    0.9765    1.6037 H       1  UNL1        0.1017
     22 H          -1.3530    1.0659    1.5928 H       1  UNL1        0.0465
     23 H           0.0382   -0.0298    2.0802 H       1  UNL1        0.0465
     24 H          -2.3158   -0.9439    2.6928 H       1  UNL1        0.0281
     25 H          -1.4467   -1.9784    1.4268 H       1  UNL1        0.0281
     26 H          -3.2942    0.3393    0.8692 H       1  UNL1        0.0289
     27 H          -3.6249   -1.4230    0.4187 H       1  UNL1        0.0289
     28 H          -1.8128   -1.5106   -1.0223 H       1  UNL1        0.0616
     29 H          -2.2362    2.4863   -2.0531 H       1  UNL1        0.2951
@<TRIPOS>BOND
     1     1     2    1
     2     2     3    1
     3     3     4    1
     4     2     5    1
     5     5     6    2
     6     5     7   am
     7     7     8    1
     8     8     9    1
     9     9    10    1
    10    10    11    1
    11    11    12    1
    12    12    13    2
    13    12    14    1
    14    11     7    1
    15     1    15    1
    16     1    16    1
    17     1    17    1
    18     2    18    1
    19     3    19    1
    20     3    20    1
    21     4    21    1
    22     8    22    1
    23     8    23    1
    24     9    24    1
    25     9    25    1
    26    10    26    1
    27    10    27    1
    28    11    28    1
    29    14    29    1
