@<TRIPOS>MOLECULE
*****
 10 9 0 0 0
SMALL
GASTEIGER

@<TRIPOS>ATOM
      1 O          -1.7935    0.0698   -0.4699 O.3     1  UNL1       -0.3942
      2 C          -0.4678   -0.3480   -0.3648 C.3     1  UNL1        0.0529
      3 C           0.3676    0.7322    0.3041 C.3     1  UNL1        0.0139
      4 S           2.0779    0.1061    0.4007 S.3     1  UNL1       -0.1760
      5 H          -2.2280   -0.1872    0.4013 H       1  UNL1        0.2094
      6 H          -0.4190   -1.2989    0.1984 H       1  UNL1        0.0565
      7 H          -0.0460   -0.5201   -1.3823 H       1  UNL1        0.0565
      8 H           0.0092    0.9553    1.3155 H       1  UNL1        0.0396
      9 H           0.3163    1.6788   -0.2704 H       1  UNL1        0.0396
     10 H           2.1832   -1.1879   -0.1326 H       1  UNL1        0.1017
@<TRIPOS>BOND
     1     1     2    1
     2     2     3    1
     3     3     4    1
     4     1     5    1
     5     2     6    1
     6     2     7    1
     7     3     8    1
     8     3     9    1
     9     4    10    1
