
     RDKit          3D

 10  9  0  0  0  0  0  0  0  0999 V2000
   -1.7935    0.0698   -0.4699 O   0  0  0  0  0  0  0  0  0  0  0  0
   -0.4678   -0.3480   -0.3648 C   0  0  0  0  0  0  0  0  0  0  0  0
    0.3676    0.7322    0.3041 C   0  0  0  0  0  0  0  0  0  0  0  0
    2.0779    0.1061    0.4007 S   0  0  0  0  0  0  0  0  0  0  0  0
   -2.2280   -0.1872    0.4013 H   0  0  0  0  0  0  0  0  0  0  0  0
   -0.4190   -1.2989    0.1984 H   0  0  0  0  0  0  0  0  0  0  0  0
   -0.0460   -0.5201   -1.3823 H   0  0  0  0  0  0  0  0  0  0  0  0
    0.0092    0.9553    1.3155 H   0  0  0  0  0  0  0  0  0  0  0  0
    0.3163    1.6788   -0.2704 H   0  0  0  0  0  0  0  0  0  0  0  0
    2.1832   -1.1879   -0.1326 H   0  0  0  0  0  0  0  0  0  0  0  0
  1  2  1  0
  2  3  1  0
  3  4  1  0
  1  5  1  0
  2  6  1  0
  2  7  1  0
  3  8  1  0
  3  9  1  0
  4 10  1  0
M  END
$$$$
