@<TRIPOS>MOLECULE
*****
 63 67 0 0 0
SMALL
GASTEIGER

@<TRIPOS>ATOM
      1 O           5.2889   -1.0007    2.8061 O.2     1  UNL1       -0.2465
      2 C           5.6178   -0.7042    1.6360 C.ar    1  UNL1        0.3278
      3 N           6.8276   -0.8751    1.1082 N.ar    1  UNL1       -0.3059
      4 C           6.7977   -0.4393   -0.1684 C.ar    1  UNL1        0.0670
      5 C           7.7414   -0.3771   -1.1697 C.ar    1  UNL1       -0.0362
      6 C           7.4372    0.1242   -2.4120 C.ar    1  UNL1       -0.0597
      7 C           6.1512    0.5614   -2.6124 C.ar    1  UNL1       -0.0597
      8 C           5.1969    0.5084   -1.6297 C.ar    1  UNL1       -0.0360
      9 C           5.4962    0.0069   -0.3846 C.ar    1  UNL1        0.0700
     10 N           4.7622   -0.1536    0.7240 N.ar    1  UNL1       -0.2891
     11 C           3.3799    0.1534    0.9411 C.3     1  UNL1        0.0417
     12 C           2.5295   -0.7982    0.1460 C.3     1  UNL1       -0.0191
     13 C           1.0506   -0.4966    0.4392 C.3     1  UNL1        0.0008
     14 N           0.7126    0.8276    0.1081 N.3     1  UNL1       -0.3022
     15 C          -0.3398    0.9668   -0.8094 C.3     1  UNL1       -0.0011
     16 C          -1.7474    0.6947   -0.4010 C.3     1  UNL1       -0.0394
     17 C          -1.9760   -0.6758    0.0785 C.3     1  UNL1       -0.0410
     18 C          -3.4154   -0.9836    0.4590 C.3     1  UNL1        0.0093
     19 C          -3.9570   -0.1512    1.5380 C.ar    1  UNL1       -0.0398
     20 C          -3.1531    0.5037    2.4398 C.ar    1  UNL1       -0.0553
     21 C          -3.7296    1.2824    3.4205 C.ar    1  UNL1       -0.0262
     22 C          -5.1009    1.4064    3.5002 C.ar    1  UNL1        0.1234
     23 F          -5.7104    2.1581    4.4463 F       1  UNL1       -0.2055
     24 C          -5.8846    0.7392    2.5843 C.ar    1  UNL1       -0.0262
     25 C          -5.3429   -0.0444    1.5953 C.ar    1  UNL1       -0.0553
     26 C          -4.3129   -1.0943   -0.7137 C.ar    1  UNL1       -0.0398
     27 C          -4.6275   -2.3316   -1.2685 C.ar    1  UNL1       -0.0553
     28 C          -5.4662   -2.4557   -2.3462 C.ar    1  UNL1       -0.0262
     29 C          -6.0118   -1.3174   -2.8922 C.ar    1  UNL1        0.1234
     30 F          -6.8419   -1.4564   -3.9615 F       1  UNL1       -0.2055
     31 C          -5.6986   -0.1011   -2.3410 C.ar    1  UNL1       -0.0262
     32 C          -4.8583    0.0325   -1.2602 C.ar    1  UNL1       -0.0553
     33 C           1.7901    1.7275   -0.1460 C.3     1  UNL1        0.0008
     34 C           2.9747    1.5657    0.7324 C.3     1  UNL1       -0.0191
     35 H           7.7053   -1.2665    1.5226 H       1  UNL1        0.1704
     36 H           8.7516   -0.7251   -1.0017 H       1  UNL1        0.0639
     37 H           8.1861    0.1748   -3.2183 H       1  UNL1        0.0618
     38 H           5.8795    0.9605   -3.5782 H       1  UNL1        0.0618
     39 H           4.1784    0.8542   -1.7829 H       1  UNL1        0.0639
     40 H           3.1459   -0.0878    2.0244 H       1  UNL1        0.0530
     41 H           2.6899   -0.7926   -0.9306 H       1  UNL1        0.0298
     42 H           2.7408   -1.8143    0.5191 H       1  UNL1        0.0298
     43 H           0.5196   -1.2746   -0.1628 H       1  UNL1        0.0427
     44 H           0.8570   -0.7094    1.5046 H       1  UNL1        0.0427
     45 H          -0.1761    0.2823   -1.7236 H       1  UNL1        0.0426
     46 H          -0.2824    1.9899   -1.3410 H       1  UNL1        0.0426
     47 H          -2.3669    0.9481   -1.3144 H       1  UNL1        0.0278
     48 H          -2.0340    1.4922    0.3281 H       1  UNL1        0.0278
     49 H          -1.4023   -0.8719    1.0064 H       1  UNL1        0.0275
     50 H          -1.7263   -1.4001   -0.7096 H       1  UNL1        0.0275
     51 H          -3.3524   -2.0272    0.9017 H       1  UNL1        0.0397
     52 H          -2.0666    0.4315    2.4249 H       1  UNL1        0.0621
     53 H          -3.1222    1.8094    4.1446 H       1  UNL1        0.0646
     54 H          -6.9768    0.8496    2.6641 H       1  UNL1        0.0646
     55 H          -6.0149   -0.5396    0.9114 H       1  UNL1        0.0621
     56 H          -4.1775   -3.2290   -0.8154 H       1  UNL1        0.0621
     57 H          -5.6795   -3.4396   -2.7443 H       1  UNL1        0.0646
     58 H          -6.1493    0.7892   -2.7962 H       1  UNL1        0.0646
     59 H          -4.6725    1.0507   -0.8809 H       1  UNL1        0.0621
     60 H           2.0474    1.6893   -1.2379 H       1  UNL1        0.0427
     61 H           1.3765    2.7661    0.0851 H       1  UNL1        0.0427
     62 H           2.7465    2.0875    1.7130 H       1  UNL1        0.0298
     63 H           3.7944    2.1999    0.3016 H       1  UNL1        0.0298
@<TRIPOS>BOND
     1     1     2    2
     2     2     3   ar
     3     3     4   ar
     4     4     5   ar
     5     5     6   ar
     6     6     7   ar
     7     7     8   ar
     8     8     9   ar
     9     9    10   ar
    10    10    11    1
    11    11    12    1
    12    12    13    1
    13    13    14    1
    14    14    15    1
    15    15    16    1
    16    16    17    1
    17    17    18    1
    18    18    19    1
    19    19    20   ar
    20    20    21   ar
    21    21    22   ar
    22    22    23    1
    23    22    24   ar
    24    24    25   ar
    25    18    26    1
    26    26    27   ar
    27    27    28   ar
    28    28    29   ar
    29    29    30    1
    30    29    31   ar
    31    31    32   ar
    32    14    33    1
    33    33    34    1
    34    10     2   ar
    35    34    11    1
    36     9     4   ar
    37    25    19   ar
    38    32    26   ar
    39     3    35    1
    40     5    36    1
    41     6    37    1
    42     7    38    1
    43     8    39    1
    44    11    40    1
    45    12    41    1
    46    12    42    1
    47    13    43    1
    48    13    44    1
    49    15    45    1
    50    15    46    1
    51    16    47    1
    52    16    48    1
    53    17    49    1
    54    17    50    1
    55    18    51    1
    56    20    52    1
    57    21    53    1
    58    24    54    1
    59    25    55    1
    60    27    56    1
    61    28    57    1
    62    31    58    1
    63    32    59    1
    64    33    60    1
    65    33    61    1
    66    34    62    1
    67    34    63    1
