
     RDKit          3D

 38 38  0  0  0  0  0  0  0  0999 V2000
   -1.6550    0.1090    0.6043 C   0  0  1  0  0  0  0  0  0  0  0  0
   -2.3906    0.9296    1.6141 C   0  0  0  0  0  0  0  0  0  0  0  0
   -2.6944    0.0600    2.8101 C   0  0  0  0  0  0  0  0  0  0  0  0
   -2.5319   -1.0469    0.2068 C   0  0  0  0  0  0  0  0  0  0  0  0
   -2.1151   -1.9931   -0.7264 O   0  0  0  0  0  0  0  0  0  0  0  0
   -3.7053   -1.3175    0.6322 O   0  0  0  0  0  0  0  0  0  0  0  0
   -1.3857    0.8601   -0.6791 C   0  0  2  0  0  0  0  0  0  0  0  0
   -0.5856    2.0518   -0.4831 N   0  0  0  0  0  0  0  0  0  0  0  0
    0.8680    1.8816   -1.3557 S   0  0  0  0  0  0  0  0  0  0  0  0
    1.6535    3.1714   -1.1966 O   0  0  0  0  0  0  0  0  0  0  0  0
    0.5349    1.6624   -2.8202 O   0  0  0  0  0  0  0  0  0  0  0  0
    1.8583    0.5562   -0.8601 C   0  0  0  0  0  0  0  0  0  0  0  0
    1.8479   -0.7345   -1.3615 C   0  0  0  0  0  0  0  0  0  0  0  0
    2.7022   -1.6731   -0.8529 C   0  0  0  0  0  0  0  0  0  0  0  0
    3.6030   -1.4191    0.1564 C   0  0  0  0  0  0  0  0  0  0  0  0
    4.4818   -2.5138    0.6306 C   0  0  0  0  0  0  0  0  0  0  0  0
    3.6304   -0.1387    0.6711 C   0  0  0  0  0  0  0  0  0  0  0  0
    2.7718    0.8084    0.1614 C   0  0  0  0  0  0  0  0  0  0  0  0
   -2.6452    1.1953   -1.3912 C   0  0  0  0  0  0  0  0  0  0  0  0
   -3.4863    2.1208   -1.9944 O   0  0  0  0  0  0  0  0  0  0  0  0
   -3.6021    0.4275   -1.7461 O   0  0  0  0  0  0  0  0  0  0  0  0
   -0.6842   -0.2294    0.9950 H   0  0  0  0  0  0  0  0  0  0  0  0
   -1.8075    1.7804    1.9684 H   0  0  0  0  0  0  0  0  0  0  0  0
   -3.3553    1.2306    1.1598 H   0  0  0  0  0  0  0  0  0  0  0  0
   -2.4555   -1.0188    2.6097 H   0  0  0  0  0  0  0  0  0  0  0  0
   -2.1446    0.3869    3.7120 H   0  0  0  0  0  0  0  0  0  0  0  0
   -3.7743    0.0583    3.0802 H   0  0  0  0  0  0  0  0  0  0  0  0
   -2.7698   -2.4627   -1.3488 H   0  0  0  0  0  0  0  0  0  0  0  0
   -0.8133    0.1841   -1.3447 H   0  0  0  0  0  0  0  0  0  0  0  0
   -0.4596    2.2637    0.5162 H   0  0  0  0  0  0  0  0  0  0  0  0
    1.1506   -0.9203   -2.1407 H   0  0  0  0  0  0  0  0  0  0  0  0
    2.6401   -2.6581   -1.2904 H   0  0  0  0  0  0  0  0  0  0  0  0
    5.3078   -2.1070    1.2722 H   0  0  0  0  0  0  0  0  0  0  0  0
    4.9395   -3.0728   -0.1995 H   0  0  0  0  0  0  0  0  0  0  0  0
    3.8315   -3.1899    1.2295 H   0  0  0  0  0  0  0  0  0  0  0  0
    4.3303    0.0943    1.4687 H   0  0  0  0  0  0  0  0  0  0  0  0
    2.8527    1.7926    0.6176 H   0  0  0  0  0  0  0  0  0  0  0  0
   -3.9430    2.8705   -1.4927 H   0  0  0  0  0  0  0  0  0  0  0  0
  1  2  1  0
  2  3  1  0
  1  4  1  0
  4  5  1  0
  4  6  2  0
  1  7  1  0
  7  8  1  0
  8  9  1  0
  9 10  2  0
  9 11  2  0
  9 12  1  0
 12 13  2  0
 13 14  1  0
 14 15  2  0
 15 16  1  0
 15 17  1  0
 17 18  2  0
  7 19  1  0
 19 20  1  0
 19 21  2  0
 18 12  1  0
  1 22  1  1
  2 23  1  0
  2 24  1  0
  3 25  1  0
  3 26  1  0
  3 27  1  0
  5 28  1  0
  7 29  1  6
  8 30  1  0
 13 31  1  0
 14 32  1  0
 16 33  1  0
 16 34  1  0
 16 35  1  0
 17 36  1  0
 18 37  1  0
 20 38  1  0
M  END
$$$$
