@<TRIPOS>MOLECULE
*****
 46 50 0 0 0
SMALL
GASTEIGER

@<TRIPOS>ATOM
      1 C          -5.2132    3.5349   -0.9287 C.3     1  UNL1        0.0788
      2 O          -5.5720    2.3673   -0.2235 O.3     1  UNL1       -0.4950
      3 C          -4.6949    1.2859   -0.2297 C.ar    1  UNL1        0.1221
      4 C          -3.4961    1.3204   -0.8980 C.ar    1  UNL1       -0.0192
      5 C          -2.6001    0.2682   -0.9272 C.ar    1  UNL1       -0.0456
      6 C          -2.9125   -0.8898   -0.2516 C.ar    1  UNL1        0.0423
      7 C          -1.9931   -1.9459   -0.2918 C.ar    1  UNL1        0.1317
      8 O          -0.8503   -1.7471   -1.0043 O.3     1  UNL1       -0.4835
      9 C           0.2377   -2.5458   -1.2253 C.3     1  UNL1        0.1506
     10 C           0.9818   -2.8437    0.0324 C.ar    1  UNL1        0.1921
     11 N           0.9199   -3.8588    0.8955 N.ar    1  UNL1       -0.1286
     12 N           1.7756   -3.7111    1.8857 N.ar    1  UNL1       -0.1278
     13 C           2.4307   -2.5694    1.6865 C.ar    1  UNL1        0.1781
     14 C           3.4399   -1.8978    2.3913 C.ar    1  UNL1       -0.0135
     15 C           3.8666   -0.7063    1.8447 C.ar    1  UNL1       -0.0305
     16 C           3.3673   -0.1674    0.6852 C.ar    1  UNL1        0.0921
     17 C           3.8385    1.1040    0.1230 C.ar    1  UNL1        0.0075
     18 C           4.8125    1.8902    0.6749 C.ar    1  UNL1       -0.0170
     19 C           5.2449    3.0805    0.1369 C.ar    1  UNL1        0.1267
     20 F           6.2095    3.8391    0.7021 F       1  UNL1       -0.2054
     21 C           4.6712    3.5233   -1.0313 C.ar    1  UNL1        0.0088
     22 C           3.6858    2.7695   -1.6283 C.ar    1  UNL1        0.1267
     23 F           3.1346    3.2345   -2.7875 F       1  UNL1       -0.2054
     24 C           3.2733    1.5811   -1.0659 C.ar    1  UNL1       -0.0170
     25 N           2.3995   -0.8784    0.0716 N.ar    1  UNL1       -0.1632
     26 N           1.9566   -2.0293    0.5591 N.ar    1  UNL1       -0.1930
     27 C          -2.3434   -3.0745    0.3905 C.ar    1  UNL1       -0.0012
     28 C          -3.5507   -3.1257    1.0714 C.ar    1  UNL1        0.0317
     29 N          -4.4024   -2.0895    1.0840 N.ar    1  UNL1       -0.2546
     30 C          -4.1050   -0.9450    0.4224 C.ar    1  UNL1        0.0779
     31 C          -5.0041    0.1280    0.4442 C.ar    1  UNL1        0.0061
     32 H          -5.9365    4.3505   -0.7503 H       1  UNL1        0.0660
     33 H          -4.2185    3.8798   -0.6077 H       1  UNL1        0.0660
     34 H          -5.1375    3.2744   -2.0163 H       1  UNL1        0.0660
     35 H          -3.2326    2.2270   -1.4373 H       1  UNL1        0.0654
     36 H          -1.6787    0.3464   -1.4635 H       1  UNL1        0.0626
     37 H           0.9341   -2.0458   -1.9442 H       1  UNL1        0.0780
     38 H          -0.0788   -3.5442   -1.6221 H       1  UNL1        0.0780
     39 H           3.8187   -2.3245    3.2875 H       1  UNL1        0.0656
     40 H           4.6465   -0.1590    2.3632 H       1  UNL1        0.0641
     41 H           5.2796    1.5685    1.5899 H       1  UNL1        0.0653
     42 H           4.9825    4.4616   -1.4943 H       1  UNL1        0.0675
     43 H           2.5027    0.9969   -1.5378 H       1  UNL1        0.0653
     44 H          -1.6744   -3.9249    0.3734 H       1  UNL1        0.0669
     45 H          -3.8043   -4.0290    1.6038 H       1  UNL1        0.0831
     46 H          -5.9110    0.0209    0.9852 H       1  UNL1        0.0676
@<TRIPOS>BOND
     1     1     2    1
     2     2     3    1
     3     3     4   ar
     4     4     5   ar
     5     5     6   ar
     6     6     7   ar
     7     7     8    1
     8     8     9    1
     9     9    10    1
    10    10    11   ar
    11    11    12   ar
    12    12    13   ar
    13    13    14   ar
    14    14    15   ar
    15    15    16   ar
    16    16    17    1
    17    17    18   ar
    18    18    19   ar
    19    19    20    1
    20    19    21   ar
    21    21    22   ar
    22    22    23    1
    23    22    24   ar
    24    16    25   ar
    25    25    26   ar
    26     7    27   ar
    27    27    28   ar
    28    28    29   ar
    29    29    30   ar
    30    30    31   ar
    31    31     3   ar
    32    30     6   ar
    33    26    10   ar
    34    26    13   ar
    35    24    17   ar
    36     1    32    1
    37     1    33    1
    38     1    34    1
    39     4    35    1
    40     5    36    1
    41     9    37    1
    42     9    38    1
    43    14    39    1
    44    15    40    1
    45    18    41    1
    46    21    42    1
    47    24    43    1
    48    27    44    1
    49    28    45    1
    50    31    46    1
