@<TRIPOS>MOLECULE
*****
 67 69 0 0 0
SMALL
GASTEIGER

@<TRIPOS>ATOM
      1 C          -4.9491    0.0073   -2.0437 C.3     1  UNL1       -0.0626
      2 C          -3.7597   -0.8196   -2.4213 C.3     1  UNL1       -0.0445
      3 C          -4.1108   -1.8750   -3.4540 C.3     1  UNL1       -0.0626
      4 C          -2.9904   -1.4261   -1.2959 C.3     1  UNL1       -0.0218
      5 C          -2.3983   -0.4716   -0.3143 C.3     1  UNL1        0.1207
      6 N          -1.5031    0.4769   -0.8804 N.am    1  UNL1       -0.3009
      7 C          -0.1005    0.4424   -0.7314 C.2     1  UNL1        0.2336
      8 O           0.4005   -0.5170   -0.0383 O.2     1  UNL1       -0.2738
      9 C           0.7972    1.4668   -1.3405 C.3     1  UNL1        0.1030
     10 N           2.1823    1.1932   -1.0167 N.ar    1  UNL1       -0.2964
     11 C           2.7427    1.6948    0.0987 C.ar    1  UNL1        0.2739
     12 O           2.0806    2.4104    0.8857 O.2     1  UNL1       -0.2657
     13 C           4.0696    1.4619    0.4595 C.ar    1  UNL1        0.1105
     14 C           4.6636    2.0004    1.7082 C.3     1  UNL1        0.0201
     15 C           5.7426    1.0491    2.1110 C.ar    1  UNL1       -0.0414
     16 C           5.4717   -0.1011    2.8101 C.ar    1  UNL1       -0.0582
     17 C           6.4977   -0.9727    3.1717 C.ar    1  UNL1       -0.0615
     18 C           7.8097   -0.6919    2.8300 C.ar    1  UNL1       -0.0617
     19 C           8.0910    0.4540    2.1315 C.ar    1  UNL1       -0.0615
     20 C           7.0604    1.3009    1.7851 C.ar    1  UNL1       -0.0582
     21 N           4.8282    0.7044   -0.3347 N.ar    1  UNL1       -0.2444
     22 C           4.3088    0.1886   -1.4510 C.ar    1  UNL1        0.0879
     23 C           5.0962   -0.5974   -2.2709 C.ar    1  UNL1       -0.0343
     24 C           4.5958   -1.1468   -3.4241 C.ar    1  UNL1       -0.0596
     25 C           3.2843   -0.8996   -3.7532 C.ar    1  UNL1       -0.0597
     26 C           2.5014   -0.1098   -2.9263 C.ar    1  UNL1       -0.0360
     27 C           3.0003    0.4288   -1.7905 C.ar    1  UNL1        0.0708
     28 C          -3.4408    0.0828    0.5742 C.2     1  UNL1        0.3281
     29 O          -3.5310    1.3319    0.7079 O.2     1  UNL1       -0.2487
     30 O          -4.3270   -0.6797    1.2769 O.3     1  UNL1       -0.4576
     31 C          -5.3186   -0.2334    2.1421 C.3     1  UNL1        0.1053
     32 C          -4.7594    0.5549    3.3196 C.3     1  UNL1       -0.0254
     33 C          -6.0480   -1.4772    2.6612 C.3     1  UNL1       -0.0254
     34 C          -6.3721    0.6421    1.5050 C.3     1  UNL1       -0.0254
     35 H          -5.4935   -0.3458   -1.1502 H       1  UNL1        0.0232
     36 H          -5.6592   -0.0176   -2.9335 H       1  UNL1        0.0232
     37 H          -4.7177    1.0903   -1.8828 H       1  UNL1        0.0232
     38 H          -3.0450   -0.0962   -2.9302 H       1  UNL1        0.0296
     39 H          -3.8693   -1.5093   -4.4656 H       1  UNL1        0.0232
     40 H          -5.1657   -2.2012   -3.4062 H       1  UNL1        0.0232
     41 H          -3.5005   -2.7666   -3.2389 H       1  UNL1        0.0232
     42 H          -2.2031   -2.0976   -1.7551 H       1  UNL1        0.0291
     43 H          -3.6752   -2.1714   -0.7943 H       1  UNL1        0.0291
     44 H          -1.7062   -1.1552    0.3299 H       1  UNL1        0.0614
     45 H          -1.8765    1.2871   -1.4598 H       1  UNL1        0.1496
     46 H           0.5998    1.6703   -2.3938 H       1  UNL1        0.0589
     47 H           0.5510    2.4242   -0.8227 H       1  UNL1        0.0589
     48 H           3.8874    2.1242    2.4976 H       1  UNL1        0.0378
     49 H           5.1578    2.9655    1.4836 H       1  UNL1        0.0378
     50 H           4.4738   -0.3692    3.1011 H       1  UNL1        0.0620
     51 H           6.2418   -1.8562    3.7178 H       1  UNL1        0.0618
     52 H           8.5846   -1.3927    3.1269 H       1  UNL1        0.0618
     53 H           9.1334    0.6902    1.8526 H       1  UNL1        0.0618
     54 H           7.2771    2.2080    1.2376 H       1  UNL1        0.0620
     55 H           6.1363   -0.7736   -1.9794 H       1  UNL1        0.0639
     56 H           5.2328   -1.7516   -4.0344 H       1  UNL1        0.0618
     57 H           2.9264   -1.3505   -4.6690 H       1  UNL1        0.0618
     58 H           1.4802    0.0467   -3.2374 H       1  UNL1        0.0639
     59 H          -4.7385    1.6285    3.0486 H       1  UNL1        0.0268
     60 H          -3.7506    0.2228    3.6064 H       1  UNL1        0.0268
     61 H          -5.4780    0.4635    4.1634 H       1  UNL1        0.0268
     62 H          -7.0130   -1.2149    3.1337 H       1  UNL1        0.0268
     63 H          -5.3661   -1.9992    3.3790 H       1  UNL1        0.0268
     64 H          -6.1523   -2.1655    1.7975 H       1  UNL1        0.0268
     65 H          -6.9075    0.0590    0.7473 H       1  UNL1        0.0268
     66 H          -7.1134    0.9928    2.2491 H       1  UNL1        0.0268
     67 H          -5.8672    1.4882    0.9902 H       1  UNL1        0.0268
@<TRIPOS>BOND
     1     1     2    1
     2     2     3    1
     3     2     4    1
     4     4     5    1
     5     5     6    1
     6     6     7   am
     7     7     8    2
     8     7     9    1
     9     9    10    1
    10    10    11   ar
    11    11    12    2
    12    11    13   ar
    13    13    14    1
    14    14    15    1
    15    15    16   ar
    16    16    17   ar
    17    17    18   ar
    18    18    19   ar
    19    19    20   ar
    20    13    21   ar
    21    21    22   ar
    22    22    23   ar
    23    23    24   ar
    24    24    25   ar
    25    25    26   ar
    26    26    27   ar
    27     5    28    1
    28    28    29    2
    29    28    30    1
    30    30    31    1
    31    31    32    1
    32    31    33    1
    33    31    34    1
    34    27    10   ar
    35    20    15   ar
    36    27    22   ar
    37     1    35    1
    38     1    36    1
    39     1    37    1
    40     2    38    1
    41     3    39    1
    42     3    40    1
    43     3    41    1
    44     4    42    1
    45     4    43    1
    46     5    44    1
    47     6    45    1
    48     9    46    1
    49     9    47    1
    50    14    48    1
    51    14    49    1
    52    16    50    1
    53    17    51    1
    54    18    52    1
    55    19    53    1
    56    20    54    1
    57    23    55    1
    58    24    56    1
    59    25    57    1
    60    26    58    1
    61    32    59    1
    62    32    60    1
    63    32    61    1
    64    33    62    1
    65    33    63    1
    66    33    64    1
    67    34    65    1
    68    34    66    1
    69    34    67    1
