
     RDKit          3D

 67 69  0  0  0  0  0  0  0  0999 V2000
   -4.9491    0.0073   -2.0437 C   0  0  0  0  0  0  0  0  0  0  0  0
   -3.7597   -0.8196   -2.4213 C   0  0  0  0  0  0  0  0  0  0  0  0
   -4.1108   -1.8750   -3.4540 C   0  0  0  0  0  0  0  0  0  0  0  0
   -2.9904   -1.4261   -1.2959 C   0  0  0  0  0  0  0  0  0  0  0  0
   -2.3983   -0.4716   -0.3143 C   0  0  0  0  0  0  0  0  0  0  0  0
   -1.5031    0.4769   -0.8804 N   0  0  0  0  0  0  0  0  0  0  0  0
   -0.1005    0.4424   -0.7314 C   0  0  0  0  0  0  0  0  0  0  0  0
    0.4005   -0.5170   -0.0383 O   0  0  0  0  0  0  0  0  0  0  0  0
    0.7972    1.4668   -1.3405 C   0  0  0  0  0  0  0  0  0  0  0  0
    2.1823    1.1932   -1.0167 N   0  0  0  0  0  0  0  0  0  0  0  0
    2.7427    1.6948    0.0987 C   0  0  0  0  0  0  0  0  0  0  0  0
    2.0806    2.4104    0.8857 O   0  0  0  0  0  0  0  0  0  0  0  0
    4.0696    1.4619    0.4595 C   0  0  0  0  0  0  0  0  0  0  0  0
    4.6636    2.0004    1.7082 C   0  0  0  0  0  0  0  0  0  0  0  0
    5.7426    1.0491    2.1110 C   0  0  0  0  0  0  0  0  0  0  0  0
    5.4717   -0.1011    2.8101 C   0  0  0  0  0  0  0  0  0  0  0  0
    6.4977   -0.9727    3.1717 C   0  0  0  0  0  0  0  0  0  0  0  0
    7.8097   -0.6919    2.8300 C   0  0  0  0  0  0  0  0  0  0  0  0
    8.0910    0.4540    2.1315 C   0  0  0  0  0  0  0  0  0  0  0  0
    7.0604    1.3009    1.7851 C   0  0  0  0  0  0  0  0  0  0  0  0
    4.8282    0.7044   -0.3347 N   0  0  0  0  0  0  0  0  0  0  0  0
    4.3088    0.1886   -1.4510 C   0  0  0  0  0  0  0  0  0  0  0  0
    5.0962   -0.5974   -2.2709 C   0  0  0  0  0  0  0  0  0  0  0  0
    4.5958   -1.1468   -3.4241 C   0  0  0  0  0  0  0  0  0  0  0  0
    3.2843   -0.8996   -3.7532 C   0  0  0  0  0  0  0  0  0  0  0  0
    2.5014   -0.1098   -2.9263 C   0  0  0  0  0  0  0  0  0  0  0  0
    3.0003    0.4288   -1.7905 C   0  0  0  0  0  0  0  0  0  0  0  0
   -3.4408    0.0828    0.5742 C   0  0  0  0  0  0  0  0  0  0  0  0
   -3.5310    1.3319    0.7079 O   0  0  0  0  0  0  0  0  0  0  0  0
   -4.3270   -0.6797    1.2769 O   0  0  0  0  0  0  0  0  0  0  0  0
   -5.3186   -0.2334    2.1421 C   0  0  0  0  0  0  0  0  0  0  0  0
   -4.7594    0.5549    3.3196 C   0  0  0  0  0  0  0  0  0  0  0  0
   -6.0480   -1.4772    2.6612 C   0  0  0  0  0  0  0  0  0  0  0  0
   -6.3721    0.6421    1.5050 C   0  0  0  0  0  0  0  0  0  0  0  0
   -5.4935   -0.3458   -1.1502 H   0  0  0  0  0  0  0  0  0  0  0  0
   -5.6592   -0.0176   -2.9335 H   0  0  0  0  0  0  0  0  0  0  0  0
   -4.7177    1.0903   -1.8828 H   0  0  0  0  0  0  0  0  0  0  0  0
   -3.0450   -0.0962   -2.9302 H   0  0  0  0  0  0  0  0  0  0  0  0
   -3.8693   -1.5093   -4.4656 H   0  0  0  0  0  0  0  0  0  0  0  0
   -5.1657   -2.2012   -3.4062 H   0  0  0  0  0  0  0  0  0  0  0  0
   -3.5005   -2.7666   -3.2389 H   0  0  0  0  0  0  0  0  0  0  0  0
   -2.2031   -2.0976   -1.7551 H   0  0  0  0  0  0  0  0  0  0  0  0
   -3.6752   -2.1714   -0.7943 H   0  0  0  0  0  0  0  0  0  0  0  0
   -1.7062   -1.1552    0.3299 H   0  0  0  0  0  0  0  0  0  0  0  0
   -1.8765    1.2871   -1.4598 H   0  0  0  0  0  0  0  0  0  0  0  0
    0.5998    1.6703   -2.3938 H   0  0  0  0  0  0  0  0  0  0  0  0
    0.5510    2.4242   -0.8227 H   0  0  0  0  0  0  0  0  0  0  0  0
    3.8874    2.1242    2.4976 H   0  0  0  0  0  0  0  0  0  0  0  0
    5.1578    2.9655    1.4836 H   0  0  0  0  0  0  0  0  0  0  0  0
    4.4738   -0.3692    3.1011 H   0  0  0  0  0  0  0  0  0  0  0  0
    6.2418   -1.8562    3.7178 H   0  0  0  0  0  0  0  0  0  0  0  0
    8.5846   -1.3927    3.1269 H   0  0  0  0  0  0  0  0  0  0  0  0
    9.1334    0.6902    1.8526 H   0  0  0  0  0  0  0  0  0  0  0  0
    7.2771    2.2080    1.2376 H   0  0  0  0  0  0  0  0  0  0  0  0
    6.1363   -0.7736   -1.9794 H   0  0  0  0  0  0  0  0  0  0  0  0
    5.2328   -1.7516   -4.0344 H   0  0  0  0  0  0  0  0  0  0  0  0
    2.9264   -1.3505   -4.6690 H   0  0  0  0  0  0  0  0  0  0  0  0
    1.4802    0.0467   -3.2374 H   0  0  0  0  0  0  0  0  0  0  0  0
   -4.7385    1.6285    3.0486 H   0  0  0  0  0  0  0  0  0  0  0  0
   -3.7506    0.2228    3.6064 H   0  0  0  0  0  0  0  0  0  0  0  0
   -5.4780    0.4635    4.1634 H   0  0  0  0  0  0  0  0  0  0  0  0
   -7.0130   -1.2149    3.1337 H   0  0  0  0  0  0  0  0  0  0  0  0
   -5.3661   -1.9992    3.3790 H   0  0  0  0  0  0  0  0  0  0  0  0
   -6.1523   -2.1655    1.7975 H   0  0  0  0  0  0  0  0  0  0  0  0
   -6.9075    0.0590    0.7473 H   0  0  0  0  0  0  0  0  0  0  0  0
   -7.1134    0.9928    2.2491 H   0  0  0  0  0  0  0  0  0  0  0  0
   -5.8672    1.4882    0.9902 H   0  0  0  0  0  0  0  0  0  0  0  0
  1  2  1  0
  2  3  1  0
  2  4  1  0
  4  5  1  0
  5  6  1  0
  6  7  1  0
  7  8  2  0
  7  9  1  0
  9 10  1  0
 10 11  1  0
 11 12  2  0
 11 13  1  0
 13 14  1  0
 14 15  1  0
 15 16  2  0
 16 17  1  0
 17 18  2  0
 18 19  1  0
 19 20  2  0
 13 21  2  0
 21 22  1  0
 22 23  2  0
 23 24  1  0
 24 25  2  0
 25 26  1  0
 26 27  2  0
  5 28  1  0
 28 29  2  0
 28 30  1  0
 30 31  1  0
 31 32  1  0
 31 33  1  0
 31 34  1  0
 27 10  1  0
 20 15  1  0
 27 22  1  0
  1 35  1  0
  1 36  1  0
  1 37  1  0
  2 38  1  0
  3 39  1  0
  3 40  1  0
  3 41  1  0
  4 42  1  0
  4 43  1  0
  5 44  1  0
  6 45  1  0
  9 46  1  0
  9 47  1  0
 14 48  1  0
 14 49  1  0
 16 50  1  0
 17 51  1  0
 18 52  1  0
 19 53  1  0
 20 54  1  0
 23 55  1  0
 24 56  1  0
 25 57  1  0
 26 58  1  0
 32 59  1  0
 32 60  1  0
 32 61  1  0
 33 62  1  0
 33 63  1  0
 33 64  1  0
 34 65  1  0
 34 66  1  0
 34 67  1  0
M  END
$$$$
