@<TRIPOS>MOLECULE
*****
 43 46 0 0 0
SMALL
GASTEIGER

@<TRIPOS>ATOM
      1 C           1.1847   -1.3357    1.4571 C.3     1  UNL1        0.0291
      2 N           0.7319   -0.4866    0.3444 N.ar    1  UNL1       -0.2830
      3 C          -0.5418   -0.3135   -0.0412 C.ar    1  UNL1        0.0511
      4 C          -0.5290    0.5521   -1.1120 C.ar    1  UNL1        0.0437
      5 C           0.7818    0.8685   -1.3278 C.ar    1  UNL1        0.2756
      6 O           1.2154    1.6374   -2.2222 O.2     1  UNL1       -0.2655
      7 N           1.5285    0.2227   -0.4274 N.ar    1  UNL1       -0.2155
      8 C           2.9639    0.2683   -0.2910 C.ar    1  UNL1        0.0856
      9 C           3.7399   -0.8665   -0.4184 C.ar    1  UNL1       -0.0348
     10 C           5.1013   -0.8711   -0.2973 C.ar    1  UNL1       -0.0597
     11 C           5.7343    0.3277   -0.0328 C.ar    1  UNL1       -0.0603
     12 C           4.9976    1.4917    0.1032 C.ar    1  UNL1       -0.0413
     13 C           3.6236    1.4509   -0.0269 C.ar    1  UNL1        0.0664
     14 CL          2.7043    2.9399    0.1490 Cl      1  UNL1       -0.0813
     15 C          -1.9666    0.7354   -1.5311 C.3     1  UNL1       -0.0029
     16 C          -2.4087   -0.5458   -2.1383 C.3     1  UNL1       -0.0446
     17 C          -2.4194   -1.5130   -0.9434 C.3     1  UNL1       -0.0411
     18 C          -1.9576   -0.6781    0.2187 C.3     1  UNL1        0.0158
     19 C          -2.2454   -1.1673    1.5551 C.3     1  UNL1       -0.0536
     20 C          -2.6157    0.6639   -0.1424 C.3     1  UNL1       -0.0171
     21 C          -4.0889    0.5566   -0.1909 C.3     1  UNL1       -0.0584
     22 C          -2.0746    1.7896    0.6629 C.3     1  UNL1       -0.0584
     23 H           0.8189   -2.3642    1.2821 H       1  UNL1        0.0472
     24 H           0.7532   -0.9727    2.4189 H       1  UNL1        0.0472
     25 H           2.2757   -1.2940    1.5309 H       1  UNL1        0.0472
     26 H           3.1941   -1.7980   -0.6287 H       1  UNL1        0.0639
     27 H           5.6150   -1.8115   -0.4144 H       1  UNL1        0.0618
     28 H           6.8290    0.3325    0.0661 H       1  UNL1        0.0618
     29 H           5.4875    2.4440    0.3121 H       1  UNL1        0.0633
     30 H          -2.1578    1.6392   -2.0602 H       1  UNL1        0.0357
     31 H          -1.6508   -0.9339   -2.8808 H       1  UNL1        0.0272
     32 H          -3.3601   -0.5266   -2.6651 H       1  UNL1        0.0272
     33 H          -1.6611   -2.3090   -1.0951 H       1  UNL1        0.0274
     34 H          -3.4221   -1.9514   -0.8044 H       1  UNL1        0.0274
     35 H          -1.4325   -1.8262    1.9151 H       1  UNL1        0.0239
     36 H          -3.1656   -1.8186    1.5377 H       1  UNL1        0.0239
     37 H          -2.4805   -0.3683    2.2907 H       1  UNL1        0.0239
     38 H          -4.4161   -0.1296   -0.9671 H       1  UNL1        0.0235
     39 H          -4.5228    1.5670   -0.2546 H       1  UNL1        0.0235
     40 H          -4.4398    0.1343    0.7837 H       1  UNL1        0.0235
     41 H          -0.9589    1.7397    0.6095 H       1  UNL1        0.0235
     42 H          -2.3573    2.7384    0.1748 H       1  UNL1        0.0235
     43 H          -2.4077    1.7819    1.7159 H       1  UNL1        0.0235
@<TRIPOS>BOND
     1     1     2    1
     2     2     3   ar
     3     3     4   ar
     4     4     5   ar
     5     5     6    2
     6     5     7   ar
     7     7     8    1
     8     8     9   ar
     9     9    10   ar
    10    10    11   ar
    11    11    12   ar
    12    12    13   ar
    13    13    14    1
    14     4    15    1
    15    15    16    1
    16    16    17    1
    17    17    18    1
    18    18    19    1
    19    18    20    1
    20    20    21    1
    21    20    22    1
    22     7     2   ar
    23    13     8   ar
    24    20    15    1
    25    18     3    1
    26     1    23    1
    27     1    24    1
    28     1    25    1
    29     9    26    1
    30    10    27    1
    31    11    28    1
    32    12    29    1
    33    15    30    1
    34    16    31    1
    35    16    32    1
    36    17    33    1
    37    17    34    1
    38    19    35    1
    39    19    36    1
    40    19    37    1
    41    21    38    1
    42    21    39    1
    43    21    40    1
    44    22    41    1
    45    22    42    1
    46    22    43    1
