
     RDKit          3D

 43 46  0  0  0  0  0  0  0  0999 V2000
    1.1847   -1.3357    1.4571 C   0  0  0  0  0  0  0  0  0  0  0  0
    0.7319   -0.4866    0.3444 N   0  0  0  0  0  0  0  0  0  0  0  0
   -0.5418   -0.3135   -0.0412 C   0  0  0  0  0  0  0  0  0  0  0  0
   -0.5290    0.5521   -1.1120 C   0  0  0  0  0  0  0  0  0  0  0  0
    0.7818    0.8685   -1.3278 C   0  0  0  0  0  0  0  0  0  0  0  0
    1.2154    1.6374   -2.2222 O   0  0  0  0  0  0  0  0  0  0  0  0
    1.5285    0.2227   -0.4274 N   0  0  0  0  0  0  0  0  0  0  0  0
    2.9639    0.2683   -0.2910 C   0  0  0  0  0  0  0  0  0  0  0  0
    3.7399   -0.8665   -0.4184 C   0  0  0  0  0  0  0  0  0  0  0  0
    5.1013   -0.8711   -0.2973 C   0  0  0  0  0  0  0  0  0  0  0  0
    5.7343    0.3277   -0.0328 C   0  0  0  0  0  0  0  0  0  0  0  0
    4.9976    1.4917    0.1032 C   0  0  0  0  0  0  0  0  0  0  0  0
    3.6236    1.4509   -0.0269 C   0  0  0  0  0  0  0  0  0  0  0  0
    2.7043    2.9399    0.1490 Cl  0  0  0  0  0  0  0  0  0  0  0  0
   -1.9666    0.7354   -1.5311 C   0  0  1  0  0  0  0  0  0  0  0  0
   -2.4087   -0.5458   -2.1383 C   0  0  0  0  0  0  0  0  0  0  0  0
   -2.4194   -1.5130   -0.9434 C   0  0  0  0  0  0  0  0  0  0  0  0
   -1.9576   -0.6781    0.2187 C   0  0  1  0  0  0  0  0  0  0  0  0
   -2.2454   -1.1673    1.5551 C   0  0  0  0  0  0  0  0  0  0  0  0
   -2.6157    0.6639   -0.1424 C   0  0  0  0  0  0  0  0  0  0  0  0
   -4.0889    0.5566   -0.1909 C   0  0  0  0  0  0  0  0  0  0  0  0
   -2.0746    1.7896    0.6629 C   0  0  0  0  0  0  0  0  0  0  0  0
    0.8189   -2.3642    1.2821 H   0  0  0  0  0  0  0  0  0  0  0  0
    0.7532   -0.9727    2.4189 H   0  0  0  0  0  0  0  0  0  0  0  0
    2.2757   -1.2940    1.5309 H   0  0  0  0  0  0  0  0  0  0  0  0
    3.1941   -1.7980   -0.6287 H   0  0  0  0  0  0  0  0  0  0  0  0
    5.6150   -1.8115   -0.4144 H   0  0  0  0  0  0  0  0  0  0  0  0
    6.8290    0.3325    0.0661 H   0  0  0  0  0  0  0  0  0  0  0  0
    5.4875    2.4440    0.3121 H   0  0  0  0  0  0  0  0  0  0  0  0
   -2.1578    1.6392   -2.0602 H   0  0  0  0  0  0  0  0  0  0  0  0
   -1.6508   -0.9339   -2.8808 H   0  0  0  0  0  0  0  0  0  0  0  0
   -3.3601   -0.5266   -2.6651 H   0  0  0  0  0  0  0  0  0  0  0  0
   -1.6611   -2.3090   -1.0951 H   0  0  0  0  0  0  0  0  0  0  0  0
   -3.4221   -1.9514   -0.8044 H   0  0  0  0  0  0  0  0  0  0  0  0
   -1.4325   -1.8262    1.9151 H   0  0  0  0  0  0  0  0  0  0  0  0
   -3.1656   -1.8186    1.5377 H   0  0  0  0  0  0  0  0  0  0  0  0
   -2.4805   -0.3683    2.2907 H   0  0  0  0  0  0  0  0  0  0  0  0
   -4.4161   -0.1296   -0.9671 H   0  0  0  0  0  0  0  0  0  0  0  0
   -4.5228    1.5670   -0.2546 H   0  0  0  0  0  0  0  0  0  0  0  0
   -4.4398    0.1343    0.7837 H   0  0  0  0  0  0  0  0  0  0  0  0
   -0.9589    1.7397    0.6095 H   0  0  0  0  0  0  0  0  0  0  0  0
   -2.3573    2.7384    0.1748 H   0  0  0  0  0  0  0  0  0  0  0  0
   -2.4077    1.7819    1.7159 H   0  0  0  0  0  0  0  0  0  0  0  0
  1  2  1  0
  2  3  1  0
  3  4  2  0
  4  5  1  0
  5  6  2  0
  5  7  1  0
  7  8  1  0
  8  9  2  0
  9 10  1  0
 10 11  2  0
 11 12  1  0
 12 13  2  0
 13 14  1  0
  4 15  1  0
 15 16  1  0
 16 17  1  0
 17 18  1  0
 18 19  1  1
 18 20  1  0
 20 21  1  0
 20 22  1  0
  7  2  1  0
 13  8  1  0
 20 15  1  0
 18  3  1  0
  1 23  1  0
  1 24  1  0
  1 25  1  0
  9 26  1  0
 10 27  1  0
 11 28  1  0
 12 29  1  0
 15 30  1  6
 16 31  1  0
 16 32  1  0
 17 33  1  0
 17 34  1  0
 19 35  1  0
 19 36  1  0
 19 37  1  0
 21 38  1  0
 21 39  1  0
 21 40  1  0
 22 41  1  0
 22 42  1  0
 22 43  1  0
M  END
$$$$
