
     RDKit          3D

 65 67  0  0  0  0  0  0  0  0999 V2000
   -4.7525    2.7583    3.9143 C   0  0  0  0  0  0  0  0  0  0  0  0
   -5.2059    1.7678    3.0447 O   0  0  0  0  0  0  0  0  0  0  0  0
   -4.4108    1.0402    2.1748 C   0  0  0  0  0  0  0  0  0  0  0  0
   -3.1943    1.2823    2.1609 O   0  0  0  0  0  0  0  0  0  0  0  0
   -4.9888    0.0156    1.2970 C   0  0  0  0  0  0  0  0  0  0  0  0
   -6.3355   -0.2489    1.3115 C   0  0  0  0  0  0  0  0  0  0  0  0
   -6.9101   -1.2097    0.4904 C   0  0  0  0  0  0  0  0  0  0  0  0
   -6.0713   -1.9178   -0.3704 C   0  0  0  0  0  0  0  0  0  0  0  0
   -4.7189   -1.6802   -0.4124 C   0  0  0  0  0  0  0  0  0  0  0  0
   -4.1958   -0.7160    0.4227 C   0  0  0  0  0  0  0  0  0  0  0  0
   -2.8464   -0.4030    0.4557 O   0  0  0  0  0  0  0  0  0  0  0  0
   -1.8950   -1.0271   -0.3447 C   0  0  0  0  0  0  0  0  0  0  0  0
   -1.8775   -2.5159   -0.0496 C   0  0  0  0  0  0  0  0  0  0  0  0
   -2.1384   -0.7332   -1.8033 C   0  0  0  0  0  0  0  0  0  0  0  0
   -0.4793   -0.5136   -0.0386 C   0  0  0  0  0  0  0  0  0  0  0  0
   -0.4997    0.8477   -0.2923 O   0  0  0  0  0  0  0  0  0  0  0  0
    0.7031    1.4918    0.0038 C   0  0  0  0  0  0  0  0  0  0  0  0
    1.8510    0.5789   -0.3398 C   0  0  0  0  0  0  0  0  0  0  0  0
    3.1530    1.2558   -0.5967 C   0  0  0  0  0  0  0  0  0  0  0  0
    3.6253    2.0268    0.5982 C   0  0  0  0  0  0  0  0  0  0  0  0
    4.7565    1.7950    1.2306 C   0  0  0  0  0  0  0  0  0  0  0  0
    5.7420    0.7455    0.8729 C   0  0  0  0  0  0  0  0  0  0  0  0
    5.8982   -0.2054    2.0388 C   0  0  0  0  0  0  0  0  0  0  0  0
    6.4036    0.4585    3.2468 C   0  0  0  0  0  0  0  0  0  0  0  0
    6.7247    1.6566    3.2688 O   0  0  0  0  0  0  0  0  0  0  0  0
    6.5495   -0.2391    4.4512 O   0  0  0  0  0  0  0  0  0  0  0  0
    1.4910   -0.5114   -1.2575 C   0  0  0  0  0  0  0  0  0  0  0  0
    1.4256   -0.2609   -2.7020 C   0  0  0  0  0  0  0  0  0  0  0  0
    1.4576   -1.3948   -3.5466 C   0  0  0  0  0  0  0  0  0  0  0  0
    1.3763   -1.2493   -4.9022 C   0  0  0  0  0  0  0  0  0  0  0  0
    1.2619   -0.0220   -5.4982 C   0  0  0  0  0  0  0  0  0  0  0  0
    1.2326    1.0403   -4.6844 N   0  0  0  0  0  0  0  0  0  0  0  0
    1.3107    0.9208   -3.3511 C   0  0  0  0  0  0  0  0  0  0  0  0
    0.3858   -1.2527   -0.8213 O   0  0  0  0  0  0  0  0  0  0  0  0
   -4.4344    3.6894    3.3717 H   0  0  0  0  0  0  0  0  0  0  0  0
   -3.9968    2.4256    4.6380 H   0  0  0  0  0  0  0  0  0  0  0  0
   -5.6428    3.0790    4.5284 H   0  0  0  0  0  0  0  0  0  0  0  0
   -7.0213    0.2787    1.9648 H   0  0  0  0  0  0  0  0  0  0  0  0
   -7.9705   -1.4065    0.5132 H   0  0  0  0  0  0  0  0  0  0  0  0
   -6.5229   -2.6665   -1.0093 H   0  0  0  0  0  0  0  0  0  0  0  0
   -4.1202   -2.2387   -1.0821 H   0  0  0  0  0  0  0  0  0  0  0  0
   -1.9158   -3.1387   -0.9699 H   0  0  0  0  0  0  0  0  0  0  0  0
   -0.9115   -2.8276    0.4459 H   0  0  0  0  0  0  0  0  0  0  0  0
   -2.6538   -2.8043    0.7067 H   0  0  0  0  0  0  0  0  0  0  0  0
   -3.1266   -0.2713   -2.0005 H   0  0  0  0  0  0  0  0  0  0  0  0
   -2.0060   -1.6243   -2.4466 H   0  0  0  0  0  0  0  0  0  0  0  0
   -1.4049    0.0282   -2.2028 H   0  0  0  0  0  0  0  0  0  0  0  0
   -0.3002   -0.7282    1.0323 H   0  0  0  0  0  0  0  0  0  0  0  0
    0.6505    1.7688    1.0775 H   0  0  0  0  0  0  0  0  0  0  0  0
    0.7740    2.4160   -0.5639 H   0  0  0  0  0  0  0  0  0  0  0  0
    2.0401    0.0473    0.6835 H   0  0  0  0  0  0  0  0  0  0  0  0
    3.0206    2.0769   -1.3778 H   0  0  0  0  0  0  0  0  0  0  0  0
    3.9479    0.6001   -0.9259 H   0  0  0  0  0  0  0  0  0  0  0  0
    2.9991    2.8533    0.9973 H   0  0  0  0  0  0  0  0  0  0  0  0
    4.9518    2.4596    2.0905 H   0  0  0  0  0  0  0  0  0  0  0  0
    6.7544    1.2403    0.7268 H   0  0  0  0  0  0  0  0  0  0  0  0
    5.5482    0.1865   -0.0331 H   0  0  0  0  0  0  0  0  0  0  0  0
    6.5316   -1.0817    1.7702 H   0  0  0  0  0  0  0  0  0  0  0  0
    4.8801   -0.6340    2.2667 H   0  0  0  0  0  0  0  0  0  0  0  0
    7.3611   -0.1272    5.0436 H   0  0  0  0  0  0  0  0  0  0  0  0
    2.3334   -1.2800   -1.1586 H   0  0  0  0  0  0  0  0  0  0  0  0
    1.5457   -2.3802   -3.1391 H   0  0  0  0  0  0  0  0  0  0  0  0
    1.4010   -2.1293   -5.5610 H   0  0  0  0  0  0  0  0  0  0  0  0
    1.1992    0.0737   -6.5653 H   0  0  0  0  0  0  0  0  0  0  0  0
    1.2609    1.8222   -2.7933 H   0  0  0  0  0  0  0  0  0  0  0  0
  1  2  1  0
  2  3  1  0
  3  4  2  0
  3  5  1  0
  5  6  2  0
  6  7  1  0
  7  8  2  0
  8  9  1  0
  9 10  2  0
 10 11  1  0
 11 12  1  0
 12 13  1  0
 12 14  1  0
 12 15  1  0
 15 16  1  0
 16 17  1  0
 17 18  1  0
 18 19  1  0
 19 20  1  0
 20 21  2  0
 21 22  1  0
 22 23  1  0
 23 24  1  0
 24 25  2  0
 24 26  1  0
 18 27  1  0
 27 28  1  0
 28 29  2  0
 29 30  1  0
 30 31  2  0
 31 32  1  0
 32 33  2  0
 27 34  1  0
 10  5  1  0
 34 15  1  0
 33 28  1  0
  1 35  1  0
  1 36  1  0
  1 37  1  0
  6 38  1  0
  7 39  1  0
  8 40  1  0
  9 41  1  0
 13 42  1  0
 13 43  1  0
 13 44  1  0
 14 45  1  0
 14 46  1  0
 14 47  1  0
 15 48  1  0
 17 49  1  0
 17 50  1  0
 18 51  1  0
 19 52  1  0
 19 53  1  0
 20 54  1  0
 21 55  1  0
 22 56  1  0
 22 57  1  0
 23 58  1  0
 23 59  1  0
 26 60  1  0
 27 61  1  0
 29 62  1  0
 30 63  1  0
 31 64  1  0
 33 65  1  0
M  END
$$$$
