@<TRIPOS>MOLECULE
*****
 65 67 0 0 0
SMALL
GASTEIGER

@<TRIPOS>ATOM
      1 C          -4.7525    2.7583    3.9143 C.3     1  UNL1        0.0820
      2 O          -5.2059    1.7678    3.0447 O.3     1  UNL1       -0.4644
      3 C          -4.4108    1.0402    2.1748 C.2     1  UNL1        0.3425
      4 O          -3.1943    1.2823    2.1609 O.2     1  UNL1       -0.2448
      5 C          -4.9888    0.0156    1.2970 C.ar    1  UNL1        0.1005
      6 C          -6.3355   -0.2489    1.3115 C.ar    1  UNL1       -0.0442
      7 C          -6.9101   -1.2097    0.4904 C.ar    1  UNL1       -0.0608
      8 C          -6.0713   -1.9178   -0.3704 C.ar    1  UNL1       -0.0583
      9 C          -4.7189   -1.6802   -0.4124 C.ar    1  UNL1       -0.0191
     10 C          -4.1958   -0.7160    0.4227 C.ar    1  UNL1        0.1355
     11 O          -2.8464   -0.4030    0.4557 O.3     1  UNL1       -0.4804
     12 C          -1.8950   -1.0271   -0.3447 C.3     1  UNL1        0.1554
     13 C          -1.8775   -2.5159   -0.0496 C.3     1  UNL1       -0.0203
     14 C          -2.1384   -0.7332   -1.8033 C.3     1  UNL1       -0.0203
     15 C          -0.4793   -0.5136   -0.0386 C.3     1  UNL1        0.1991
     16 O          -0.4997    0.8477   -0.2923 O.3     1  UNL1       -0.3473
     17 C           0.7031    1.4918    0.0038 C.3     1  UNL1        0.0566
     18 C           1.8510    0.5789   -0.3398 C.3     1  UNL1        0.0165
     19 C           3.1530    1.2558   -0.5967 C.3     1  UNL1       -0.0271
     20 C           3.6253    2.0268    0.5982 C.2     1  UNL1       -0.0875
     21 C           4.7565    1.7950    1.2306 C.2     1  UNL1       -0.0874
     22 C           5.7420    0.7455    0.8729 C.3     1  UNL1       -0.0247
     23 C           5.8982   -0.2054    2.0388 C.3     1  UNL1        0.0482
     24 C           6.4036    0.4585    3.2468 C.2     1  UNL1        0.3050
     25 O           6.7247    1.6566    3.2688 O.2     1  UNL1       -0.2510
     26 O           6.5495   -0.2391    4.4512 O.3     1  UNL1       -0.4806
     27 C           1.4910   -0.5114   -1.2575 C.3     1  UNL1        0.0933
     28 C           1.4256   -0.2609   -2.7020 C.ar    1  UNL1       -0.0003
     29 C           1.4576   -1.3948   -3.5466 C.ar    1  UNL1       -0.0532
     30 C           1.3763   -1.2493   -4.9022 C.ar    1  UNL1       -0.0433
     31 C           1.2619   -0.0220   -5.4982 C.ar    1  UNL1        0.0276
     32 N           1.2326    1.0403   -4.6844 N.ar    1  UNL1       -0.2629
     33 C           1.3107    0.9208   -3.3511 C.ar    1  UNL1        0.0332
     34 O           0.3858   -1.2527   -0.8213 O.3     1  UNL1       -0.3393
     35 H          -4.4344    3.6894    3.3717 H       1  UNL1        0.0661
     36 H          -3.9968    2.4256    4.6380 H       1  UNL1        0.0661
     37 H          -5.6428    3.0790    4.5284 H       1  UNL1        0.0661
     38 H          -7.0213    0.2787    1.9648 H       1  UNL1        0.0627
     39 H          -7.9705   -1.4065    0.5132 H       1  UNL1        0.0618
     40 H          -6.5229   -2.6665   -1.0093 H       1  UNL1        0.0619
     41 H          -4.1202   -2.2387   -1.0821 H       1  UNL1        0.0654
     42 H          -1.9158   -3.1387   -0.9699 H       1  UNL1        0.0270
     43 H          -0.9115   -2.8276    0.4459 H       1  UNL1        0.0270
     44 H          -2.6538   -2.8043    0.7067 H       1  UNL1        0.0270
     45 H          -3.1266   -0.2713   -2.0005 H       1  UNL1        0.0270
     46 H          -2.0060   -1.6243   -2.4466 H       1  UNL1        0.0270
     47 H          -1.4049    0.0282   -2.2028 H       1  UNL1        0.0270
     48 H          -0.3002   -0.7282    1.0323 H       1  UNL1        0.0951
     49 H           0.6505    1.7688    1.0775 H       1  UNL1        0.0564
     50 H           0.7740    2.4160   -0.5639 H       1  UNL1        0.0564
     51 H           2.0401    0.0473    0.6835 H       1  UNL1        0.0354
     52 H           3.0206    2.0769   -1.3778 H       1  UNL1        0.0312
     53 H           3.9479    0.6001   -0.9259 H       1  UNL1        0.0312
     54 H           2.9991    2.8533    0.9973 H       1  UNL1        0.0569
     55 H           4.9518    2.4596    2.0905 H       1  UNL1        0.0569
     56 H           6.7544    1.2403    0.7268 H       1  UNL1        0.0312
     57 H           5.5482    0.1865   -0.0331 H       1  UNL1        0.0312
     58 H           6.5316   -1.0817    1.7702 H       1  UNL1        0.0380
     59 H           4.8801   -0.6340    2.2667 H       1  UNL1        0.0380
     60 H           7.3611   -0.1272    5.0436 H       1  UNL1        0.2951
     61 H           2.3334   -1.2800   -1.1586 H       1  UNL1        0.0651
     62 H           1.5457   -2.3802   -3.1391 H       1  UNL1        0.0622
     63 H           1.4010   -2.1293   -5.5610 H       1  UNL1        0.0633
     64 H           1.1992    0.0737   -6.5653 H       1  UNL1        0.0829
     65 H           1.2609    1.8222   -2.7933 H       1  UNL1        0.0833
@<TRIPOS>BOND
     1     1     2    1
     2     2     3    1
     3     3     4    2
     4     3     5    1
     5     5     6   ar
     6     6     7   ar
     7     7     8   ar
     8     8     9   ar
     9     9    10   ar
    10    10    11    1
    11    11    12    1
    12    12    13    1
    13    12    14    1
    14    12    15    1
    15    15    16    1
    16    16    17    1
    17    17    18    1
    18    18    19    1
    19    19    20    1
    20    20    21    2
    21    21    22    1
    22    22    23    1
    23    23    24    1
    24    24    25    2
    25    24    26    1
    26    18    27    1
    27    27    28    1
    28    28    29   ar
    29    29    30   ar
    30    30    31   ar
    31    31    32   ar
    32    32    33   ar
    33    27    34    1
    34    10     5   ar
    35    34    15    1
    36    33    28   ar
    37     1    35    1
    38     1    36    1
    39     1    37    1
    40     6    38    1
    41     7    39    1
    42     8    40    1
    43     9    41    1
    44    13    42    1
    45    13    43    1
    46    13    44    1
    47    14    45    1
    48    14    46    1
    49    14    47    1
    50    15    48    1
    51    17    49    1
    52    17    50    1
    53    18    51    1
    54    19    52    1
    55    19    53    1
    56    20    54    1
    57    21    55    1
    58    22    56    1
    59    22    57    1
    60    23    58    1
    61    23    59    1
    62    26    60    1
    63    27    61    1
    64    29    62    1
    65    30    63    1
    66    31    64    1
    67    33    65    1
