@<TRIPOS>MOLECULE
*****
 126 133 0 0 0
SMALL
GASTEIGER

@<TRIPOS>ATOM
      1 C         -10.8115    3.0001    0.2272 C.3     1  UNL1       -0.0437
      2 C         -10.9498    1.5539    0.1030 C.2     1  UNL1       -0.0739
      3 C         -11.9977    0.8979    0.5806 C.2     1  UNL1       -0.0812
      4 C         -11.8198   -0.5851    0.8278 C.3     1  UNL1       -0.0122
      5 C         -12.0595   -1.4067   -0.3904 C.3     1  UNL1       -0.0055
      6 C         -10.8385   -2.0342   -0.9485 C.ar    1  UNL1        0.0248
      7 N         -10.9581   -3.0714   -1.7664 N.ar    1  UNL1       -0.3259
      8 C          -9.8918   -3.6811   -2.3084 C.ar    1  UNL1        0.2489
      9 O         -10.0518   -4.6596   -3.0772 O.2     1  UNL1       -0.2679
     10 C          -8.6113   -3.2592   -2.0419 C.ar    1  UNL1        0.0031
     11 C          -8.4253   -2.1754   -1.1911 C.ar    1  UNL1       -0.0498
     12 C          -9.5486   -1.6059   -0.6777 C.ar    1  UNL1       -0.0039
     13 C          -9.4314   -0.4125    0.2401 C.3     1  UNL1        0.0710
     14 C          -9.9176    0.7368   -0.5674 C.3     1  UNL1       -0.0059
     15 C         -10.4251   -0.7302    1.3676 C.3     1  UNL1       -0.0083
     16 C         -10.1587   -2.0640    1.9616 C.3     1  UNL1       -0.0460
     17 C          -8.7331   -2.4790    1.9744 C.3     1  UNL1       -0.0368
     18 C          -7.7456   -1.3965    1.7659 C.3     1  UNL1        0.0156
     19 N          -8.1724   -0.3099    0.8853 N.am    1  UNL1       -0.2910
     20 C          -7.2939    0.7761    0.7648 C.2     1  UNL1        0.2175
     21 O          -7.4336    1.8017    0.0815 O.2     1  UNL1       -0.2755
     22 C          -5.9884    0.7430    1.5526 C.3     1  UNL1        0.0369
     23 C          -5.1914    1.9792    1.2224 C.3     1  UNL1        0.0069
     24 N          -3.9611    2.0478    1.9283 N.3     1  UNL1       -0.3049
     25 C          -4.0882    2.2466    3.3360 C.3     1  UNL1       -0.0127
     26 C          -2.9378    1.1382    1.5194 C.3     1  UNL1       -0.0014
     27 C          -2.4013    1.4405    0.1303 C.3     1  UNL1       -0.0402
     28 C          -1.3229    0.4335   -0.1479 C.3     1  UNL1       -0.0519
     29 C          -0.6968    0.6077   -1.5311 C.3     1  UNL1       -0.0530
     30 C          -0.1153    1.9570   -1.6578 C.3     1  UNL1       -0.0530
     31 C           0.9080    2.4360   -0.7370 C.3     1  UNL1       -0.0519
     32 C           2.2511    1.8561   -0.6278 C.3     1  UNL1       -0.0402
     33 C           2.3207    0.4474   -0.2222 C.3     1  UNL1       -0.0014
     34 N           3.7727    0.0050   -0.0135 N.3     1  UNL1       -0.3049
     35 C           4.0811    0.7686    1.2104 C.3     1  UNL1       -0.0127
     36 C           4.4583    0.4683   -1.1653 C.3     1  UNL1        0.0069
     37 C           5.7531   -0.0776   -1.5672 C.3     1  UNL1        0.0369
     38 C           6.9155    0.0197   -0.6818 C.2     1  UNL1        0.2175
     39 O           6.7495    0.2630    0.5318 O.2     1  UNL1       -0.2755
     40 N           8.2472   -0.1672   -1.2107 N.am    1  UNL1       -0.2910
     41 C           8.3393   -0.4432   -2.6335 C.3     1  UNL1        0.0156
     42 C           9.7441   -0.6304   -3.1125 C.3     1  UNL1       -0.0368
     43 C          10.6241    0.4808   -2.6296 C.3     1  UNL1       -0.0460
     44 C          10.4805    0.7848   -1.1635 C.3     1  UNL1       -0.0083
     45 C          11.8079    0.7014   -0.4720 C.3     1  UNL1       -0.0122
     46 C          11.6341    1.0094    0.9862 C.2     1  UNL1       -0.0812
     47 C          10.4739    0.8981    1.5920 C.2     1  UNL1       -0.0739
     48 C          10.3818    1.1644    3.0468 C.3     1  UNL1       -0.0437
     49 C           9.1940    0.5090    0.8890 C.3     1  UNL1       -0.0059
     50 C           9.4561   -0.1042   -0.4659 C.3     1  UNL1        0.0710
     51 C          10.0873   -1.4484   -0.3117 C.ar    1  UNL1       -0.0039
     52 C           9.2038   -2.5087   -0.1158 C.ar    1  UNL1       -0.0498
     53 C           9.6781   -3.7842    0.0332 C.ar    1  UNL1        0.0031
     54 C          11.0353   -4.0130   -0.0117 C.ar    1  UNL1        0.2489
     55 O          11.4564   -5.2031    0.1287 O.2     1  UNL1       -0.2679
     56 N          11.8595   -2.9787   -0.2009 N.ar    1  UNL1       -0.3259
     57 C          11.4342   -1.6894   -0.3546 C.ar    1  UNL1        0.0248
     58 C          12.4719   -0.6290   -0.5624 C.3     1  UNL1       -0.0055
     59 H         -10.2190    3.4717   -0.5817 H       1  UNL1        0.0274
     60 H         -10.3450    3.3480    1.1724 H       1  UNL1        0.0274
     61 H         -11.8274    3.4906    0.1710 H       1  UNL1        0.0274
     62 H         -12.9178    1.4012    0.7799 H       1  UNL1        0.0575
     63 H         -12.5114   -0.8473    1.6731 H       1  UNL1        0.0350
     64 H         -12.5384   -0.8086   -1.1871 H       1  UNL1        0.0333
     65 H         -12.8225   -2.1799   -0.1125 H       1  UNL1        0.0333
     66 H         -11.9382   -3.4190   -1.9898 H       1  UNL1        0.1686
     67 H          -7.7276   -3.7164   -2.4510 H       1  UNL1        0.0672
     68 H          -7.4365   -1.8278   -0.9719 H       1  UNL1        0.0623
     69 H          -9.1519    1.3745   -1.0015 H       1  UNL1        0.0334
     70 H         -10.4749    0.3467   -1.5090 H       1  UNL1        0.0334
     71 H         -10.2867    0.0437    2.1478 H       1  UNL1        0.0331
     72 H         -10.7349   -2.8317    1.3624 H       1  UNL1        0.0269
     73 H         -10.6485   -2.1250    2.9719 H       1  UNL1        0.0269
     74 H          -8.5149   -3.4136    1.3736 H       1  UNL1        0.0280
     75 H          -8.5435   -2.8611    3.0342 H       1  UNL1        0.0280
     76 H          -6.8250   -1.8198    1.3148 H       1  UNL1        0.0465
     77 H          -7.3845   -0.9687    2.7455 H       1  UNL1        0.0465
     78 H          -5.3981   -0.1483    1.2698 H       1  UNL1        0.0371
     79 H          -6.1961    0.6642    2.6390 H       1  UNL1        0.0371
     80 H          -5.8621    2.8485    1.4594 H       1  UNL1        0.0431
     81 H          -5.0117    2.0299    0.1154 H       1  UNL1        0.0431
     82 H          -5.1744    2.3669    3.5879 H       1  UNL1        0.0391
     83 H          -3.7541    1.3146    3.8600 H       1  UNL1        0.0391
     84 H          -3.5237    3.1423    3.6888 H       1  UNL1        0.0391
     85 H          -3.3277    0.0996    1.5326 H       1  UNL1        0.0426
     86 H          -2.1192    1.1954    2.2771 H       1  UNL1        0.0426
     87 H          -2.0724    2.4889    0.0531 H       1  UNL1        0.0278
     88 H          -3.2141    1.2962   -0.6022 H       1  UNL1        0.0278
     89 H          -0.5231    0.4289    0.5910 H       1  UNL1        0.0266
     90 H          -1.8121   -0.5709   -0.1553 H       1  UNL1        0.0266
     91 H          -1.5503    0.5548   -2.2980 H       1  UNL1        0.0265
     92 H          -0.0706   -0.2291   -1.7547 H       1  UNL1        0.0265
     93 H          -0.9793    2.6894   -1.6182 H       1  UNL1        0.0265
     94 H           0.2991    2.0689   -2.7221 H       1  UNL1        0.0265
     95 H           1.0660    3.5531   -1.0087 H       1  UNL1        0.0266
     96 H           0.4390    2.5812    0.3059 H       1  UNL1        0.0266
     97 H           2.7293    2.0279   -1.6548 H       1  UNL1        0.0278
     98 H           2.9347    2.4635    0.0374 H       1  UNL1        0.0278
     99 H           1.8488    0.2939    0.7561 H       1  UNL1        0.0426
    100 H           1.9153   -0.2449   -0.9664 H       1  UNL1        0.0426
    101 H           3.1126    1.0682    1.7416 H       1  UNL1        0.0391
    102 H           4.5871    1.6878    0.9201 H       1  UNL1        0.0391
    103 H           4.5931    0.1654    1.9748 H       1  UNL1        0.0391
    104 H           4.5053    1.6021   -1.0480 H       1  UNL1        0.0431
    105 H           3.7546    0.3257   -2.0417 H       1  UNL1        0.0431
    106 H           6.0241    0.4126   -2.5518 H       1  UNL1        0.0371
    107 H           5.5789   -1.1720   -1.8499 H       1  UNL1        0.0371
    108 H           7.9633    0.4886   -3.1532 H       1  UNL1        0.0465
    109 H           7.7582   -1.3254   -2.9432 H       1  UNL1        0.0465
    110 H          10.1427   -1.6369   -2.9462 H       1  UNL1        0.0280
    111 H           9.6978   -0.5139   -4.2393 H       1  UNL1        0.0280
    112 H          10.4123    1.3923   -3.2204 H       1  UNL1        0.0269
    113 H          11.6778    0.1891   -2.8871 H       1  UNL1        0.0269
    114 H          10.1021    1.8259   -1.0184 H       1  UNL1        0.0331
    115 H          12.4457    1.5324   -0.8722 H       1  UNL1        0.0350
    116 H          12.4890    1.3400    1.5809 H       1  UNL1        0.0575
    117 H           9.8042    2.1293    3.1522 H       1  UNL1        0.0274
    118 H           9.7123    0.3882    3.5100 H       1  UNL1        0.0274
    119 H          11.3545    1.2379    3.5377 H       1  UNL1        0.0274
    120 H           8.7100   -0.2062    1.5860 H       1  UNL1        0.0334
    121 H           8.6600    1.4678    0.7612 H       1  UNL1        0.0334
    122 H           8.1384   -2.3418   -0.0792 H       1  UNL1        0.0623
    123 H           8.9702   -4.6065    0.1862 H       1  UNL1        0.0672
    124 H          12.8923   -3.1573   -0.2338 H       1  UNL1        0.1686
    125 H          13.0555   -0.8079   -1.4833 H       1  UNL1        0.0333
    126 H          13.2223   -0.6820    0.2730 H       1  UNL1        0.0333
@<TRIPOS>BOND
     1     1     2    1
     2     2     3    2
     3     3     4    1
     4     4     5    1
     5     5     6    1
     6     6     7   ar
     7     7     8   ar
     8     8     9    2
     9     8    10   ar
    10    10    11   ar
    11    11    12   ar
    12    12    13    1
    13    13    14    1
    14    13    15    1
    15    15    16    1
    16    16    17    1
    17    17    18    1
    18    18    19    1
    19    19    20   am
    20    20    21    2
    21    20    22    1
    22    22    23    1
    23    23    24    1
    24    24    25    1
    25    24    26    1
    26    26    27    1
    27    27    28    1
    28    28    29    1
    29    29    30    1
    30    30    31    1
    31    31    32    1
    32    32    33    1
    33    33    34    1
    34    34    35    1
    35    34    36    1
    36    36    37    1
    37    37    38    1
    38    38    39    2
    39    38    40   am
    40    40    41    1
    41    41    42    1
    42    42    43    1
    43    43    44    1
    44    44    45    1
    45    45    46    1
    46    46    47    2
    47    47    48    1
    48    47    49    1
    49    49    50    1
    50    50    51    1
    51    51    52   ar
    52    52    53   ar
    53    53    54   ar
    54    54    55    2
    55    54    56   ar
    56    56    57   ar
    57    57    58    1
    58    14     2    1
    59    50    40    1
    60    57    51   ar
    61    15     4    1
    62    50    44    1
    63    12     6   ar
    64    13    19    1
    65    58    45    1
    66     1    59    1
    67     1    60    1
    68     1    61    1
    69     3    62    1
    70     4    63    1
    71     5    64    1
    72     5    65    1
    73     7    66    1
    74    10    67    1
    75    11    68    1
    76    14    69    1
    77    14    70    1
    78    15    71    1
    79    16    72    1
    80    16    73    1
    81    17    74    1
    82    17    75    1
    83    18    76    1
    84    18    77    1
    85    22    78    1
    86    22    79    1
    87    23    80    1
    88    23    81    1
    89    25    82    1
    90    25    83    1
    91    25    84    1
    92    26    85    1
    93    26    86    1
    94    27    87    1
    95    27    88    1
    96    28    89    1
    97    28    90    1
    98    29    91    1
    99    29    92    1
   100    30    93    1
   101    30    94    1
   102    31    95    1
   103    31    96    1
   104    32    97    1
   105    32    98    1
   106    33    99    1
   107    33   100    1
   108    35   101    1
   109    35   102    1
   110    35   103    1
   111    36   104    1
   112    36   105    1
   113    37   106    1
   114    37   107    1
   115    41   108    1
   116    41   109    1
   117    42   110    1
   118    42   111    1
   119    43   112    1
   120    43   113    1
   121    44   114    1
   122    45   115    1
   123    46   116    1
   124    48   117    1
   125    48   118    1
   126    48   119    1
   127    49   120    1
   128    49   121    1
   129    52   122    1
   130    53   123    1
   131    56   124    1
   132    58   125    1
   133    58   126    1
