
     RDKit          3D

126133  0  0  0  0  0  0  0  0999 V2000
  -10.8115    3.0001    0.2272 C   0  0  0  0  0  0  0  0  0  0  0  0
  -10.9498    1.5539    0.1030 C   0  0  0  0  0  0  0  0  0  0  0  0
  -11.9977    0.8979    0.5806 C   0  0  0  0  0  0  0  0  0  0  0  0
  -11.8198   -0.5851    0.8278 C   0  0  1  0  0  0  0  0  0  0  0  0
  -12.0595   -1.4067   -0.3904 C   0  0  0  0  0  0  0  0  0  0  0  0
  -10.8385   -2.0342   -0.9485 C   0  0  0  0  0  0  0  0  0  0  0  0
  -10.9581   -3.0714   -1.7664 N   0  0  0  0  0  0  0  0  0  0  0  0
   -9.8918   -3.6811   -2.3084 C   0  0  0  0  0  0  0  0  0  0  0  0
  -10.0518   -4.6596   -3.0772 O   0  0  0  0  0  0  0  0  0  0  0  0
   -8.6113   -3.2592   -2.0419 C   0  0  0  0  0  0  0  0  0  0  0  0
   -8.4253   -2.1754   -1.1911 C   0  0  0  0  0  0  0  0  0  0  0  0
   -9.5486   -1.6059   -0.6777 C   0  0  0  0  0  0  0  0  0  0  0  0
   -9.4314   -0.4125    0.2401 C   0  0  1  0  0  0  0  0  0  0  0  0
   -9.9176    0.7368   -0.5674 C   0  0  0  0  0  0  0  0  0  0  0  0
  -10.4251   -0.7302    1.3676 C   0  0  2  0  0  0  0  0  0  0  0  0
  -10.1587   -2.0640    1.9616 C   0  0  0  0  0  0  0  0  0  0  0  0
   -8.7331   -2.4790    1.9744 C   0  0  0  0  0  0  0  0  0  0  0  0
   -7.7456   -1.3965    1.7659 C   0  0  0  0  0  0  0  0  0  0  0  0
   -8.1724   -0.3099    0.8853 N   0  0  0  0  0  0  0  0  0  0  0  0
   -7.2939    0.7761    0.7648 C   0  0  0  0  0  0  0  0  0  0  0  0
   -7.4336    1.8017    0.0815 O   0  0  0  0  0  0  0  0  0  0  0  0
   -5.9884    0.7430    1.5526 C   0  0  0  0  0  0  0  0  0  0  0  0
   -5.1914    1.9792    1.2224 C   0  0  0  0  0  0  0  0  0  0  0  0
   -3.9611    2.0478    1.9283 N   0  0  0  0  0  0  0  0  0  0  0  0
   -4.0882    2.2466    3.3360 C   0  0  0  0  0  0  0  0  0  0  0  0
   -2.9378    1.1382    1.5194 C   0  0  0  0  0  0  0  0  0  0  0  0
   -2.4013    1.4405    0.1303 C   0  0  0  0  0  0  0  0  0  0  0  0
   -1.3229    0.4335   -0.1479 C   0  0  0  0  0  0  0  0  0  0  0  0
   -0.6968    0.6077   -1.5311 C   0  0  0  0  0  0  0  0  0  0  0  0
   -0.1153    1.9570   -1.6578 C   0  0  0  0  0  0  0  0  0  0  0  0
    0.9080    2.4360   -0.7370 C   0  0  0  0  0  0  0  0  0  0  0  0
    2.2511    1.8561   -0.6278 C   0  0  0  0  0  0  0  0  0  0  0  0
    2.3207    0.4474   -0.2222 C   0  0  0  0  0  0  0  0  0  0  0  0
    3.7727    0.0050   -0.0135 N   0  0  0  0  0  0  0  0  0  0  0  0
    4.0811    0.7686    1.2104 C   0  0  0  0  0  0  0  0  0  0  0  0
    4.4583    0.4683   -1.1653 C   0  0  0  0  0  0  0  0  0  0  0  0
    5.7531   -0.0776   -1.5672 C   0  0  0  0  0  0  0  0  0  0  0  0
    6.9155    0.0197   -0.6818 C   0  0  0  0  0  0  0  0  0  0  0  0
    6.7495    0.2630    0.5318 O   0  0  0  0  0  0  0  0  0  0  0  0
    8.2472   -0.1672   -1.2107 N   0  0  0  0  0  0  0  0  0  0  0  0
    8.3393   -0.4432   -2.6335 C   0  0  0  0  0  0  0  0  0  0  0  0
    9.7441   -0.6304   -3.1125 C   0  0  0  0  0  0  0  0  0  0  0  0
   10.6241    0.4808   -2.6296 C   0  0  0  0  0  0  0  0  0  0  0  0
   10.4805    0.7848   -1.1635 C   0  0  2  0  0  0  0  0  0  0  0  0
   11.8079    0.7014   -0.4720 C   0  0  1  0  0  0  0  0  0  0  0  0
   11.6341    1.0094    0.9862 C   0  0  0  0  0  0  0  0  0  0  0  0
   10.4739    0.8981    1.5920 C   0  0  0  0  0  0  0  0  0  0  0  0
   10.3818    1.1644    3.0468 C   0  0  0  0  0  0  0  0  0  0  0  0
    9.1940    0.5090    0.8890 C   0  0  0  0  0  0  0  0  0  0  0  0
    9.4561   -0.1042   -0.4659 C   0  0  1  0  0  0  0  0  0  0  0  0
   10.0873   -1.4484   -0.3117 C   0  0  0  0  0  0  0  0  0  0  0  0
    9.2038   -2.5087   -0.1158 C   0  0  0  0  0  0  0  0  0  0  0  0
    9.6781   -3.7842    0.0332 C   0  0  0  0  0  0  0  0  0  0  0  0
   11.0353   -4.0130   -0.0117 C   0  0  0  0  0  0  0  0  0  0  0  0
   11.4564   -5.2031    0.1287 O   0  0  0  0  0  0  0  0  0  0  0  0
   11.8595   -2.9787   -0.2009 N   0  0  0  0  0  0  0  0  0  0  0  0
   11.4342   -1.6894   -0.3546 C   0  0  0  0  0  0  0  0  0  0  0  0
   12.4719   -0.6290   -0.5624 C   0  0  0  0  0  0  0  0  0  0  0  0
  -10.2190    3.4717   -0.5817 H   0  0  0  0  0  0  0  0  0  0  0  0
  -10.3450    3.3480    1.1724 H   0  0  0  0  0  0  0  0  0  0  0  0
  -11.8274    3.4906    0.1710 H   0  0  0  0  0  0  0  0  0  0  0  0
  -12.9178    1.4012    0.7799 H   0  0  0  0  0  0  0  0  0  0  0  0
  -12.5114   -0.8473    1.6731 H   0  0  0  0  0  0  0  0  0  0  0  0
  -12.5384   -0.8086   -1.1871 H   0  0  0  0  0  0  0  0  0  0  0  0
  -12.8225   -2.1799   -0.1125 H   0  0  0  0  0  0  0  0  0  0  0  0
  -11.9382   -3.4190   -1.9898 H   0  0  0  0  0  0  0  0  0  0  0  0
   -7.7276   -3.7164   -2.4510 H   0  0  0  0  0  0  0  0  0  0  0  0
   -7.4365   -1.8278   -0.9719 H   0  0  0  0  0  0  0  0  0  0  0  0
   -9.1519    1.3745   -1.0015 H   0  0  0  0  0  0  0  0  0  0  0  0
  -10.4749    0.3467   -1.5090 H   0  0  0  0  0  0  0  0  0  0  0  0
  -10.2867    0.0437    2.1478 H   0  0  0  0  0  0  0  0  0  0  0  0
  -10.7349   -2.8317    1.3624 H   0  0  0  0  0  0  0  0  0  0  0  0
  -10.6485   -2.1250    2.9719 H   0  0  0  0  0  0  0  0  0  0  0  0
   -8.5149   -3.4136    1.3736 H   0  0  0  0  0  0  0  0  0  0  0  0
   -8.5435   -2.8611    3.0342 H   0  0  0  0  0  0  0  0  0  0  0  0
   -6.8250   -1.8198    1.3148 H   0  0  0  0  0  0  0  0  0  0  0  0
   -7.3845   -0.9687    2.7455 H   0  0  0  0  0  0  0  0  0  0  0  0
   -5.3981   -0.1483    1.2698 H   0  0  0  0  0  0  0  0  0  0  0  0
   -6.1961    0.6642    2.6390 H   0  0  0  0  0  0  0  0  0  0  0  0
   -5.8621    2.8485    1.4594 H   0  0  0  0  0  0  0  0  0  0  0  0
   -5.0117    2.0299    0.1154 H   0  0  0  0  0  0  0  0  0  0  0  0
   -5.1744    2.3669    3.5879 H   0  0  0  0  0  0  0  0  0  0  0  0
   -3.7541    1.3146    3.8600 H   0  0  0  0  0  0  0  0  0  0  0  0
   -3.5237    3.1423    3.6888 H   0  0  0  0  0  0  0  0  0  0  0  0
   -3.3277    0.0996    1.5326 H   0  0  0  0  0  0  0  0  0  0  0  0
   -2.1192    1.1954    2.2771 H   0  0  0  0  0  0  0  0  0  0  0  0
   -2.0724    2.4889    0.0531 H   0  0  0  0  0  0  0  0  0  0  0  0
   -3.2141    1.2962   -0.6022 H   0  0  0  0  0  0  0  0  0  0  0  0
   -0.5231    0.4289    0.5910 H   0  0  0  0  0  0  0  0  0  0  0  0
   -1.8121   -0.5709   -0.1553 H   0  0  0  0  0  0  0  0  0  0  0  0
   -1.5503    0.5548   -2.2980 H   0  0  0  0  0  0  0  0  0  0  0  0
   -0.0706   -0.2291   -1.7547 H   0  0  0  0  0  0  0  0  0  0  0  0
   -0.9793    2.6894   -1.6182 H   0  0  0  0  0  0  0  0  0  0  0  0
    0.2991    2.0689   -2.7221 H   0  0  0  0  0  0  0  0  0  0  0  0
    1.0660    3.5531   -1.0087 H   0  0  0  0  0  0  0  0  0  0  0  0
    0.4390    2.5812    0.3059 H   0  0  0  0  0  0  0  0  0  0  0  0
    2.7293    2.0279   -1.6548 H   0  0  0  0  0  0  0  0  0  0  0  0
    2.9347    2.4635    0.0374 H   0  0  0  0  0  0  0  0  0  0  0  0
    1.8488    0.2939    0.7561 H   0  0  0  0  0  0  0  0  0  0  0  0
    1.9153   -0.2449   -0.9664 H   0  0  0  0  0  0  0  0  0  0  0  0
    3.1126    1.0682    1.7416 H   0  0  0  0  0  0  0  0  0  0  0  0
    4.5871    1.6878    0.9201 H   0  0  0  0  0  0  0  0  0  0  0  0
    4.5931    0.1654    1.9748 H   0  0  0  0  0  0  0  0  0  0  0  0
    4.5053    1.6021   -1.0480 H   0  0  0  0  0  0  0  0  0  0  0  0
    3.7546    0.3257   -2.0417 H   0  0  0  0  0  0  0  0  0  0  0  0
    6.0241    0.4126   -2.5518 H   0  0  0  0  0  0  0  0  0  0  0  0
    5.5789   -1.1720   -1.8499 H   0  0  0  0  0  0  0  0  0  0  0  0
    7.9633    0.4886   -3.1532 H   0  0  0  0  0  0  0  0  0  0  0  0
    7.7582   -1.3254   -2.9432 H   0  0  0  0  0  0  0  0  0  0  0  0
   10.1427   -1.6369   -2.9462 H   0  0  0  0  0  0  0  0  0  0  0  0
    9.6978   -0.5139   -4.2393 H   0  0  0  0  0  0  0  0  0  0  0  0
   10.4123    1.3923   -3.2204 H   0  0  0  0  0  0  0  0  0  0  0  0
   11.6778    0.1891   -2.8871 H   0  0  0  0  0  0  0  0  0  0  0  0
   10.1021    1.8259   -1.0184 H   0  0  0  0  0  0  0  0  0  0  0  0
   12.4457    1.5324   -0.8722 H   0  0  0  0  0  0  0  0  0  0  0  0
   12.4890    1.3400    1.5809 H   0  0  0  0  0  0  0  0  0  0  0  0
    9.8042    2.1293    3.1522 H   0  0  0  0  0  0  0  0  0  0  0  0
    9.7123    0.3882    3.5100 H   0  0  0  0  0  0  0  0  0  0  0  0
   11.3545    1.2379    3.5377 H   0  0  0  0  0  0  0  0  0  0  0  0
    8.7100   -0.2062    1.5860 H   0  0  0  0  0  0  0  0  0  0  0  0
    8.6600    1.4678    0.7612 H   0  0  0  0  0  0  0  0  0  0  0  0
    8.1384   -2.3418   -0.0792 H   0  0  0  0  0  0  0  0  0  0  0  0
    8.9702   -4.6065    0.1862 H   0  0  0  0  0  0  0  0  0  0  0  0
   12.8923   -3.1573   -0.2338 H   0  0  0  0  0  0  0  0  0  0  0  0
   13.0555   -0.8079   -1.4833 H   0  0  0  0  0  0  0  0  0  0  0  0
   13.2223   -0.6820    0.2730 H   0  0  0  0  0  0  0  0  0  0  0  0
  1  2  1  0
  2  3  2  0
  3  4  1  0
  4  5  1  0
  5  6  1  0
  6  7  1  0
  7  8  1  0
  8  9  2  0
  8 10  1  0
 10 11  2  0
 11 12  1  0
 12 13  1  0
 13 14  1  0
 13 15  1  0
 15 16  1  0
 16 17  1  0
 17 18  1  0
 18 19  1  0
 19 20  1  0
 20 21  2  0
 20 22  1  0
 22 23  1  0
 23 24  1  0
 24 25  1  0
 24 26  1  0
 26 27  1  0
 27 28  1  0
 28 29  1  0
 29 30  1  0
 30 31  1  0
 31 32  1  0
 32 33  1  0
 33 34  1  0
 34 35  1  0
 34 36  1  0
 36 37  1  0
 37 38  1  0
 38 39  2  0
 38 40  1  0
 40 41  1  0
 41 42  1  0
 42 43  1  0
 43 44  1  0
 44 45  1  0
 45 46  1  0
 46 47  2  0
 47 48  1  0
 47 49  1  0
 49 50  1  0
 50 51  1  0
 51 52  1  0
 52 53  2  0
 53 54  1  0
 54 55  2  0
 54 56  1  0
 56 57  1  0
 57 58  1  0
 14  2  1  0
 50 40  1  6
 57 51  2  0
 15  4  1  0
 50 44  1  0
 12  6  2  0
 13 19  1  1
 58 45  1  0
  1 59  1  0
  1 60  1  0
  1 61  1  0
  3 62  1  0
  4 63  1  1
  5 64  1  0
  5 65  1  0
  7 66  1  0
 10 67  1  0
 11 68  1  0
 14 69  1  0
 14 70  1  0
 15 71  1  1
 16 72  1  0
 16 73  1  0
 17 74  1  0
 17 75  1  0
 18 76  1  0
 18 77  1  0
 22 78  1  0
 22 79  1  0
 23 80  1  0
 23 81  1  0
 25 82  1  0
 25 83  1  0
 25 84  1  0
 26 85  1  0
 26 86  1  0
 27 87  1  0
 27 88  1  0
 28 89  1  0
 28 90  1  0
 29 91  1  0
 29 92  1  0
 30 93  1  0
 30 94  1  0
 31 95  1  0
 31 96  1  0
 32 97  1  0
 32 98  1  0
 33 99  1  0
 33100  1  0
 35101  1  0
 35102  1  0
 35103  1  0
 36104  1  0
 36105  1  0
 37106  1  0
 37107  1  0
 41108  1  0
 41109  1  0
 42110  1  0
 42111  1  0
 43112  1  0
 43113  1  0
 44114  1  6
 45115  1  6
 46116  1  0
 48117  1  0
 48118  1  0
 48119  1  0
 49120  1  0
 49121  1  0
 52122  1  0
 53123  1  0
 56124  1  0
 58125  1  0
 58126  1  0
M  END
$$$$
