
     RDKit          3D

 46 50  0  0  0  0  0  0  0  0999 V2000
   -2.5711   -0.7998   -1.9851 C   0  0  0  0  0  0  0  0  0  0  0  0
   -2.7187   -1.7160   -0.7889 C   0  0  2  0  0  0  0  0  0  0  0  0
   -4.1946   -2.0654   -0.6882 C   0  0  0  0  0  0  0  0  0  0  0  0
   -4.5290   -2.4706    0.6092 O   0  0  0  0  0  0  0  0  0  0  0  0
   -4.4108   -1.3116    1.4066 C   0  0  0  0  0  0  0  0  0  0  0  0
   -2.9374   -1.1058    1.6747 C   0  0  0  0  0  0  0  0  0  0  0  0
   -2.2630   -1.0255    0.3879 N   0  0  0  0  0  0  0  0  0  0  0  0
   -1.0886   -0.2161    0.3008 C   0  0  0  0  0  0  0  0  0  0  0  0
    0.0496   -0.7922   -0.0531 N   0  0  0  0  0  0  0  0  0  0  0  0
    1.2095   -0.0766   -0.1556 C   0  0  0  0  0  0  0  0  0  0  0  0
    2.3853   -0.7847   -0.6106 C   0  0  0  0  0  0  0  0  0  0  0  0
    2.1638   -1.9037   -1.4208 C   0  0  0  0  0  0  0  0  0  0  0  0
    3.2213   -2.6035   -1.8392 N   0  0  0  0  0  0  0  0  0  0  0  0
    4.4639   -2.2618   -1.5045 C   0  0  0  0  0  0  0  0  0  0  0  0
    4.7230   -1.1663   -0.7056 C   0  0  0  0  0  0  0  0  0  0  0  0
    5.8511   -0.6400   -0.2165 N   0  0  0  0  0  0  0  0  0  0  0  0
    5.5967    0.4129    0.5373 C   0  0  0  0  0  0  0  0  0  0  0  0
    4.2176    0.5699    0.5292 C   0  0  0  0  0  0  0  0  0  0  0  0
    3.6452   -0.4060   -0.2453 C   0  0  0  0  0  0  0  0  0  0  0  0
    1.1483    1.2553    0.1193 C   0  0  0  0  0  0  0  0  0  0  0  0
   -0.0588    1.8677    0.4959 C   0  0  0  0  0  0  0  0  0  0  0  0
   -1.2063    1.1148    0.5894 C   0  0  0  0  0  0  0  0  0  0  0  0
   -2.2368    1.9136    0.9655 N   0  0  0  0  0  0  0  0  0  0  0  0
   -1.7047    3.1583    1.0996 C   0  0  0  0  0  0  0  0  0  0  0  0
   -0.4036    3.1214    0.8171 N   0  0  0  0  0  0  0  0  0  0  0  0
    0.5080    4.2410    0.8461 C   0  0  0  0  0  0  0  0  0  0  0  0
   -1.6312   -0.9894   -2.5061 H   0  0  0  0  0  0  0  0  0  0  0  0
   -3.4554   -0.8567   -2.6513 H   0  0  0  0  0  0  0  0  0  0  0  0
   -2.5428    0.2521   -1.6126 H   0  0  0  0  0  0  0  0  0  0  0  0
   -2.1468   -2.6306   -0.9478 H   0  0  0  0  0  0  0  0  0  0  0  0
   -4.4784   -2.8475   -1.4014 H   0  0  0  0  0  0  0  0  0  0  0  0
   -4.7695   -1.1207   -0.8761 H   0  0  0  0  0  0  0  0  0  0  0  0
   -4.9594   -1.4230    2.3537 H   0  0  0  0  0  0  0  0  0  0  0  0
   -4.7562   -0.4442    0.8083 H   0  0  0  0  0  0  0  0  0  0  0  0
   -2.5091   -1.9926    2.2262 H   0  0  0  0  0  0  0  0  0  0  0  0
   -2.7688   -0.2071    2.2837 H   0  0  0  0  0  0  0  0  0  0  0  0
    1.1715   -2.2070   -1.7090 H   0  0  0  0  0  0  0  0  0  0  0  0
    5.3114   -2.8370   -1.8514 H   0  0  0  0  0  0  0  0  0  0  0  0
    6.8172   -1.0101   -0.4031 H   0  0  0  0  0  0  0  0  0  0  0  0
    6.2874    1.0652    1.0806 H   0  0  0  0  0  0  0  0  0  0  0  0
    3.7214    1.3300    1.0763 H   0  0  0  0  0  0  0  0  0  0  0  0
    1.9805    1.9211    0.0325 H   0  0  0  0  0  0  0  0  0  0  0  0
   -2.2720    4.0347    1.3931 H   0  0  0  0  0  0  0  0  0  0  0  0
    0.6694    4.5679    1.8879 H   0  0  0  0  0  0  0  0  0  0  0  0
    1.4614    4.0041    0.3397 H   0  0  0  0  0  0  0  0  0  0  0  0
    0.0097    5.0817    0.3116 H   0  0  0  0  0  0  0  0  0  0  0  0
  1  2  1  0
  2  3  1  0
  3  4  1  0
  4  5  1  0
  5  6  1  0
  6  7  1  0
  7  8  1  0
  8  9  2  0
  9 10  1  0
 10 11  1  0
 11 12  2  0
 12 13  1  0
 13 14  2  0
 14 15  1  0
 15 16  1  0
 16 17  1  0
 17 18  2  0
 18 19  1  0
 10 20  2  0
 20 21  1  0
 21 22  2  0
 22 23  1  0
 23 24  2  0
 24 25  1  0
 25 26  1  0
  7  2  1  0
 22  8  1  0
 19 11  1  0
 25 21  1  0
 19 15  2  0
  1 27  1  0
  1 28  1  0
  1 29  1  0
  2 30  1  6
  3 31  1  0
  3 32  1  0
  5 33  1  0
  5 34  1  0
  6 35  1  0
  6 36  1  0
 12 37  1  0
 14 38  1  0
 16 39  1  0
 17 40  1  0
 18 41  1  0
 20 42  1  0
 24 43  1  0
 26 44  1  0
 26 45  1  0
 26 46  1  0
M  END
$$$$
