@<TRIPOS>MOLECULE
*****
 46 50 0 0 0
SMALL
GASTEIGER

@<TRIPOS>ATOM
      1 C          -2.5711   -0.7998   -1.9851 C.3     1  UNL1       -0.0443
      2 C          -2.7187   -1.7160   -0.7889 C.3     1  UNL1        0.0455
      3 C          -4.1946   -2.0654   -0.6882 C.3     1  UNL1        0.0660
      4 O          -4.5290   -2.4706    0.6092 O.3     1  UNL1       -0.3764
      5 C          -4.4108   -1.3116    1.4066 C.3     1  UNL1        0.0634
      6 C          -2.9374   -1.1058    1.6747 C.3     1  UNL1        0.0374
      7 N          -2.2630   -1.0255    0.3879 N.pl3   1  UNL1       -0.3063
      8 C          -1.0886   -0.2161    0.3008 C.ar    1  UNL1        0.1500
      9 N           0.0496   -0.7922   -0.0531 N.ar    1  UNL1       -0.2296
     10 C           1.2095   -0.0766   -0.1556 C.ar    1  UNL1        0.0773
     11 C           2.3853   -0.7847   -0.6106 C.ar    1  UNL1        0.0277
     12 C           2.1638   -1.9037   -1.4208 C.ar    1  UNL1        0.0374
     13 N           3.2213   -2.6035   -1.8392 N.ar    1  UNL1       -0.2605
     14 C           4.4639   -2.2618   -1.5045 C.ar    1  UNL1        0.0514
     15 C           4.7230   -1.1663   -0.7056 C.ar    1  UNL1        0.0654
     16 N           5.8511   -0.6400   -0.2165 N.ar    1  UNL1       -0.3595
     17 C           5.5967    0.4129    0.5373 C.ar    1  UNL1        0.0028
     18 C           4.2176    0.5699    0.5292 C.ar    1  UNL1       -0.0359
     19 C           3.6452   -0.4060   -0.2453 C.ar    1  UNL1        0.0117
     20 C           1.1483    1.2553    0.1193 C.ar    1  UNL1       -0.0098
     21 C          -0.0588    1.8677    0.4959 C.ar    1  UNL1        0.0738
     22 C          -1.2063    1.1148    0.5894 C.ar    1  UNL1        0.1287
     23 N          -2.2368    1.9136    0.9655 N.ar    1  UNL1       -0.2323
     24 C          -1.7047    3.1583    1.0996 C.ar    1  UNL1        0.0969
     25 N          -0.4036    3.1214    0.8171 N.ar    1  UNL1       -0.3331
     26 C           0.5080    4.2410    0.8461 C.3     1  UNL1        0.0133
     27 H          -1.6312   -0.9894   -2.5061 H       1  UNL1        0.0248
     28 H          -3.4554   -0.8567   -2.6513 H       1  UNL1        0.0248
     29 H          -2.5428    0.2521   -1.6126 H       1  UNL1        0.0248
     30 H          -2.1468   -2.6306   -0.9478 H       1  UNL1        0.0520
     31 H          -4.4784   -2.8475   -1.4014 H       1  UNL1        0.0578
     32 H          -4.7695   -1.1207   -0.8761 H       1  UNL1        0.0578
     33 H          -4.9594   -1.4230    2.3537 H       1  UNL1        0.0575
     34 H          -4.7562   -0.4442    0.8083 H       1  UNL1        0.0575
     35 H          -2.5091   -1.9926    2.2262 H       1  UNL1        0.0487
     36 H          -2.7688   -0.2071    2.2837 H       1  UNL1        0.0487
     37 H           1.1715   -2.2070   -1.7090 H       1  UNL1        0.0836
     38 H           5.3114   -2.8370   -1.8514 H       1  UNL1        0.0851
     39 H           6.8172   -1.0101   -0.4031 H       1  UNL1        0.1654
     40 H           6.2874    1.0652    1.0806 H       1  UNL1        0.0807
     41 H           3.7214    1.3300    1.0763 H       1  UNL1        0.0639
     42 H           1.9805    1.9211    0.0325 H       1  UNL1        0.0660
     43 H          -2.2720    4.0347    1.3931 H       1  UNL1        0.1029
     44 H           0.6694    4.5679    1.8879 H       1  UNL1        0.0456
     45 H           1.4614    4.0041    0.3397 H       1  UNL1        0.0456
     46 H           0.0097    5.0817    0.3116 H       1  UNL1        0.0456
@<TRIPOS>BOND
     1     1     2    1
     2     2     3    1
     3     3     4    1
     4     4     5    1
     5     5     6    1
     6     6     7    1
     7     7     8    1
     8     8     9   ar
     9     9    10   ar
    10    10    11    1
    11    11    12   ar
    12    12    13   ar
    13    13    14   ar
    14    14    15   ar
    15    15    16   ar
    16    16    17   ar
    17    17    18   ar
    18    18    19   ar
    19    10    20   ar
    20    20    21   ar
    21    21    22   ar
    22    22    23   ar
    23    23    24   ar
    24    24    25   ar
    25    25    26    1
    26     7     2    1
    27    22     8   ar
    28    19    11   ar
    29    25    21   ar
    30    19    15   ar
    31     1    27    1
    32     1    28    1
    33     1    29    1
    34     2    30    1
    35     3    31    1
    36     3    32    1
    37     5    33    1
    38     5    34    1
    39     6    35    1
    40     6    36    1
    41    12    37    1
    42    14    38    1
    43    16    39    1
    44    17    40    1
    45    18    41    1
    46    20    42    1
    47    24    43    1
    48    26    44    1
    49    26    45    1
    50    26    46    1
