
     RDKit          3D

 60 64  0  0  0  0  0  0  0  0999 V2000
   -0.6646    0.4449    1.6337 O   0  0  0  0  0  0  0  0  0  0  0  0
   -0.6923    0.1395    0.4103 C   0  0  0  0  0  0  0  0  0  0  0  0
   -1.5640    0.9461   -0.3735 N   0  0  0  0  0  0  0  0  0  0  0  0
   -2.3773    2.0147    0.1359 C   0  0  1  0  0  0  0  0  0  0  0  0
   -1.9731    3.3761   -0.2196 C   0  0  0  0  0  0  0  0  0  0  0  0
   -2.6902    3.7284   -1.4691 C   0  0  0  0  0  0  0  0  0  0  0  0
   -4.0908    3.2018   -1.1058 C   0  0  0  0  0  0  0  0  0  0  0  0
   -3.7601    1.8401   -0.4396 C   0  0  2  0  0  0  0  0  0  0  0  0
   -4.8210    1.5930    0.5747 C   0  0  0  0  0  0  0  0  0  0  0  0
   -4.7295    0.4938    1.3754 O   0  0  0  0  0  0  0  0  0  0  0  0
   -4.7820   -0.8184    1.0273 C   0  0  0  0  0  0  0  0  0  0  0  0
   -4.9670   -1.3082   -0.2288 C   0  0  0  0  0  0  0  0  0  0  0  0
   -4.9976   -2.6811   -0.4467 C   0  0  0  0  0  0  0  0  0  0  0  0
   -4.8474   -3.5916    0.5666 C   0  0  0  0  0  0  0  0  0  0  0  0
   -4.6615   -3.0662    1.8275 C   0  0  0  0  0  0  0  0  0  0  0  0
   -4.6250   -1.7248    2.0840 C   0  0  0  0  0  0  0  0  0  0  0  0
    0.1124   -0.9570   -0.1530 C   0  0  0  0  0  0  0  0  0  0  0  0
    0.8753   -0.5899   -1.3946 C   0  0  0  0  0  0  0  0  0  0  0  0
    2.2080    0.0017   -1.2222 C   0  0  0  0  0  0  0  0  0  0  0  0
    2.9097   -0.2942   -0.0079 N   0  0  0  0  0  0  0  0  0  0  0  0
    4.3334   -0.5166    0.0107 C   0  0  0  0  0  0  0  0  0  0  0  0
    4.9748   -1.6917    0.0143 N   0  0  0  0  0  0  0  0  0  0  0  0
    6.3071   -1.4666    0.0306 C   0  0  0  0  0  0  0  0  0  0  0  0
    7.4361   -2.2684    0.0386 C   0  0  0  0  0  0  0  0  0  0  0  0
    8.7022   -1.7331    0.0533 C   0  0  0  0  0  0  0  0  0  0  0  0
   10.1421   -2.7262    0.0650 Cl  0  0  0  0  0  0  0  0  0  0  0  0
    8.8605   -0.3616    0.0595 C   0  0  0  0  0  0  0  0  0  0  0  0
    7.7343    0.4361    0.0508 C   0  0  0  0  0  0  0  0  0  0  0  0
    6.4481   -0.1048    0.0366 C   0  0  0  0  0  0  0  0  0  0  0  0
    5.2500    0.4176    0.0247 O   0  0  0  0  0  0  0  0  0  0  0  0
    2.1380   -0.3640    1.2165 C   0  0  0  0  0  0  0  0  0  0  0  0
    1.0457   -1.4085    0.9616 C   0  0  0  0  0  0  0  0  0  0  0  0
   -1.6168    0.7432   -1.3929 H   0  0  0  0  0  0  0  0  0  0  0  0
   -2.4371    1.8807    1.2513 H   0  0  0  0  0  0  0  0  0  0  0  0
   -0.8915    3.5847   -0.2232 H   0  0  0  0  0  0  0  0  0  0  0  0
   -2.3816    4.0701    0.5779 H   0  0  0  0  0  0  0  0  0  0  0  0
   -2.3699    3.1956   -2.3626 H   0  0  0  0  0  0  0  0  0  0  0  0
   -2.7362    4.8424   -1.5983 H   0  0  0  0  0  0  0  0  0  0  0  0
   -4.7433    3.0950   -1.9665 H   0  0  0  0  0  0  0  0  0  0  0  0
   -4.4958    3.9068   -0.3526 H   0  0  0  0  0  0  0  0  0  0  0  0
   -3.7578    1.1105   -1.2833 H   0  0  0  0  0  0  0  0  0  0  0  0
   -5.8254    1.5487    0.0211 H   0  0  0  0  0  0  0  0  0  0  0  0
   -4.9346    2.5554    1.1573 H   0  0  0  0  0  0  0  0  0  0  0  0
   -5.1165   -0.6325   -1.0658 H   0  0  0  0  0  0  0  0  0  0  0  0
   -5.1497   -3.0300   -1.4682 H   0  0  0  0  0  0  0  0  0  0  0  0
   -4.8786   -4.6608    0.3544 H   0  0  0  0  0  0  0  0  0  0  0  0
   -4.5367   -3.7637    2.6738 H   0  0  0  0  0  0  0  0  0  0  0  0
   -4.4757   -1.3369    3.1056 H   0  0  0  0  0  0  0  0  0  0  0  0
   -0.5179   -1.8305   -0.3992 H   0  0  0  0  0  0  0  0  0  0  0  0
    0.2400    0.1392   -1.9685 H   0  0  0  0  0  0  0  0  0  0  0  0
    0.9457   -1.4853   -2.0762 H   0  0  0  0  0  0  0  0  0  0  0  0
    2.1815    1.1178   -1.3703 H   0  0  0  0  0  0  0  0  0  0  0  0
    2.8886   -0.3452   -2.0589 H   0  0  0  0  0  0  0  0  0  0  0  0
    7.2799   -3.3367    0.0323 H   0  0  0  0  0  0  0  0  0  0  0  0
    9.8343    0.1170    0.0698 H   0  0  0  0  0  0  0  0  0  0  0  0
    7.7948    1.5173    0.0560 H   0  0  0  0  0  0  0  0  0  0  0  0
    1.7219    0.6209    1.4791 H   0  0  0  0  0  0  0  0  0  0  0  0
    2.7774   -0.7474    2.0372 H   0  0  0  0  0  0  0  0  0  0  0  0
    0.4034   -1.4961    1.8734 H   0  0  0  0  0  0  0  0  0  0  0  0
    1.5634   -2.3412    0.6875 H   0  0  0  0  0  0  0  0  0  0  0  0
  1  2  2  0
  2  3  1  0
  3  4  1  0
  4  5  1  0
  5  6  1  0
  6  7  1  0
  7  8  1  0
  8  9  1  0
  9 10  1  0
 10 11  1  0
 11 12  2  0
 12 13  1  0
 13 14  2  0
 14 15  1  0
 15 16  2  0
  2 17  1  0
 17 18  1  0
 18 19  1  0
 19 20  1  0
 20 21  1  0
 21 22  2  0
 22 23  1  0
 23 24  2  0
 24 25  1  0
 25 26  1  0
 25 27  2  0
 27 28  1  0
 28 29  2  0
 29 30  1  0
 20 31  1  0
 31 32  1  0
  8  4  1  0
 16 11  1  0
 32 17  1  0
 30 21  1  0
 29 23  1  0
  3 33  1  0
  4 34  1  1
  5 35  1  0
  5 36  1  0
  6 37  1  0
  6 38  1  0
  7 39  1  0
  7 40  1  0
  8 41  1  6
  9 42  1  0
  9 43  1  0
 12 44  1  0
 13 45  1  0
 14 46  1  0
 15 47  1  0
 16 48  1  0
 17 49  1  0
 18 50  1  0
 18 51  1  0
 19 52  1  0
 19 53  1  0
 24 54  1  0
 27 55  1  0
 28 56  1  0
 31 57  1  0
 31 58  1  0
 32 59  1  0
 32 60  1  0
M  END
$$$$
