@<TRIPOS>MOLECULE
*****
 60 64 0 0 0
SMALL
GASTEIGER

@<TRIPOS>ATOM
      1 O          -0.6646    0.4449    1.6337 O.2     1  UNL1       -0.2755
      2 C          -0.6923    0.1395    0.4103 C.2     1  UNL1        0.2164
      3 N          -1.5640    0.9461   -0.3735 N.am    1  UNL1       -0.3119
      4 C          -2.3773    2.0147    0.1359 C.3     1  UNL1        0.0290
      5 C          -1.9731    3.3761   -0.2196 C.3     1  UNL1       -0.0341
      6 C          -2.6902    3.7284   -1.4691 C.3     1  UNL1       -0.0510
      7 C          -4.0908    3.2018   -1.1058 C.3     1  UNL1       -0.0454
      8 C          -3.7601    1.8401   -0.4396 C.3     1  UNL1        0.0116
      9 C          -4.8210    1.5930    0.5747 C.3     1  UNL1        0.0941
     10 O          -4.7295    0.4938    1.3754 O.3     1  UNL1       -0.4916
     11 C          -4.7820   -0.8184    1.0273 C.ar    1  UNL1        0.1205
     12 C          -4.9670   -1.3082   -0.2288 C.ar    1  UNL1       -0.0199
     13 C          -4.9976   -2.6811   -0.4467 C.ar    1  UNL1       -0.0583
     14 C          -4.8474   -3.5916    0.5666 C.ar    1  UNL1       -0.0615
     15 C          -4.6615   -3.0662    1.8275 C.ar    1  UNL1       -0.0583
     16 C          -4.6250   -1.7248    2.0840 C.ar    1  UNL1       -0.0199
     17 C           0.1124   -0.9570   -0.1530 C.3     1  UNL1        0.0384
     18 C           0.8753   -0.5899   -1.3946 C.3     1  UNL1       -0.0259
     19 C           2.2080    0.0017   -1.2222 C.3     1  UNL1        0.0170
     20 N           2.9097   -0.2942   -0.0079 N.pl3   1  UNL1       -0.2850
     21 C           4.3334   -0.5166    0.0107 C.ar    1  UNL1        0.2911
     22 N           4.9748   -1.6917    0.0143 N.ar    1  UNL1       -0.1953
     23 C           6.3071   -1.4666    0.0306 C.ar    1  UNL1        0.1126
     24 C           7.4361   -2.2684    0.0386 C.ar    1  UNL1       -0.0142
     25 C           8.7022   -1.7331    0.0533 C.ar    1  UNL1        0.0432
     26 CL         10.1421   -2.7262    0.0650 Cl      1  UNL1       -0.0835
     27 C           8.8605   -0.3616    0.0595 C.ar    1  UNL1       -0.0398
     28 C           7.7343    0.4361    0.0508 C.ar    1  UNL1       -0.0157
     29 C           6.4481   -0.1048    0.0366 C.ar    1  UNL1        0.1571
     30 O           5.2500    0.4176    0.0247 O.2     1  UNL1       -0.4244
     31 C           2.1380   -0.3640    1.2165 C.3     1  UNL1        0.0170
     32 C           1.0457   -1.4085    0.9616 C.3     1  UNL1       -0.0259
     33 H          -1.6168    0.7432   -1.3929 H       1  UNL1        0.1490
     34 H          -2.4371    1.8807    1.2513 H       1  UNL1        0.0502
     35 H          -0.8915    3.5847   -0.2232 H       1  UNL1        0.0283
     36 H          -2.3816    4.0701    0.5779 H       1  UNL1        0.0283
     37 H          -2.3699    3.1956   -2.3626 H       1  UNL1        0.0266
     38 H          -2.7362    4.8424   -1.5983 H       1  UNL1        0.0266
     39 H          -4.7433    3.0950   -1.9665 H       1  UNL1        0.0270
     40 H          -4.4958    3.9068   -0.3526 H       1  UNL1        0.0270
     41 H          -3.7578    1.1105   -1.2833 H       1  UNL1        0.0352
     42 H          -5.8254    1.5487    0.0211 H       1  UNL1        0.0700
     43 H          -4.9346    2.5554    1.1573 H       1  UNL1        0.0700
     44 H          -5.1165   -0.6325   -1.0658 H       1  UNL1        0.0654
     45 H          -5.1497   -3.0300   -1.4682 H       1  UNL1        0.0619
     46 H          -4.8786   -4.6608    0.3544 H       1  UNL1        0.0618
     47 H          -4.5367   -3.7637    2.6738 H       1  UNL1        0.0619
     48 H          -4.4757   -1.3369    3.1056 H       1  UNL1        0.0654
     49 H          -0.5179   -1.8305   -0.3992 H       1  UNL1        0.0395
     50 H           0.2400    0.1392   -1.9685 H       1  UNL1        0.0288
     51 H           0.9457   -1.4853   -2.0762 H       1  UNL1        0.0288
     52 H           2.1815    1.1178   -1.3703 H       1  UNL1        0.0465
     53 H           2.8886   -0.3452   -2.0589 H       1  UNL1        0.0465
     54 H           7.2799   -3.3367    0.0323 H       1  UNL1        0.0654
     55 H           9.8343    0.1170    0.0698 H       1  UNL1        0.0633
     56 H           7.7948    1.5173    0.0560 H       1  UNL1        0.0655
     57 H           1.7219    0.6209    1.4791 H       1  UNL1        0.0465
     58 H           2.7774   -0.7474    2.0372 H       1  UNL1        0.0465
     59 H           0.4034   -1.4961    1.8734 H       1  UNL1        0.0288
     60 H           1.5634   -2.3412    0.6875 H       1  UNL1        0.0288
@<TRIPOS>BOND
     1     1     2    2
     2     2     3   am
     3     3     4    1
     4     4     5    1
     5     5     6    1
     6     6     7    1
     7     7     8    1
     8     8     9    1
     9     9    10    1
    10    10    11    1
    11    11    12   ar
    12    12    13   ar
    13    13    14   ar
    14    14    15   ar
    15    15    16   ar
    16     2    17    1
    17    17    18    1
    18    18    19    1
    19    19    20    1
    20    20    21    1
    21    21    22   ar
    22    22    23   ar
    23    23    24   ar
    24    24    25   ar
    25    25    26    1
    26    25    27   ar
    27    27    28   ar
    28    28    29   ar
    29    29    30   ar
    30    20    31    1
    31    31    32    1
    32     8     4    1
    33    16    11   ar
    34    32    17    1
    35    30    21   ar
    36    29    23   ar
    37     3    33    1
    38     4    34    1
    39     5    35    1
    40     5    36    1
    41     6    37    1
    42     6    38    1
    43     7    39    1
    44     7    40    1
    45     8    41    1
    46     9    42    1
    47     9    43    1
    48    12    44    1
    49    13    45    1
    50    14    46    1
    51    15    47    1
    52    16    48    1
    53    17    49    1
    54    18    50    1
    55    18    51    1
    56    19    52    1
    57    19    53    1
    58    24    54    1
    59    27    55    1
    60    28    56    1
    61    31    57    1
    62    31    58    1
    63    32    59    1
    64    32    60    1
