@<TRIPOS>MOLECULE
*****
 37 39 0 0 0
SMALL
GASTEIGER

@<TRIPOS>ATOM
      1 C           0.2972    4.8216   -0.6746 C.3     1  UNL1       -0.0106
      2 S           0.5149    3.9201    0.8796 S.3     1  UNL1       -0.0892
      3 C           0.8384    2.1845    0.5626 C.ar    1  UNL1        0.1960
      4 N           2.0398    1.5831    0.3786 N.ar    1  UNL1       -0.2003
      5 C           1.8729    0.2660    0.1662 C.ar    1  UNL1        0.1829
      6 C           2.8482   -0.7890   -0.0794 C.ar    1  UNL1        0.0210
      7 C           3.4070   -0.9766   -1.3276 C.ar    1  UNL1       -0.0496
      8 C           4.3309   -1.9784   -1.5542 C.ar    1  UNL1       -0.0427
      9 C           4.7402   -2.8361   -0.5549 C.ar    1  UNL1        0.0410
     10 CL          5.9188   -4.1091   -0.8572 Cl      1  UNL1       -0.0835
     11 C           4.1839   -2.6515    0.6939 C.ar    1  UNL1       -0.0427
     12 C           3.2562   -1.6466    0.9239 C.ar    1  UNL1       -0.0496
     13 N           0.5367    0.0757    0.2249 N.ar    1  UNL1       -0.1403
     14 N          -0.0795    1.2095    0.4595 N.ar    1  UNL1       -0.1573
     15 C          -1.4778    1.4064    0.5880 C.2     1  UNL1        0.3398
     16 O          -1.9669    2.5544    0.8191 O.2     1  UNL1       -0.2474
     17 N          -2.4275    0.3436    0.4691 N.am    1  UNL1       -0.2775
     18 C          -3.8331    0.5746    0.6076 C.3     1  UNL1        0.0399
     19 C          -4.7065   -0.5805    0.1915 C.3     1  UNL1        0.0635
     20 O          -4.1643   -1.7488    0.7310 O.3     1  UNL1       -0.3767
     21 C          -2.9778   -2.0287    0.0848 C.3     1  UNL1        0.0635
     22 C          -1.9244   -0.9804    0.2018 C.3     1  UNL1        0.0399
     23 H           0.7588    5.8245   -0.6491 H       1  UNL1        0.0345
     24 H           0.7717    4.2633   -1.5098 H       1  UNL1        0.0345
     25 H          -0.8089    4.9078   -0.8560 H       1  UNL1        0.0345
     26 H           3.0944   -0.3081   -2.1267 H       1  UNL1        0.0625
     27 H           4.7722   -2.1309   -2.5286 H       1  UNL1        0.0632
     28 H           4.4930   -3.3152    1.4905 H       1  UNL1        0.0632
     29 H           2.8160   -1.5013    1.9137 H       1  UNL1        0.0625
     30 H          -4.1165    0.7896    1.6821 H       1  UNL1        0.0488
     31 H          -4.1212    1.4884    0.0362 H       1  UNL1        0.0488
     32 H          -4.8366   -0.6363   -0.9066 H       1  UNL1        0.0575
     33 H          -5.7081   -0.4158    0.6401 H       1  UNL1        0.0575
     34 H          -2.5811   -2.9812    0.5445 H       1  UNL1        0.0575
     35 H          -3.1983   -2.3119   -0.9692 H       1  UNL1        0.0575
     36 H          -1.2394   -1.2748    1.0443 H       1  UNL1        0.0488
     37 H          -1.3234   -1.0118   -0.7396 H       1  UNL1        0.0488
@<TRIPOS>BOND
     1     1     2    1
     2     2     3    1
     3     3     4   ar
     4     4     5   ar
     5     5     6    1
     6     6     7   ar
     7     7     8   ar
     8     8     9   ar
     9     9    10    1
    10     9    11   ar
    11    11    12   ar
    12     5    13   ar
    13    13    14   ar
    14    14    15   am
    15    15    16    2
    16    15    17   am
    17    17    18    1
    18    18    19    1
    19    19    20    1
    20    20    21    1
    21    21    22    1
    22    14     3   ar
    23    22    17    1
    24    12     6   ar
    25     1    23    1
    26     1    24    1
    27     1    25    1
    28     7    26    1
    29     8    27    1
    30    11    28    1
    31    12    29    1
    32    18    30    1
    33    18    31    1
    34    19    32    1
    35    19    33    1
    36    21    34    1
    37    21    35    1
    38    22    36    1
    39    22    37    1
