@<TRIPOS>MOLECULE
*****
 45 48 0 0 0
SMALL
GASTEIGER

@<TRIPOS>ATOM
      1 O           1.0971   -1.1524    1.3250 O.2     1  UNL1       -0.2748
      2 C           1.6309   -0.4889    0.3677 C.2     1  UNL1        0.2271
      3 C           0.8361   -0.3379   -0.8428 C.3     1  UNL1        0.0826
      4 C          -0.4708   -1.0869   -0.7444 C.ar    1  UNL1        0.1206
      5 N          -1.5215   -0.4330   -0.2310 N.ar    1  UNL1       -0.2186
      6 C          -2.7404   -1.0157   -0.0986 C.ar    1  UNL1        0.1285
      7 N          -3.8442   -0.3053    0.4492 N.pl3   1  UNL1       -0.3106
      8 C          -3.6475    1.0714    0.9274 C.3     1  UNL1        0.0370
      9 C          -4.7625    1.9192    0.3399 C.3     1  UNL1        0.0634
     10 O          -5.9482    1.4467    0.9070 O.3     1  UNL1       -0.3767
     11 C          -6.2297    0.2337    0.3281 C.3     1  UNL1        0.0634
     12 C          -5.1808   -0.8316    0.5791 C.3     1  UNL1        0.0370
     13 C          -2.8233   -2.3208   -0.5265 C.ar    1  UNL1        0.0427
     14 C          -1.7092   -2.9834   -1.0604 C.ar    1  UNL1        0.2533
     15 O          -1.8168   -4.1739   -1.4422 O.2     1  UNL1       -0.2677
     16 N          -0.5241   -2.3588   -1.1691 N.ar    1  UNL1       -0.3104
     17 N           2.9146    0.0053    0.6115 N.am    1  UNL1       -0.2705
     18 C           3.7243   -0.0997    1.8427 C.3     1  UNL1        0.0238
     19 C           5.0752   -0.3773    1.2281 C.3     1  UNL1       -0.0097
     20 C           5.0804    0.5338    0.0578 C.ar    1  UNL1       -0.0245
     21 C           6.1199    1.1267   -0.6445 C.ar    1  UNL1       -0.0568
     22 C           5.8262    1.9427   -1.7205 C.ar    1  UNL1       -0.0614
     23 C           4.5176    2.1651   -2.0918 C.ar    1  UNL1       -0.0600
     24 C           3.5076    1.5537   -1.3636 C.ar    1  UNL1       -0.0400
     25 C           3.7407    0.7290   -0.2800 C.ar    1  UNL1        0.0395
     26 H           0.5342    0.7506   -0.9443 H       1  UNL1        0.0438
     27 H           1.3077   -0.7229   -1.7697 H       1  UNL1        0.0438
     28 H          -3.7037    1.1312    2.0219 H       1  UNL1        0.0487
     29 H          -2.6978    1.4621    0.5132 H       1  UNL1        0.0487
     30 H          -4.8156    1.7375   -0.7526 H       1  UNL1        0.0575
     31 H          -4.5931    2.9845    0.4977 H       1  UNL1        0.0575
     32 H          -7.1993   -0.1997    0.6409 H       1  UNL1        0.0575
     33 H          -6.3112    0.3925   -0.7795 H       1  UNL1        0.0575
     34 H          -5.2906   -1.1459    1.6466 H       1  UNL1        0.0487
     35 H          -5.3494   -1.6403   -0.1341 H       1  UNL1        0.0487
     36 H          -3.7733   -2.8571   -0.4503 H       1  UNL1        0.0706
     37 H           0.3112   -2.8601   -1.5710 H       1  UNL1        0.1700
     38 H           3.7370    0.8610    2.3763 H       1  UNL1        0.0472
     39 H           3.4149   -0.9568    2.4563 H       1  UNL1        0.0472
     40 H           5.1159   -1.4122    0.8312 H       1  UNL1        0.0329
     41 H           5.9078   -0.1645    1.9289 H       1  UNL1        0.0329
     42 H           7.1439    0.9581   -0.3610 H       1  UNL1        0.0621
     43 H           6.6394    2.4047   -2.2674 H       1  UNL1        0.0618
     44 H           4.2723    2.7972   -2.9264 H       1  UNL1        0.0618
     45 H           2.4981    1.7185   -1.6420 H       1  UNL1        0.0636
@<TRIPOS>BOND
     1     1     2    2
     2     2     3    1
     3     3     4    1
     4     4     5   ar
     5     5     6   ar
     6     6     7    1
     7     7     8    1
     8     8     9    1
     9     9    10    1
    10    10    11    1
    11    11    12    1
    12     6    13   ar
    13    13    14   ar
    14    14    15    2
    15    14    16   ar
    16     2    17   am
    17    17    18    1
    18    18    19    1
    19    19    20    1
    20    20    21   ar
    21    21    22   ar
    22    22    23   ar
    23    23    24   ar
    24    24    25   ar
    25    16     4   ar
    26    25    17    1
    27    12     7    1
    28    25    20   ar
    29     3    26    1
    30     3    27    1
    31     8    28    1
    32     8    29    1
    33     9    30    1
    34     9    31    1
    35    11    32    1
    36    11    33    1
    37    12    34    1
    38    12    35    1
    39    13    36    1
    40    16    37    1
    41    18    38    1
    42    18    39    1
    43    19    40    1
    44    19    41    1
    45    21    42    1
    46    22    43    1
    47    23    44    1
    48    24    45    1
