
     RDKit          3D

 42 45  0  0  0  0  0  0  0  0999 V2000
   -4.5680    2.5452   -0.4790 C   0  0  0  0  0  0  0  0  0  0  0  0
   -3.8913    1.6226    0.4592 C   0  0  0  0  0  0  0  0  0  0  0  0
   -2.7589    0.8650    0.3290 C   0  0  0  0  0  0  0  0  0  0  0  0
   -2.5667    0.1771    1.4822 C   0  0  0  0  0  0  0  0  0  0  0  0
   -1.5536   -0.7452    1.8317 N   0  0  0  0  0  0  0  0  0  0  0  0
   -0.4886   -1.1393    0.9901 C   0  0  0  0  0  0  0  0  0  0  0  0
    0.7765   -0.7882    1.2038 N   0  0  0  0  0  0  0  0  0  0  0  0
    1.8117   -1.1285    0.4270 N   0  0  0  0  0  0  0  0  0  0  0  0
    3.1392   -0.6588    0.7577 C   0  0  0  0  0  0  0  0  0  0  0  0
    3.4890    0.6794    0.3446 C   0  0  0  0  0  0  0  0  0  0  0  0
    3.4295    1.6838    1.3246 C   0  0  0  0  0  0  0  0  0  0  0  0
    3.7278    3.0006    1.0437 C   0  0  0  0  0  0  0  0  0  0  0  0
    3.6426    3.9022    2.0504 F   0  0  0  0  0  0  0  0  0  0  0  0
    4.0961    3.3628   -0.2244 C   0  0  0  0  0  0  0  0  0  0  0  0
    4.1511    2.3771   -1.1694 C   0  0  0  0  0  0  0  0  0  0  0  0
    3.8532    1.0420   -0.9033 C   0  0  0  0  0  0  0  0  0  0  0  0
    3.9619    0.1490   -1.9340 F   0  0  0  0  0  0  0  0  0  0  0  0
    1.5154   -1.8793   -0.6346 C   0  0  0  0  0  0  0  0  0  0  0  0
    2.4281   -2.2503   -1.4153 O   0  0  0  0  0  0  0  0  0  0  0  0
    0.2213   -2.3044   -0.9543 C   0  0  0  0  0  0  0  0  0  0  0  0
   -0.0590   -3.0808   -2.0619 C   0  0  0  0  0  0  0  0  0  0  0  0
   -1.3403   -3.4907   -2.3628 C   0  0  0  0  0  0  0  0  0  0  0  0
   -2.3461   -3.1024   -1.5202 C   0  0  0  0  0  0  0  0  0  0  0  0
   -2.0848   -2.3209   -0.4003 C   0  0  0  0  0  0  0  0  0  0  0  0
   -0.7827   -1.9128   -0.1085 C   0  0  0  0  0  0  0  0  0  0  0  0
   -3.5776    0.5220    2.2998 N   0  0  0  0  0  0  0  0  0  0  0  0
   -4.3659    1.3798    1.6958 N   0  0  0  0  0  0  0  0  0  0  0  0
   -4.4882    3.5877   -0.1177 H   0  0  0  0  0  0  0  0  0  0  0  0
   -5.6698    2.2995   -0.4685 H   0  0  0  0  0  0  0  0  0  0  0  0
   -4.2440    2.4128   -1.5322 H   0  0  0  0  0  0  0  0  0  0  0  0
   -2.1378    0.8407   -0.5601 H   0  0  0  0  0  0  0  0  0  0  0  0
   -1.5324   -1.2081    2.7884 H   0  0  0  0  0  0  0  0  0  0  0  0
    3.8774   -1.3904    0.3491 H   0  0  0  0  0  0  0  0  0  0  0  0
    3.2088   -0.7991    1.8811 H   0  0  0  0  0  0  0  0  0  0  0  0
    3.1433    1.4153    2.3243 H   0  0  0  0  0  0  0  0  0  0  0  0
    4.3322    4.3955   -0.4620 H   0  0  0  0  0  0  0  0  0  0  0  0
    4.4411    2.6429   -2.1938 H   0  0  0  0  0  0  0  0  0  0  0  0
    0.7656   -3.3636   -2.6984 H   0  0  0  0  0  0  0  0  0  0  0  0
   -1.5747   -4.1001   -3.2320 H   0  0  0  0  0  0  0  0  0  0  0  0
   -3.3797   -3.3844   -1.6918 H   0  0  0  0  0  0  0  0  0  0  0  0
   -2.8755   -2.0196    0.2563 H   0  0  0  0  0  0  0  0  0  0  0  0
   -3.7262    0.1640    3.2860 H   0  0  0  0  0  0  0  0  0  0  0  0
  1  2  1  0
  2  3  1  0
  3  4  2  0
  4  5  1  0
  5  6  1  0
  6  7  2  0
  7  8  1  0
  8  9  1  0
  9 10  1  0
 10 11  2  0
 11 12  1  0
 12 13  1  0
 12 14  2  0
 14 15  1  0
 15 16  2  0
 16 17  1  0
  8 18  1  0
 18 19  2  0
 18 20  1  0
 20 21  2  0
 21 22  1  0
 22 23  2  0
 23 24  1  0
 24 25  2  0
  4 26  1  0
 26 27  1  0
 27  2  2  0
 25  6  1  0
 16 10  1  0
 25 20  1  0
  1 28  1  0
  1 29  1  0
  1 30  1  0
  3 31  1  0
  5 32  1  0
  9 33  1  0
  9 34  1  0
 11 35  1  0
 14 36  1  0
 15 37  1  0
 21 38  1  0
 22 39  1  0
 23 40  1  0
 24 41  1  0
 26 42  1  0
M  END
$$$$
