@<TRIPOS>MOLECULE
*****
 42 45 0 0 0
SMALL
GASTEIGER

@<TRIPOS>ATOM
      1 C          -4.5680    2.5452   -0.4790 C.3     1  UNL1       -0.0206
      2 C          -3.8913    1.6226    0.4592 C.ar    1  UNL1        0.0616
      3 C          -2.7589    0.8650    0.3290 C.ar    1  UNL1        0.0006
      4 C          -2.5667    0.1771    1.4822 C.ar    1  UNL1        0.1196
      5 N          -1.5536   -0.7452    1.8317 N.pl3   1  UNL1       -0.2829
      6 C          -0.4886   -1.1393    0.9901 C.ar    1  UNL1        0.1525
      7 N           0.7765   -0.7882    1.2038 N.ar    1  UNL1       -0.1520
      8 N           1.8117   -1.1285    0.4270 N.ar    1  UNL1       -0.2228
      9 C           3.1392   -0.6588    0.7577 C.3     1  UNL1        0.0731
     10 C           3.4890    0.6794    0.3446 C.ar    1  UNL1        0.0119
     11 C           3.4295    1.6838    1.3246 C.ar    1  UNL1       -0.0188
     12 C           3.7278    3.0006    1.0437 C.ar    1  UNL1        0.1239
     13 F           3.6426    3.9022    2.0504 F       1  UNL1       -0.2055
     14 C           4.0961    3.3628   -0.2244 C.ar    1  UNL1       -0.0237
     15 C           4.1511    2.3771   -1.1694 C.ar    1  UNL1       -0.0234
     16 C           3.8532    1.0420   -0.9033 C.ar    1  UNL1        0.1285
     17 F           3.9619    0.1490   -1.9340 F       1  UNL1       -0.2051
     18 C           1.5154   -1.8793   -0.6346 C.ar    1  UNL1        0.2754
     19 O           2.4281   -2.2503   -1.4153 O.2     1  UNL1       -0.2655
     20 C           0.2213   -2.3044   -0.9543 C.ar    1  UNL1        0.0514
     21 C          -0.0590   -3.0808   -2.0619 C.ar    1  UNL1       -0.0487
     22 C          -1.3403   -3.4907   -2.3628 C.ar    1  UNL1       -0.0610
     23 C          -2.3461   -3.1024   -1.5202 C.ar    1  UNL1       -0.0611
     24 C          -2.0848   -2.3209   -0.4003 C.ar    1  UNL1       -0.0505
     25 C          -0.7827   -1.9128   -0.1085 C.ar    1  UNL1        0.0291
     26 N          -3.5776    0.5220    2.2998 N.ar    1  UNL1       -0.2637
     27 N          -4.3659    1.3798    1.6958 N.ar    1  UNL1       -0.1775
     28 H          -4.4882    3.5877   -0.1177 H       1  UNL1        0.0293
     29 H          -5.6698    2.2995   -0.4685 H       1  UNL1        0.0293
     30 H          -4.2440    2.4128   -1.5322 H       1  UNL1        0.0293
     31 H          -2.1378    0.8407   -0.5601 H       1  UNL1        0.0670
     32 H          -1.5324   -1.2081    2.7884 H       1  UNL1        0.1550
     33 H           3.8774   -1.3904    0.3491 H       1  UNL1        0.0560
     34 H           3.2088   -0.7991    1.8811 H       1  UNL1        0.0560
     35 H           3.1433    1.4153    2.3243 H       1  UNL1        0.0650
     36 H           4.3322    4.3955   -0.4620 H       1  UNL1        0.0647
     37 H           4.4411    2.6429   -2.1938 H       1  UNL1        0.0647
     38 H           0.7656   -3.3636   -2.6984 H       1  UNL1        0.0625
     39 H          -1.5747   -4.1001   -3.2320 H       1  UNL1        0.0618
     40 H          -3.3797   -3.3844   -1.6918 H       1  UNL1        0.0618
     41 H          -2.8755   -2.0196    0.2563 H       1  UNL1        0.0625
     42 H          -3.7262    0.1640    3.2860 H       1  UNL1        0.1903
@<TRIPOS>BOND
     1     1     2    1
     2     2     3   ar
     3     3     4   ar
     4     4     5    1
     5     5     6    1
     6     6     7   ar
     7     7     8   ar
     8     8     9    1
     9     9    10    1
    10    10    11   ar
    11    11    12   ar
    12    12    13    1
    13    12    14   ar
    14    14    15   ar
    15    15    16   ar
    16    16    17    1
    17     8    18   ar
    18    18    19    2
    19    18    20   ar
    20    20    21   ar
    21    21    22   ar
    22    22    23   ar
    23    23    24   ar
    24    24    25   ar
    25     4    26   ar
    26    26    27   ar
    27    27     2   ar
    28    25     6   ar
    29    16    10   ar
    30    25    20   ar
    31     1    28    1
    32     1    29    1
    33     1    30    1
    34     3    31    1
    35     5    32    1
    36     9    33    1
    37     9    34    1
    38    11    35    1
    39    14    36    1
    40    15    37    1
    41    21    38    1
    42    22    39    1
    43    23    40    1
    44    24    41    1
    45    26    42    1
