@<TRIPOS>MOLECULE
*****
 26 26 0 0 0
SMALL
GASTEIGER

@<TRIPOS>ATOM
      1 C           3.8066   -0.2024    0.3980 C.3     1  UNL1       -0.0157
      2 N           3.1490    0.6321   -0.5520 N.3     1  UNL1       -0.3162
      3 C           1.7874    0.2902   -0.8187 C.3     1  UNL1        0.0258
      4 C           0.9318    0.5676    0.3873 C.3     1  UNL1        0.0927
      5 O           1.3315   -0.1571    1.4980 O.3     1  UNL1       -0.3859
      6 C          -0.4766    0.2225    0.0272 C.ar    1  UNL1       -0.0143
      7 C          -1.3857    0.1681    1.0724 C.ar    1  UNL1       -0.0109
      8 C          -2.7173   -0.1397    0.8866 C.ar    1  UNL1        0.1586
      9 O          -3.5706   -0.1739    1.9981 O.3     1  UNL1       -0.5033
     10 C          -3.1870   -0.4073   -0.3812 C.ar    1  UNL1        0.1582
     11 O          -4.5304   -0.7188   -0.5842 O.3     1  UNL1       -0.5033
     12 C          -2.2990   -0.3583   -1.4316 C.ar    1  UNL1       -0.0162
     13 C          -0.9690   -0.0486   -1.2237 C.ar    1  UNL1       -0.0524
     14 H           3.4874   -1.2563    0.3714 H       1  UNL1        0.0388
     15 H           4.9093   -0.1308    0.1570 H       1  UNL1        0.0388
     16 H           3.6205    0.2142    1.4188 H       1  UNL1        0.0388
     17 H           3.7087    0.7537   -1.4213 H       1  UNL1        0.1217
     18 H           1.4660    0.9596   -1.6647 H       1  UNL1        0.0453
     19 H           1.6322   -0.7810   -1.1006 H       1  UNL1        0.0453
     20 H           0.9771    1.6527    0.6509 H       1  UNL1        0.0656
     21 H           1.2737   -1.1092    1.2887 H       1  UNL1        0.2103
     22 H          -1.0611    0.3733    2.0996 H       1  UNL1        0.0659
     23 H          -3.8574    0.6973    2.4486 H       1  UNL1        0.2923
     24 H          -5.1558   -0.0768   -1.0479 H       1  UNL1        0.2923
     25 H          -2.5944   -0.5566   -2.4486 H       1  UNL1        0.0655
     26 H          -0.2768   -0.0076   -2.0281 H       1  UNL1        0.0622
@<TRIPOS>BOND
     1     1     2    1
     2     2     3    1
     3     3     4    1
     4     4     5    1
     5     4     6    1
     6     6     7   ar
     7     7     8   ar
     8     8     9    1
     9     8    10   ar
    10    10    11    1
    11    10    12   ar
    12    12    13   ar
    13    13     6   ar
    14     1    14    1
    15     1    15    1
    16     1    16    1
    17     2    17    1
    18     3    18    1
    19     3    19    1
    20     4    20    1
    21     5    21    1
    22     7    22    1
    23     9    23    1
    24    11    24    1
    25    12    25    1
    26    13    26    1
