@<TRIPOS>MOLECULE
*****
 68 73 0 0 0
SMALL
GASTEIGER

@<TRIPOS>ATOM
      1 C          -7.5157    3.1404    0.1810 C.3     1  UNL1        0.0386
      2 C          -7.3454    2.0914    1.2345 C.2     1  UNL1        0.2771
      3 N          -8.4075    1.8178    1.9149 N.2     1  UNL1       -0.1041
      4 N          -6.0333    1.5155    1.3665 N.pl3   1  UNL1       -0.2248
      5 C          -4.8866    2.3097    1.0371 C.3     1  UNL1        0.0836
      6 C          -4.0118    1.7102   -0.0103 C.3     1  UNL1        0.0205
      7 C          -3.8429    0.2161    0.0868 C.3     1  UNL1        0.1070
      8 C          -5.0730   -0.5029    0.5918 C.3     1  UNL1        0.0205
      9 C          -5.6435    0.1888    1.8012 C.3     1  UNL1        0.0836
     10 O          -3.4512   -0.3596   -1.1354 O.3     1  UNL1       -0.4885
     11 C          -2.2439   -1.0042   -1.2973 C.ar    1  UNL1        0.1229
     12 C          -2.1844   -1.4559   -2.6238 C.ar    1  UNL1       -0.0192
     13 C          -1.0694   -2.1564   -3.1036 C.ar    1  UNL1       -0.0485
     14 C           0.0011   -2.4177   -2.2736 C.ar    1  UNL1        0.0078
     15 C          -0.0785   -1.9646   -0.9739 C.ar    1  UNL1        0.0539
     16 C          -1.1654   -1.2748   -0.4837 C.ar    1  UNL1        0.0042
     17 N           1.0398   -2.2998   -0.3039 N.ar    1  UNL1       -0.3353
     18 C           1.3926   -2.0245    1.0963 C.3     1  UNL1        0.0489
     19 C           2.1101   -0.7297    1.2218 C.ar    1  UNL1       -0.0272
     20 C           1.4361    0.4603    1.4335 C.ar    1  UNL1       -0.0563
     21 C           2.0391    1.6922    1.5579 C.ar    1  UNL1       -0.0537
     22 C           3.4142    1.7600    1.4670 C.ar    1  UNL1       -0.0178
     23 C           4.0279    3.0019    1.5918 C.ar    1  UNL1       -0.0532
     24 C           5.4029    2.9889    1.4897 C.ar    1  UNL1       -0.0463
     25 C           6.1679    1.8625    1.2800 C.ar    1  UNL1        0.0653
     26 C           5.5196    0.6379    1.1601 C.ar    1  UNL1       -0.0392
     27 C           4.1416    0.6066    1.2563 C.ar    1  UNL1       -0.0168
     28 C           3.4703   -0.6006    1.1403 C.ar    1  UNL1       -0.0491
     29 C           7.6118    2.0039    1.1933 C.2     1  UNL1        0.3081
     30 N           8.4441    0.9351    1.6178 N.pl3   1  UNL1       -0.2466
     31 N           8.1736    3.0743    0.7409 N.2     1  UNL1       -0.0994
     32 C           1.8421   -2.9685   -1.1661 C.ar    1  UNL1        0.0504
     33 C           1.2195   -3.0538   -2.3922 C.ar    1  UNL1        0.0076
     34 C           1.7603   -3.6764   -3.5117 C.ar    1  UNL1       -0.0520
     35 C           3.0238   -4.2532   -3.3746 C.ar    1  UNL1       -0.0611
     36 C           3.6966   -4.1942   -2.1536 C.ar    1  UNL1       -0.0598
     37 C           3.0882   -3.5537   -1.0821 C.ar    1  UNL1       -0.0376
     38 H          -8.4112    2.9422   -0.4289 H       1  UNL1        0.0351
     39 H          -7.5041    4.1189    0.6900 H       1  UNL1        0.0351
     40 H          -6.6567    3.1203   -0.5469 H       1  UNL1        0.0351
     41 H          -8.4389    1.1118    2.6775 H       1  UNL1        0.3629
     42 H          -4.2631    2.3412    1.9795 H       1  UNL1        0.0727
     43 H          -5.1345    3.3579    0.8390 H       1  UNL1        0.0727
     44 H          -4.4325    1.9479   -1.0064 H       1  UNL1        0.0337
     45 H          -2.9982    2.1918    0.0059 H       1  UNL1        0.0337
     46 H          -3.0573    0.0467    0.8479 H       1  UNL1        0.0735
     47 H          -5.8700   -0.5834   -0.1551 H       1  UNL1        0.0337
     48 H          -4.7971   -1.5243    0.9112 H       1  UNL1        0.0337
     49 H          -4.8852    0.3056    2.6070 H       1  UNL1        0.0727
     50 H          -6.5096   -0.3937    2.1796 H       1  UNL1        0.0727
     51 H          -2.9176   -1.3524   -3.4301 H       1  UNL1        0.0654
     52 H          -0.9530   -2.5338   -4.1089 H       1  UNL1        0.0625
     53 H          -1.3229   -0.8843    0.5014 H       1  UNL1        0.0675
     54 H           0.4882   -1.9516    1.7402 H       1  UNL1        0.0541
     55 H           2.0321   -2.8099    1.5181 H       1  UNL1        0.0541
     56 H           0.3609    0.4864    1.5153 H       1  UNL1        0.0621
     57 H           1.4767    2.6017    1.7230 H       1  UNL1        0.0624
     58 H           3.4617    3.8975    1.7557 H       1  UNL1        0.0624
     59 H           5.8737    3.9657    1.5883 H       1  UNL1        0.0626
     60 H           6.1072   -0.2375    0.9976 H       1  UNL1        0.0632
     61 H           4.0780   -1.4733    0.9769 H       1  UNL1        0.0627
     62 H           9.0705    0.3500    2.2267 H       1  UNL1        0.2884
     63 H           8.5687    0.1764    0.8908 H       1  UNL1        0.2884
     64 H           7.5985    3.8959    0.4132 H       1  UNL1        0.3633
     65 H           1.2344   -3.7194   -4.4561 H       1  UNL1        0.0624
     66 H           3.4175   -4.7300   -4.2629 H       1  UNL1        0.0618
     67 H           4.6741   -4.6528   -2.0863 H       1  UNL1        0.0618
     68 H           3.6391   -3.5345   -0.1723 H       1  UNL1        0.0638
@<TRIPOS>BOND
     1     1     2    1
     2     2     3    2
     3     2     4    1
     4     4     5    1
     5     5     6    1
     6     6     7    1
     7     7     8    1
     8     8     9    1
     9     7    10    1
    10    10    11    1
    11    11    12   ar
    12    12    13   ar
    13    13    14   ar
    14    14    15   ar
    15    15    16   ar
    16    15    17   ar
    17    17    18    1
    18    18    19    1
    19    19    20   ar
    20    20    21   ar
    21    21    22   ar
    22    22    23   ar
    23    23    24   ar
    24    24    25   ar
    25    25    26   ar
    26    26    27   ar
    27    27    28   ar
    28    25    29    1
    29    29    30    1
    30    29    31    2
    31    17    32   ar
    32    32    33   ar
    33    33    34   ar
    34    34    35   ar
    35    35    36   ar
    36    36    37   ar
    37     9     4    1
    38    16    11   ar
    39    28    19   ar
    40    37    32   ar
    41    33    14   ar
    42    27    22   ar
    43     1    38    1
    44     1    39    1
    45     1    40    1
    46     3    41    1
    47     5    42    1
    48     5    43    1
    49     6    44    1
    50     6    45    1
    51     7    46    1
    52     8    47    1
    53     8    48    1
    54     9    49    1
    55     9    50    1
    56    12    51    1
    57    13    52    1
    58    16    53    1
    59    18    54    1
    60    18    55    1
    61    20    56    1
    62    21    57    1
    63    23    58    1
    64    24    59    1
    65    26    60    1
    66    28    61    1
    67    30    62    1
    68    30    63    1
    69    31    64    1
    70    34    65    1
    71    35    66    1
    72    36    67    1
    73    37    68    1
