@<TRIPOS>MOLECULE
*****
 39 41 0 0 0
SMALL
GASTEIGER

@<TRIPOS>ATOM
      1 C          -1.5625    1.0905   -1.3692 C.3     1  UNL1       -0.0480
      2 C          -1.6689   -0.1125   -0.4807 C.3     1  UNL1        0.0231
      3 C          -0.7317   -0.1707    0.6780 C.3     1  UNL1        0.0340
      4 N           0.6630   -0.1530    0.3681 N.pl3   1  UNL1       -0.2818
      5 C           1.4242    1.0309    0.2161 C.ar    1  UNL1        0.0490
      6 C           0.8504    2.2570    0.4704 C.ar    1  UNL1       -0.0392
      7 C           1.4843    3.4785    0.3894 C.ar    1  UNL1       -0.0599
      8 C           2.8125    3.5200    0.0252 C.ar    1  UNL1       -0.0606
      9 C           3.4387    2.3230   -0.2405 C.ar    1  UNL1       -0.0462
     10 C           2.7415    1.1554   -0.1380 C.ar    1  UNL1        0.0342
     11 S           3.6717   -0.3216   -0.4937 S.3     1  UNL1       -0.0841
     12 C           2.5642   -1.6859   -0.2169 C.ar    1  UNL1        0.0530
     13 C           1.2694   -1.4206    0.1470 C.ar    1  UNL1        0.1394
     14 N           0.5448   -2.5399    0.3087 N.ar    1  UNL1       -0.2388
     15 C           1.0202   -3.7814    0.1377 C.ar    1  UNL1        0.0298
     16 C           2.3221   -4.0422   -0.2275 C.ar    1  UNL1       -0.0424
     17 C           3.1070   -2.9237   -0.4060 C.ar    1  UNL1       -0.0432
     18 N          -3.0505   -0.2138   -0.0728 N.3     1  UNL1       -0.3042
     19 C          -3.3505   -1.3116    0.7872 C.3     1  UNL1       -0.0127
     20 C          -3.6098    1.0410    0.3527 C.3     1  UNL1       -0.0127
     21 H          -1.7865    2.0520   -0.8925 H       1  UNL1        0.0245
     22 H          -2.1758    0.9385   -2.2988 H       1  UNL1        0.0245
     23 H          -0.5166    1.1714   -1.7803 H       1  UNL1        0.0245
     24 H          -1.5236   -0.9989   -1.1777 H       1  UNL1        0.0475
     25 H          -0.9385   -1.1165    1.2371 H       1  UNL1        0.0483
     26 H          -1.0276    0.6613    1.3626 H       1  UNL1        0.0483
     27 H          -0.1788    2.3694    0.7807 H       1  UNL1        0.0636
     28 H           1.0200    4.4322    0.5917 H       1  UNL1        0.0618
     29 H           3.3477    4.4467   -0.0514 H       1  UNL1        0.0618
     30 H           4.4792    2.3669   -0.5247 H       1  UNL1        0.0629
     31 H           0.3486   -4.6193    0.2941 H       1  UNL1        0.0830
     32 H           2.6211   -5.0638   -0.3428 H       1  UNL1        0.0633
     33 H           4.1358   -3.0789   -0.6929 H       1  UNL1        0.0630
     34 H          -4.4363   -1.5375    0.6903 H       1  UNL1        0.0391
     35 H          -2.8279   -2.2015    0.3831 H       1  UNL1        0.0391
     36 H          -3.0830   -1.1687    1.8327 H       1  UNL1        0.0391
     37 H          -4.5984    0.8378    0.8078 H       1  UNL1        0.0391
     38 H          -3.0137    1.5838    1.1076 H       1  UNL1        0.0391
     39 H          -3.7855    1.7055   -0.4999 H       1  UNL1        0.0391
@<TRIPOS>BOND
     1     1     2    1
     2     2     3    1
     3     3     4    1
     4     4     5    1
     5     5     6   ar
     6     6     7   ar
     7     7     8   ar
     8     8     9   ar
     9     9    10   ar
    10    10    11    1
    11    11    12    1
    12    12    13   ar
    13    13    14   ar
    14    14    15   ar
    15    15    16   ar
    16    16    17   ar
    17     2    18    1
    18    18    19    1
    19    18    20    1
    20    13     4    1
    21    10     5   ar
    22    17    12   ar
    23     1    21    1
    24     1    22    1
    25     1    23    1
    26     2    24    1
    27     3    25    1
    28     3    26    1
    29     6    27    1
    30     7    28    1
    31     8    29    1
    32     9    30    1
    33    15    31    1
    34    16    32    1
    35    17    33    1
    36    19    34    1
    37    19    35    1
    38    19    36    1
    39    20    37    1
    40    20    38    1
    41    20    39    1
