@<TRIPOS>MOLECULE
*****
 71 74 0 0 0
SMALL
GASTEIGER

@<TRIPOS>ATOM
      1 C           3.4885    1.5664   -2.9000 C.3     1  UNL1        0.0820
      2 O           4.4226    1.2447   -1.8757 O.3     1  UNL1       -0.4644
      3 C           5.6310    0.6459   -2.1301 C.2     1  UNL1        0.3397
      4 O           5.8572    0.3943   -3.3555 O.2     1  UNL1       -0.2449
      5 C           6.6476    0.2997   -1.1084 C.ar    1  UNL1        0.0733
      6 C           7.9198   -0.0049   -1.6323 C.ar    1  UNL1       -0.0468
      7 C           8.9781   -0.1573   -0.7783 C.ar    1  UNL1       -0.0575
      8 C           8.8338   -0.0204    0.5844 C.ar    1  UNL1       -0.0194
      9 C           7.5971    0.2696    1.0582 C.ar    1  UNL1        0.1285
     10 O           7.4379    0.4106    2.4372 O.3     1  UNL1       -0.5060
     11 C           6.4568    0.4375    0.2349 C.ar    1  UNL1        0.0778
     12 C           5.2172    0.7860    0.8490 C.2     1  UNL1        0.2044
     13 O           5.3440    1.6252    1.8476 O.2     1  UNL1       -0.2863
     14 C           3.8616    0.3983    0.6049 C.ar    1  UNL1        0.1050
     15 C           2.7931    1.1867    1.0156 C.ar    1  UNL1        0.1320
     16 O           3.1033    2.4496    1.5648 O.3     1  UNL1       -0.5059
     17 C           1.4926    0.7717    0.8991 C.ar    1  UNL1       -0.0053
     18 C           1.1588   -0.4547    0.3681 C.ar    1  UNL1        0.0659
     19 C          -0.2587   -0.8786    0.2600 C.2     1  UNL1        0.3395
     20 O          -0.4248   -2.0332   -0.1742 O.2     1  UNL1       -0.2450
     21 O          -1.2805   -0.1172    0.5906 O.3     1  UNL1       -0.4595
     22 C          -2.6177   -0.2065    0.6164 C.3     1  UNL1        0.1100
     23 C          -3.3605   -0.4760   -0.6584 C.3     1  UNL1        0.0669
     24 C          -3.4831   -1.8736   -1.1026 C.3     1  UNL1       -0.0074
     25 C          -4.2076   -2.7261   -0.0984 C.ar    1  UNL1       -0.0455
     26 C          -3.5232   -3.3946    0.8713 C.ar    1  UNL1       -0.0551
     27 C          -4.1821   -4.1752    1.8344 C.ar    1  UNL1       -0.0199
     28 C          -5.5622   -4.2910    1.8248 C.ar    1  UNL1        0.1169
     29 O          -6.2438   -5.0553    2.7638 O.3     1  UNL1       -0.5068
     30 C          -6.2367   -3.6111    0.8368 C.ar    1  UNL1       -0.0199
     31 C          -5.5915   -2.8415   -0.1097 C.ar    1  UNL1       -0.0551
     32 N          -2.9668    0.4311   -1.6730 N.3     1  UNL1       -0.1833
     33 S          -4.1320    1.6024   -2.0472 S.O2    1  UNL1        0.0588
     34 O          -5.4049    0.9363   -2.4690 O.2     1  UNL1       -0.1530
     35 O          -3.6285    2.4868   -3.1696 O.2     1  UNL1       -0.1530
     36 C          -4.4359    2.5864   -0.6172 C.ar    1  UNL1        0.1053
     37 C          -5.4236    2.3063    0.2797 C.ar    1  UNL1       -0.0354
     38 C          -5.6149    3.1190    1.4073 C.ar    1  UNL1       -0.0599
     39 C          -4.7694    4.1905    1.5507 C.ar    1  UNL1       -0.0616
     40 C          -3.7687    4.4776    0.6434 C.ar    1  UNL1       -0.0599
     41 C          -3.5798    3.6835   -0.4581 C.ar    1  UNL1       -0.0354
     42 C           2.2001   -1.2381   -0.0397 C.ar    1  UNL1       -0.0053
     43 C           3.5184   -0.8465    0.0662 C.ar    1  UNL1        0.1320
     44 O           4.5227   -1.7196   -0.3762 O.3     1  UNL1       -0.5059
     45 H           3.7316    2.5402   -3.3717 H       1  UNL1        0.0661
     46 H           2.5039    1.6996   -2.4062 H       1  UNL1        0.0661
     47 H           3.3781    0.7694   -3.6586 H       1  UNL1        0.0661
     48 H           8.0263   -0.1148   -2.7057 H       1  UNL1        0.0626
     49 H           9.9518   -0.3905   -1.2004 H       1  UNL1        0.0619
     50 H           9.7109   -0.1515    1.1971 H       1  UNL1        0.0654
     51 H           6.8072   -0.2822    2.8747 H       1  UNL1        0.2922
     52 H           2.7411    2.6125    2.5129 H       1  UNL1        0.2922
     53 H           0.6797    1.4074    1.2278 H       1  UNL1        0.0662
     54 H          -3.0930    0.7186    1.1287 H       1  UNL1        0.0714
     55 H          -2.9733   -1.0062    1.3927 H       1  UNL1        0.0714
     56 H          -4.4751   -0.1095   -0.4335 H       1  UNL1        0.0514
     57 H          -4.1933   -1.9417   -2.0135 H       1  UNL1        0.0330
     58 H          -2.5824   -2.3598   -1.4448 H       1  UNL1        0.0330
     59 H          -2.4475   -3.3599    0.9433 H       1  UNL1        0.0621
     60 H          -3.6344   -4.7014    2.5989 H       1  UNL1        0.0654
     61 H          -7.0581   -5.6056    2.4576 H       1  UNL1        0.2921
     62 H          -7.3287   -3.6950    0.8169 H       1  UNL1        0.0654
     63 H          -6.1264   -2.3193   -0.8670 H       1  UNL1        0.0621
     64 H          -2.4687    0.0093   -2.4802 H       1  UNL1        0.1484
     65 H          -6.0855    1.4691    0.1539 H       1  UNL1        0.0637
     66 H          -6.3833    2.9152    2.1285 H       1  UNL1        0.0618
     67 H          -4.8856    4.8431    2.4142 H       1  UNL1        0.0618
     68 H          -3.0928    5.3247    0.7441 H       1  UNL1        0.0618
     69 H          -2.7979    3.8795   -1.1974 H       1  UNL1        0.0637
     70 H           1.9528   -2.2190   -0.4668 H       1  UNL1        0.0662
     71 H           4.3575   -2.1170   -1.3085 H       1  UNL1        0.2922
@<TRIPOS>BOND
     1     1     2    1
     2     2     3    1
     3     3     4    2
     4     3     5    1
     5     5     6   ar
     6     6     7   ar
     7     7     8   ar
     8     8     9   ar
     9     9    10    1
    10     9    11   ar
    11    11    12    1
    12    12    13    2
    13    12    14    1
    14    14    15   ar
    15    15    16    1
    16    15    17   ar
    17    17    18   ar
    18    18    19    1
    19    19    20    2
    20    19    21    1
    21    21    22    1
    22    22    23    1
    23    23    24    1
    24    24    25    1
    25    25    26   ar
    26    26    27   ar
    27    27    28   ar
    28    28    29    1
    29    28    30   ar
    30    30    31   ar
    31    23    32    1
    32    32    33    1
    33    33    34    2
    34    33    35    2
    35    33    36    1
    36    36    37   ar
    37    37    38   ar
    38    38    39   ar
    39    39    40   ar
    40    40    41   ar
    41    18    42   ar
    42    42    43   ar
    43    43    44    1
    44    11     5   ar
    45    43    14   ar
    46    31    25   ar
    47    41    36   ar
    48     1    45    1
    49     1    46    1
    50     1    47    1
    51     6    48    1
    52     7    49    1
    53     8    50    1
    54    10    51    1
    55    16    52    1
    56    17    53    1
    57    22    54    1
    58    22    55    1
    59    23    56    1
    60    24    57    1
    61    24    58    1
    62    26    59    1
    63    27    60    1
    64    29    61    1
    65    30    62    1
    66    31    63    1
    67    32    64    1
    68    37    65    1
    69    38    66    1
    70    39    67    1
    71    40    68    1
    72    41    69    1
    73    42    70    1
    74    44    71    1
