@<TRIPOS>MOLECULE
*****
 47 50 0 0 0
SMALL
GASTEIGER

@<TRIPOS>ATOM
      1 N           4.0570    0.4517    3.3576 N.am    1  UNL1       -0.3241
      2 C           2.9421    0.2552    2.4915 C.2     1  UNL1        0.2599
      3 O           2.0279   -0.5340    2.8398 O.2     1  UNL1       -0.2687
      4 C           2.8878    0.9726    1.2240 C.ar    1  UNL1        0.1280
      5 C           3.8288    1.8544    0.7502 C.ar    1  UNL1        0.0588
      6 N           3.4287    2.3087   -0.4463 N.ar    1  UNL1       -0.2353
      7 C           2.2495    1.7428   -0.7615 C.ar    1  UNL1        0.1381
      8 C           1.4087    1.8675   -1.8766 C.ar    1  UNL1       -0.0182
      9 C           0.2494    1.1247   -1.8721 C.ar    1  UNL1       -0.0477
     10 C          -0.0974    0.2869   -0.8328 C.ar    1  UNL1        0.0173
     11 C          -1.3195   -0.5041   -0.8170 C.ar    1  UNL1        0.0779
     12 C          -1.3541   -1.8997   -0.7534 C.ar    1  UNL1        0.0967
     13 C          -0.1670   -2.7423   -0.6934 C.ar    1  UNL1        0.0026
     14 C          -0.0040   -3.5421    0.4186 C.ar    1  UNL1       -0.0498
     15 C           1.0837   -4.3761    0.5736 C.ar    1  UNL1       -0.0258
     16 C           2.0602   -4.4366   -0.3977 C.ar    1  UNL1        0.1234
     17 F           3.1500   -5.2583   -0.2648 F       1  UNL1       -0.2055
     18 C           1.9020   -3.6391   -1.5113 C.ar    1  UNL1       -0.0258
     19 C           0.8018   -2.8003   -1.6603 C.ar    1  UNL1       -0.0498
     20 N          -2.6533   -2.2310   -0.7614 N.ar    1  UNL1       -0.2351
     21 C          -3.4313   -1.1489   -0.8252 C.ar    1  UNL1        0.0972
     22 N          -2.5981   -0.0887   -0.8591 N.ar    1  UNL1       -0.3270
     23 C          -3.0471    1.2932   -0.9304 C.3     1  UNL1        0.0529
     24 C          -3.2140    1.7779    0.4923 C.3     1  UNL1        0.0961
     25 O          -1.9770    1.6763    1.1251 O.3     1  UNL1       -0.3878
     26 C          -3.6637    3.2221    0.4208 C.3     1  UNL1        0.0718
     27 O          -2.7057    3.9172   -0.3004 O.3     1  UNL1       -0.3924
     28 C           0.7809    0.2217    0.2225 C.ar    1  UNL1        0.0211
     29 N           1.9418    0.9354    0.2687 N.ar    1  UNL1       -0.2949
     30 H           4.0041    0.3346    4.3965 H       1  UNL1        0.1453
     31 H           5.0076    0.7309    2.9756 H       1  UNL1        0.1453
     32 H           4.7647    2.1688    1.2277 H       1  UNL1        0.0853
     33 H           1.7088    2.5268   -2.6651 H       1  UNL1        0.0654
     34 H          -0.4020    1.2150   -2.7256 H       1  UNL1        0.0626
     35 H          -0.7294   -3.5487    1.2232 H       1  UNL1        0.0625
     36 H           1.1775   -4.9879    1.4580 H       1  UNL1        0.0646
     37 H           2.6838   -3.7053   -2.2601 H       1  UNL1        0.0646
     38 H           0.6924   -2.1892   -2.5268 H       1  UNL1        0.0625
     39 H          -4.5111   -1.1582   -0.8441 H       1  UNL1        0.1029
     40 H          -2.2644    1.9341   -1.3947 H       1  UNL1        0.0518
     41 H          -3.9996    1.3741   -1.5030 H       1  UNL1        0.0518
     42 H          -3.9687    1.1431    1.0291 H       1  UNL1        0.0634
     43 H          -1.7813    2.5022    1.6282 H       1  UNL1        0.2100
     44 H          -4.6163    3.2520   -0.1502 H       1  UNL1        0.0583
     45 H          -3.7679    3.6169    1.4494 H       1  UNL1        0.0583
     46 H          -3.1118    4.4999   -0.9846 H       1  UNL1        0.2095
     47 H           0.5459   -0.4165    1.0457 H       1  UNL1        0.0820
@<TRIPOS>BOND
     1     1     2   am
     2     2     3    2
     3     2     4    1
     4     4     5   ar
     5     5     6   ar
     6     6     7   ar
     7     7     8   ar
     8     8     9   ar
     9     9    10   ar
    10    10    11    1
    11    11    12   ar
    12    12    13    1
    13    13    14   ar
    14    14    15   ar
    15    15    16   ar
    16    16    17    1
    17    16    18   ar
    18    18    19   ar
    19    12    20   ar
    20    20    21   ar
    21    21    22   ar
    22    22    23    1
    23    23    24    1
    24    24    25    1
    25    24    26    1
    26    26    27    1
    27    10    28   ar
    28    28    29   ar
    29    29     4   ar
    30    29     7   ar
    31    22    11   ar
    32    19    13   ar
    33     1    30    1
    34     1    31    1
    35     5    32    1
    36     8    33    1
    37     9    34    1
    38    14    35    1
    39    15    36    1
    40    18    37    1
    41    19    38    1
    42    21    39    1
    43    23    40    1
    44    23    41    1
    45    24    42    1
    46    25    43    1
    47    26    44    1
    48    26    45    1
    49    27    46    1
    50    28    47    1
