
     RDKit          3D

 44 46  0  0  0  0  0  0  0  0999 V2000
   -4.4749   -2.4232   -2.7225 C   0  0  0  0  0  0  0  0  0  0  0  0
   -3.8963   -2.0789   -1.4570 O   0  0  0  0  0  0  0  0  0  0  0  0
   -3.0432   -0.9878   -1.3822 C   0  0  0  0  0  0  0  0  0  0  0  0
   -2.7526   -0.2427   -2.5039 C   0  0  0  0  0  0  0  0  0  0  0  0
   -1.9142    0.8455   -2.4797 C   0  0  0  0  0  0  0  0  0  0  0  0
   -1.3478    1.1842   -1.2457 C   0  0  0  0  0  0  0  0  0  0  0  0
   -0.4982    2.2852   -1.1999 O   0  0  0  0  0  0  0  0  0  0  0  0
    0.1980    2.5164   -0.0243 C   0  0  0  0  0  0  0  0  0  0  0  0
   -0.0398    3.6474    0.7429 C   0  0  0  0  0  0  0  0  0  0  0  0
    0.6901    3.8047    1.8950 C   0  0  0  0  0  0  0  0  0  0  0  0
    1.6128    2.8922    2.2769 N   0  0  0  0  0  0  0  0  0  0  0  0
    1.8573    1.7926    1.5470 C   0  0  0  0  0  0  0  0  0  0  0  0
    2.8059    0.8727    1.9279 C   0  0  0  0  0  0  0  0  0  0  0  0
    3.0653   -0.2516    1.1627 C   0  0  0  0  0  0  0  0  0  0  0  0
    4.0237   -1.1812    1.5483 O   0  0  0  0  0  0  0  0  0  0  0  0
    4.7826   -1.0302    2.7375 C   0  0  0  0  0  0  0  0  0  0  0  0
    2.3810   -0.4860   -0.0075 C   0  0  0  0  0  0  0  0  0  0  0  0
    2.6549   -1.6182   -0.7625 O   0  0  0  0  0  0  0  0  0  0  0  0
    1.9718   -1.8830   -1.9613 C   0  0  0  0  0  0  0  0  0  0  0  0
    1.4233    0.4488   -0.3851 C   0  0  0  0  0  0  0  0  0  0  0  0
    1.1440    1.5788    0.3620 C   0  0  0  0  0  0  0  0  0  0  0  0
   -1.6283    0.4450   -0.1010 C   0  0  0  0  0  0  0  0  0  0  0  0
   -2.4761   -0.6397   -0.1737 C   0  0  0  0  0  0  0  0  0  0  0  0
   -2.7537   -1.3777    0.9781 O   0  0  0  0  0  0  0  0  0  0  0  0
   -2.1622   -1.0049    2.2087 C   0  0  0  0  0  0  0  0  0  0  0  0
   -4.9662   -1.5385   -3.1851 H   0  0  0  0  0  0  0  0  0  0  0  0
   -5.1768   -3.2623   -2.6168 H   0  0  0  0  0  0  0  0  0  0  0  0
   -3.6745   -2.7422   -3.4230 H   0  0  0  0  0  0  0  0  0  0  0  0
   -3.2086   -0.5307   -3.4500 H   0  0  0  0  0  0  0  0  0  0  0  0
   -1.6886    1.4281   -3.3632 H   0  0  0  0  0  0  0  0  0  0  0  0
   -0.7815    4.3370    0.3928 H   0  0  0  0  0  0  0  0  0  0  0  0
    0.5208    4.6791    2.5084 H   0  0  0  0  0  0  0  0  0  0  0  0
    3.3473    1.0518    2.8466 H   0  0  0  0  0  0  0  0  0  0  0  0
    4.0796   -0.9490    3.6002 H   0  0  0  0  0  0  0  0  0  0  0  0
    5.2700   -0.0230    2.6559 H   0  0  0  0  0  0  0  0  0  0  0  0
    5.5152   -1.8310    2.8652 H   0  0  0  0  0  0  0  0  0  0  0  0
    1.8494   -0.9958   -2.5975 H   0  0  0  0  0  0  0  0  0  0  0  0
    0.9770   -2.3687   -1.7785 H   0  0  0  0  0  0  0  0  0  0  0  0
    2.5577   -2.6376   -2.5359 H   0  0  0  0  0  0  0  0  0  0  0  0
    0.8997    0.2748   -1.3140 H   0  0  0  0  0  0  0  0  0  0  0  0
   -1.1751    0.7323    0.8461 H   0  0  0  0  0  0  0  0  0  0  0  0
   -2.3600    0.0865    2.3760 H   0  0  0  0  0  0  0  0  0  0  0  0
   -2.5449   -1.6091    3.0407 H   0  0  0  0  0  0  0  0  0  0  0  0
   -1.0638   -1.2102    2.1515 H   0  0  0  0  0  0  0  0  0  0  0  0
  1  2  1  0
  2  3  1  0
  3  4  2  0
  4  5  1  0
  5  6  2  0
  6  7  1  0
  7  8  1  0
  8  9  2  0
  9 10  1  0
 10 11  2  0
 11 12  1  0
 12 13  2  0
 13 14  1  0
 14 15  1  0
 15 16  1  0
 14 17  2  0
 17 18  1  0
 18 19  1  0
 17 20  1  0
 20 21  2  0
  6 22  1  0
 22 23  2  0
 23 24  1  0
 24 25  1  0
 23  3  1  0
 21  8  1  0
 21 12  1  0
  1 26  1  0
  1 27  1  0
  1 28  1  0
  4 29  1  0
  5 30  1  0
  9 31  1  0
 10 32  1  0
 13 33  1  0
 16 34  1  0
 16 35  1  0
 16 36  1  0
 19 37  1  0
 19 38  1  0
 19 39  1  0
 20 40  1  0
 22 41  1  0
 25 42  1  0
 25 43  1  0
 25 44  1  0
M  END
$$$$
