@<TRIPOS>MOLECULE
*****
 44 46 0 0 0
SMALL
GASTEIGER

@<TRIPOS>ATOM
      1 C          -4.4749   -2.4232   -2.7225 C.3     1  UNL1        0.0790
      2 O          -3.8963   -2.0789   -1.4570 O.3     1  UNL1       -0.4914
      3 C          -3.0432   -0.9878   -1.3822 C.ar    1  UNL1        0.1617
      4 C          -2.7526   -0.2427   -2.5039 C.ar    1  UNL1       -0.0128
      5 C          -1.9142    0.8455   -2.4797 C.ar    1  UNL1       -0.0156
      6 C          -1.3478    1.1842   -1.2457 C.ar    1  UNL1        0.1322
      7 O          -0.4982    2.2852   -1.1999 O.3     1  UNL1       -0.4552
      8 C           0.1980    2.5164   -0.0243 C.ar    1  UNL1        0.1391
      9 C          -0.0398    3.6474    0.7429 C.ar    1  UNL1       -0.0006
     10 C           0.6901    3.8047    1.8950 C.ar    1  UNL1        0.0318
     11 N           1.6128    2.8922    2.2769 N.ar    1  UNL1       -0.2546
     12 C           1.8573    1.7926    1.5470 C.ar    1  UNL1        0.0782
     13 C           2.8059    0.8727    1.9279 C.ar    1  UNL1        0.0098
     14 C           3.0653   -0.2516    1.1627 C.ar    1  UNL1        0.1635
     15 O           4.0237   -1.1812    1.5483 O.3     1  UNL1       -0.4914
     16 C           4.7826   -1.0302    2.7375 C.3     1  UNL1        0.0790
     17 C           2.3810   -0.4860   -0.0075 C.ar    1  UNL1        0.1623
     18 O           2.6549   -1.6182   -0.7625 O.3     1  UNL1       -0.4914
     19 C           1.9718   -1.8830   -1.9613 C.3     1  UNL1        0.0790
     20 C           1.4233    0.4488   -0.3851 C.ar    1  UNL1       -0.0036
     21 C           1.1440    1.5788    0.3620 C.ar    1  UNL1        0.0463
     22 C          -1.6283    0.4450   -0.1010 C.ar    1  UNL1        0.0260
     23 C          -2.4761   -0.6397   -0.1737 C.ar    1  UNL1        0.1650
     24 O          -2.7537   -1.3777    0.9781 O.3     1  UNL1       -0.4913
     25 C          -2.1622   -1.0049    2.2087 C.3     1  UNL1        0.0790
     26 H          -4.9662   -1.5385   -3.1851 H       1  UNL1        0.0660
     27 H          -5.1768   -3.2623   -2.6168 H       1  UNL1        0.0660
     28 H          -3.6745   -2.7422   -3.4230 H       1  UNL1        0.0660
     29 H          -3.2086   -0.5307   -3.4500 H       1  UNL1        0.0656
     30 H          -1.6886    1.4281   -3.3632 H       1  UNL1        0.0655
     31 H          -0.7815    4.3370    0.3928 H       1  UNL1        0.0670
     32 H           0.5208    4.6791    2.5084 H       1  UNL1        0.0831
     33 H           3.3473    1.0518    2.8466 H       1  UNL1        0.0677
     34 H           4.0796   -0.9490    3.6002 H       1  UNL1        0.0660
     35 H           5.2700   -0.0230    2.6559 H       1  UNL1        0.0660
     36 H           5.5152   -1.8310    2.8652 H       1  UNL1        0.0660
     37 H           1.8494   -0.9958   -2.5975 H       1  UNL1        0.0660
     38 H           0.9770   -2.3687   -1.7785 H       1  UNL1        0.0660
     39 H           2.5577   -2.6376   -2.5359 H       1  UNL1        0.0660
     40 H           0.8997    0.2748   -1.3140 H       1  UNL1        0.0663
     41 H          -1.1751    0.7323    0.8461 H       1  UNL1        0.0692
     42 H          -2.3600    0.0865    2.3760 H       1  UNL1        0.0660
     43 H          -2.5449   -1.6091    3.0407 H       1  UNL1        0.0660
     44 H          -1.0638   -1.2102    2.1515 H       1  UNL1        0.0660
@<TRIPOS>BOND
     1     1     2    1
     2     2     3    1
     3     3     4   ar
     4     4     5   ar
     5     5     6   ar
     6     6     7    1
     7     7     8    1
     8     8     9   ar
     9     9    10   ar
    10    10    11   ar
    11    11    12   ar
    12    12    13   ar
    13    13    14   ar
    14    14    15    1
    15    15    16    1
    16    14    17   ar
    17    17    18    1
    18    18    19    1
    19    17    20   ar
    20    20    21   ar
    21     6    22   ar
    22    22    23   ar
    23    23    24    1
    24    24    25    1
    25    23     3   ar
    26    21     8   ar
    27    21    12   ar
    28     1    26    1
    29     1    27    1
    30     1    28    1
    31     4    29    1
    32     5    30    1
    33     9    31    1
    34    10    32    1
    35    13    33    1
    36    16    34    1
    37    16    35    1
    38    16    36    1
    39    19    37    1
    40    19    38    1
    41    19    39    1
    42    20    40    1
    43    22    41    1
    44    25    42    1
    45    25    43    1
    46    25    44    1
