@<TRIPOS>MOLECULE
*****
 43 46 0 0 0
SMALL
GASTEIGER

@<TRIPOS>ATOM
      1 N           7.7801   -5.2107    0.5009 N.1     1  UNL1       -0.1908
      2 C           6.8427   -4.1700    0.1120 C.1     1  UNL1        0.1007
      3 C           5.9797   -3.1812   -0.2647 C.ar    1  UNL1        0.0712
      4 C           5.2618   -3.3160   -1.4461 C.ar    1  UNL1        0.0459
      5 N           4.1795   -2.5578   -1.5467 N.ar    1  UNL1       -0.2476
      6 C           3.7507   -1.7142   -0.6733 C.ar    1  UNL1        0.1439
      7 C           2.4323   -0.9843   -0.7837 C.2     1  UNL1        0.2680
      8 O           2.0279   -0.3296   -1.6389 O.2     1  UNL1       -0.2681
      9 N           1.6771   -1.2511    0.4450 N.am    1  UNL1       -0.2802
     10 C           0.4404   -0.7297    0.7804 C.ar    1  UNL1        0.0342
     11 C          -0.0118   -1.1006    2.1329 C.ar    1  UNL1       -0.0377
     12 C          -1.1483   -0.5481    2.6081 C.ar    1  UNL1       -0.0243
     13 C          -1.9002    0.3927    1.7797 C.ar    1  UNL1        0.1292
     14 F          -2.9816    0.8403    2.4026 F       1  UNL1       -0.2051
     15 C          -1.4868    0.7261    0.5458 C.ar    1  UNL1        0.0228
     16 C          -2.3401    1.5872   -0.3412 C.3     1  UNL1        0.1603
     17 C          -1.7638    1.7672   -1.6861 C.3     1  UNL1        0.2686
     18 F          -0.5512    2.4453   -1.7209 F       1  UNL1       -0.2062
     19 F          -2.5982    2.1253   -2.6777 F       1  UNL1       -0.2062
     20 N          -3.5912    0.7074   -0.4811 N.2     1  UNL1       -0.2194
     21 C          -4.5735    1.4771   -1.0029 C.2     1  UNL1        0.2764
     22 N          -5.8217    0.9548   -1.2528 N.pl3   1  UNL1       -0.3134
     23 O          -4.2751    2.8014   -1.2674 O.2     1  UNL1       -0.4622
     24 C          -3.7703    3.6149   -0.2003 C.3     1  UNL1        0.1091
     25 C          -2.3827    4.1603   -0.2233 C.3     1  UNL1       -0.0064
     26 C          -2.6752    2.8547    0.4377 C.3     1  UNL1        0.0344
     27 C          -0.3122    0.1080    0.1622 C.ar    1  UNL1       -0.0321
     28 C           4.4953   -1.5532    0.5566 C.ar    1  UNL1        0.0726
     29 CL          3.9697   -0.3287    1.6960 Cl      1  UNL1       -0.0811
     30 C           5.6227   -2.2859    0.7817 C.ar    1  UNL1       -0.0223
     31 H           5.5849   -4.0983   -2.1572 H       1  UNL1        0.0843
     32 H           2.1762   -1.9095    1.1196 H       1  UNL1        0.1552
     33 H           0.5806   -1.8081    2.6531 H       1  UNL1        0.0637
     34 H          -1.5457   -0.8174    3.5609 H       1  UNL1        0.0647
     35 H          -1.4828    0.6615   -2.0136 H       1  UNL1        0.1047
     36 H          -6.3545    0.3230   -0.6261 H       1  UNL1        0.1466
     37 H          -6.3546    1.2116   -2.1457 H       1  UNL1        0.1466
     38 H          -4.5444    4.1875    0.3277 H       1  UNL1        0.0737
     39 H          -2.1673    5.0179    0.4353 H       1  UNL1        0.0306
     40 H          -1.7860    4.1615   -1.1719 H       1  UNL1        0.0306
     41 H          -2.5851    2.7608    1.5153 H       1  UNL1        0.0366
     42 H          -0.0001    0.4619   -0.8879 H       1  UNL1        0.0640
     43 H           6.2026   -2.2391    1.6560 H       1  UNL1        0.0646
@<TRIPOS>BOND
     1     1     2    3
     2     2     3    1
     3     3     4   ar
     4     4     5   ar
     5     5     6   ar
     6     6     7    1
     7     7     8    2
     8     7     9   am
     9     9    10    1
    10    10    11   ar
    11    11    12   ar
    12    12    13   ar
    13    13    14    1
    14    13    15   ar
    15    15    16    1
    16    16    17    1
    17    17    18    1
    18    17    19    1
    19    16    20    1
    20    20    21    2
    21    21    22    1
    22    21    23    1
    23    23    24    1
    24    24    25    1
    25    25    26    1
    26    15    27   ar
    27     6    28   ar
    28    28    29    1
    29    28    30   ar
    30    30     3   ar
    31    27    10   ar
    32    26    16    1
    33    26    24    1
    34     4    31    1
    35     9    32    1
    36    11    33    1
    37    12    34    1
    38    17    35    1
    39    22    36    1
    40    22    37    1
    41    24    38    1
    42    25    39    1
    43    25    40    1
    44    26    41    1
    45    27    42    1
    46    30    43    1
