@<TRIPOS>MOLECULE
*****
 39 41 0 0 0
SMALL
GASTEIGER

@<TRIPOS>ATOM
      1 N          -5.0016    0.3586    1.2568 N.3     1  UNL1       -0.3272
      2 C          -4.2662    0.1010    0.0053 C.3     1  UNL1        0.0049
      3 C          -3.7953    1.3472   -0.6031 C.3     1  UNL1       -0.0363
      4 C          -2.3405    1.6207   -0.6189 C.3     1  UNL1       -0.0361
      5 C          -1.4512    0.4337   -0.4761 C.3     1  UNL1        0.0081
      6 N          -0.1131    0.8664   -0.2142 N.3     1  UNL1       -0.3072
      7 C           0.8275   -0.2203   -0.0596 C.3     1  UNL1        0.0494
      8 C           1.0632   -1.1905   -1.1516 C.3     1  UNL1        0.0056
      9 C           2.0348   -0.0963   -0.9936 C.3     1  UNL1        0.1533
     10 F           2.0192    0.8759   -1.9606 F       1  UNL1       -0.2352
     11 C           3.3216   -0.2797   -0.3047 C.ar    1  UNL1       -0.0093
     12 C           3.7340   -1.4717    0.2460 C.ar    1  UNL1       -0.0555
     13 C           4.9484   -1.5285    0.8629 C.ar    1  UNL1       -0.0614
     14 C           5.8036   -0.4490    0.9716 C.ar    1  UNL1       -0.0617
     15 C           5.3969    0.7491    0.4219 C.ar    1  UNL1       -0.0614
     16 C           4.1666    0.8175   -0.2062 C.ar    1  UNL1       -0.0555
     17 C          -1.9401   -0.3544    0.7442 C.3     1  UNL1       -0.0361
     18 C          -3.2532   -0.9392    0.3098 C.3     1  UNL1       -0.0363
     19 H          -4.2887    0.6879    1.9499 H       1  UNL1        0.1185
     20 H          -5.4094   -0.5647    1.5772 H       1  UNL1        0.1185
     21 H          -5.0412   -0.3800   -0.6636 H       1  UNL1        0.0458
     22 H          -4.3013    2.2129   -0.0796 H       1  UNL1        0.0281
     23 H          -4.1693    1.4415   -1.6660 H       1  UNL1        0.0281
     24 H          -2.0229    2.1475   -1.5642 H       1  UNL1        0.0281
     25 H          -2.0473    2.3482    0.1948 H       1  UNL1        0.0281
     26 H          -1.4847   -0.2017   -1.3851 H       1  UNL1        0.0460
     27 H          -0.1090    1.4636    0.6244 H       1  UNL1        0.1226
     28 H           0.9815   -0.5827    0.9596 H       1  UNL1        0.0496
     29 H           0.3599   -1.1426   -2.0130 H       1  UNL1        0.0316
     30 H           1.3039   -2.2371   -0.8746 H       1  UNL1        0.0316
     31 H           3.0594   -2.3159    0.1581 H       1  UNL1        0.0621
     32 H           5.2750   -2.4680    1.2976 H       1  UNL1        0.0618
     33 H           6.7747   -0.5138    1.4705 H       1  UNL1        0.0618
     34 H           6.0476    1.6269    0.4882 H       1  UNL1        0.0618
     35 H           3.8596    1.7774   -0.6372 H       1  UNL1        0.0621
     36 H          -2.0755    0.3731    1.5761 H       1  UNL1        0.0281
     37 H          -1.2076   -1.1294    0.9810 H       1  UNL1        0.0281
     38 H          -3.5991   -1.6026    1.1499 H       1  UNL1        0.0281
     39 H          -3.0602   -1.5810   -0.5825 H       1  UNL1        0.0281
@<TRIPOS>BOND
     1     1     2    1
     2     2     3    1
     3     3     4    1
     4     4     5    1
     5     5     6    1
     6     6     7    1
     7     7     8    1
     8     8     9    1
     9     9    10    1
    10     9    11    1
    11    11    12   ar
    12    12    13   ar
    13    13    14   ar
    14    14    15   ar
    15    15    16   ar
    16     5    17    1
    17    17    18    1
    18    18     2    1
    19     9     7    1
    20    16    11   ar
    21     1    19    1
    22     1    20    1
    23     2    21    1
    24     3    22    1
    25     3    23    1
    26     4    24    1
    27     4    25    1
    28     5    26    1
    29     6    27    1
    30     7    28    1
    31     8    29    1
    32     8    30    1
    33    12    31    1
    34    13    32    1
    35    14    33    1
    36    15    34    1
    37    16    35    1
    38    17    36    1
    39    17    37    1
    40    18    38    1
    41    18    39    1
