
     RDKit          3D

 39 41  0  0  0  0  0  0  0  0999 V2000
   -5.0016    0.3586    1.2568 N   0  0  0  0  0  0  0  0  0  0  0  0
   -4.2662    0.1010    0.0053 C   0  0  0  0  0  0  0  0  0  0  0  0
   -3.7953    1.3472   -0.6031 C   0  0  0  0  0  0  0  0  0  0  0  0
   -2.3405    1.6207   -0.6189 C   0  0  0  0  0  0  0  0  0  0  0  0
   -1.4512    0.4337   -0.4761 C   0  0  0  0  0  0  0  0  0  0  0  0
   -0.1131    0.8664   -0.2142 N   0  0  0  0  0  0  0  0  0  0  0  0
    0.8275   -0.2203   -0.0596 C   0  0  1  0  0  0  0  0  0  0  0  0
    1.0632   -1.1905   -1.1516 C   0  0  0  0  0  0  0  0  0  0  0  0
    2.0348   -0.0963   -0.9936 C   0  0  1  0  0  0  0  0  0  0  0  0
    2.0192    0.8759   -1.9606 F   0  0  0  0  0  0  0  0  0  0  0  0
    3.3216   -0.2797   -0.3047 C   0  0  0  0  0  0  0  0  0  0  0  0
    3.7340   -1.4717    0.2460 C   0  0  0  0  0  0  0  0  0  0  0  0
    4.9484   -1.5285    0.8629 C   0  0  0  0  0  0  0  0  0  0  0  0
    5.8036   -0.4490    0.9716 C   0  0  0  0  0  0  0  0  0  0  0  0
    5.3969    0.7491    0.4219 C   0  0  0  0  0  0  0  0  0  0  0  0
    4.1666    0.8175   -0.2062 C   0  0  0  0  0  0  0  0  0  0  0  0
   -1.9401   -0.3544    0.7442 C   0  0  0  0  0  0  0  0  0  0  0  0
   -3.2532   -0.9392    0.3098 C   0  0  0  0  0  0  0  0  0  0  0  0
   -4.2887    0.6879    1.9499 H   0  0  0  0  0  0  0  0  0  0  0  0
   -5.4094   -0.5647    1.5772 H   0  0  0  0  0  0  0  0  0  0  0  0
   -5.0412   -0.3800   -0.6636 H   0  0  0  0  0  0  0  0  0  0  0  0
   -4.3013    2.2129   -0.0796 H   0  0  0  0  0  0  0  0  0  0  0  0
   -4.1693    1.4415   -1.6660 H   0  0  0  0  0  0  0  0  0  0  0  0
   -2.0229    2.1475   -1.5642 H   0  0  0  0  0  0  0  0  0  0  0  0
   -2.0473    2.3482    0.1948 H   0  0  0  0  0  0  0  0  0  0  0  0
   -1.4847   -0.2017   -1.3851 H   0  0  0  0  0  0  0  0  0  0  0  0
   -0.1090    1.4636    0.6244 H   0  0  0  0  0  0  0  0  0  0  0  0
    0.9815   -0.5827    0.9596 H   0  0  0  0  0  0  0  0  0  0  0  0
    0.3599   -1.1426   -2.0130 H   0  0  0  0  0  0  0  0  0  0  0  0
    1.3039   -2.2371   -0.8746 H   0  0  0  0  0  0  0  0  0  0  0  0
    3.0594   -2.3159    0.1581 H   0  0  0  0  0  0  0  0  0  0  0  0
    5.2750   -2.4680    1.2976 H   0  0  0  0  0  0  0  0  0  0  0  0
    6.7747   -0.5138    1.4705 H   0  0  0  0  0  0  0  0  0  0  0  0
    6.0476    1.6269    0.4882 H   0  0  0  0  0  0  0  0  0  0  0  0
    3.8596    1.7774   -0.6372 H   0  0  0  0  0  0  0  0  0  0  0  0
   -2.0755    0.3731    1.5761 H   0  0  0  0  0  0  0  0  0  0  0  0
   -1.2076   -1.1294    0.9810 H   0  0  0  0  0  0  0  0  0  0  0  0
   -3.5991   -1.6026    1.1499 H   0  0  0  0  0  0  0  0  0  0  0  0
   -3.0602   -1.5810   -0.5825 H   0  0  0  0  0  0  0  0  0  0  0  0
  1  2  1  0
  2  3  1  0
  3  4  1  0
  4  5  1  0
  5  6  1  0
  6  7  1  0
  7  8  1  0
  8  9  1  0
  9 10  1  6
  9 11  1  0
 11 12  2  0
 12 13  1  0
 13 14  2  0
 14 15  1  0
 15 16  2  0
  5 17  1  0
 17 18  1  0
 18  2  1  0
  9  7  1  0
 16 11  1  0
  1 19  1  0
  1 20  1  0
  2 21  1  0
  3 22  1  0
  3 23  1  0
  4 24  1  0
  4 25  1  0
  5 26  1  0
  6 27  1  0
  7 28  1  1
  8 29  1  0
  8 30  1  0
 12 31  1  0
 13 32  1  0
 14 33  1  0
 15 34  1  0
 16 35  1  0
 17 36  1  0
 17 37  1  0
 18 38  1  0
 18 39  1  0
M  END
$$$$
