@<TRIPOS>MOLECULE
*****
 31 31 0 0 0
SMALL
GASTEIGER

@<TRIPOS>ATOM
      1 C          -1.9470    0.0779    1.1427 C.3     1  UNL1        0.1632
      2 N          -3.1812    0.0694    0.4019 N.3     1  UNL1       -0.3018
      3 O          -2.0000    0.9690    2.1992 O.3     1  UNL1       -0.3723
      4 C          -0.7287    0.2984    0.2624 C.3     1  UNL1        0.3065
      5 O           0.3611    0.2252    1.1230 O.3     1  UNL1       -0.3338
      6 C           1.5771    0.1706    0.5142 C.3     1  UNL1        0.1132
      7 C           2.2551    1.4980    0.2821 C.3     1  UNL1        0.0730
      8 O           2.4856    2.1789    1.4756 O.3     1  UNL1       -0.3924
      9 C           1.6415   -0.6972   -0.7249 C.3     1  UNL1        0.1119
     10 O           2.8666   -1.3321   -0.8403 O.3     1  UNL1       -0.3865
     11 C           0.4756   -1.6515   -0.5878 C.3     1  UNL1        0.1143
     12 O           0.4959   -2.7161   -1.4419 O.3     1  UNL1       -0.3864
     13 C          -0.7607   -0.7943   -0.7748 C.3     1  UNL1        0.1435
     14 O          -1.8470   -1.6497   -0.6594 O.3     1  UNL1       -0.3839
     15 N          -0.6774    1.6078   -0.3264 N.2     1  UNL1        0.1188
     16 N          -1.6009    2.1919   -0.8457 N.2     1  UNL1       -0.0115
     17 N          -2.4661    3.0268   -1.0308 N.2     1  UNL1       -0.3281
     18 H          -1.8322   -0.9377    1.5754 H       1  UNL1        0.0816
     19 H          -3.0994    0.3318   -0.5986 H       1  UNL1        0.1207
     20 H          -3.9328    0.6257    0.8350 H       1  UNL1        0.1207
     21 H          -2.0268    0.5105    3.0845 H       1  UNL1        0.2116
     22 H           2.2547   -0.3659    1.2449 H       1  UNL1        0.0647
     23 H           3.2508    1.2593   -0.1484 H       1  UNL1        0.0584
     24 H           1.6764    2.1773   -0.3570 H       1  UNL1        0.0584
     25 H           3.2970    2.7270    1.3503 H       1  UNL1        0.2095
     26 H           1.4567   -0.0414   -1.6070 H       1  UNL1        0.0647
     27 H           2.7768   -2.1803   -1.3295 H       1  UNL1        0.2100
     28 H           0.5136   -2.0285    0.4582 H       1  UNL1        0.0648
     29 H           1.0155   -2.6348   -2.2562 H       1  UNL1        0.2100
     30 H          -0.7011   -0.3029   -1.7664 H       1  UNL1        0.0673
     31 H          -1.5988   -2.6131   -0.6544 H       1  UNL1        0.2101
@<TRIPOS>UNITY_ATOM_ATTR
16 1
charge 1
17 1
charge -1
@<TRIPOS>BOND
     1     1     2    1
     2     1     3    1
     3     4     1    1
     4     4     5    1
     5     5     6    1
     6     6     7    1
     7     7     8    1
     8     6     9    1
     9     9    10    1
    10     9    11    1
    11    11    12    1
    12    11    13    1
    13    13    14    1
    14     4    15    1
    15    15    16    2
    16    16    17    2
    17    13     4    1
    18     1    18    1
    19     2    19    1
    20     2    20    1
    21     3    21    1
    22     6    22    1
    23     7    23    1
    24     7    24    1
    25     8    25    1
    26     9    26    1
    27    10    27    1
    28    11    28    1
    29    12    29    1
    30    13    30    1
    31    14    31    1
