
     RDKit          3D

 70 74  0  0  0  0  0  0  0  0999 V2000
    8.9083    3.9015    0.6319 C   0  0  0  0  0  0  0  0  0  0  0  0
    8.6177    3.2551   -0.6194 N   0  0  0  0  0  0  0  0  0  0  0  0
    7.5565    2.3197   -0.7700 C   0  0  0  0  0  0  0  0  0  0  0  0
    7.3043    1.7438   -1.9735 N   0  0  0  0  0  0  0  0  0  0  0  0
    6.2798    0.8774   -1.9929 C   0  0  0  0  0  0  0  0  0  0  0  0
    5.4971    0.5493   -0.9066 C   0  0  0  0  0  0  0  0  0  0  0  0
    4.4579   -0.3470   -0.9713 C   0  0  0  0  0  0  0  0  0  0  0  0
    3.6879   -0.6573    0.1481 C   0  0  0  0  0  0  0  0  0  0  0  0
    2.5860   -1.6065    0.0673 C   0  0  0  0  0  0  0  0  0  0  0  0
    1.3419   -1.3039    0.5719 C   0  0  0  0  0  0  0  0  0  0  0  0
    0.2655   -2.1572    0.4798 C   0  0  0  0  0  0  0  0  0  0  0  0
   -1.0495   -1.8841    1.0290 C   0  0  0  0  0  0  0  0  0  0  0  0
   -1.2142   -1.0888    2.0061 O   0  0  0  0  0  0  0  0  0  0  0  0
   -2.2212   -2.4693    0.5183 N   0  0  0  0  0  0  0  0  0  0  0  0
   -3.5109   -2.2345    1.0368 C   0  0  0  0  0  0  0  0  0  0  0  0
   -4.1538   -3.0817    1.8990 C   0  0  0  0  0  0  0  0  0  0  0  0
   -5.4130   -2.7760    2.4072 C   0  0  0  0  0  0  0  0  0  0  0  0
   -6.0702   -3.7187    3.3298 C   0  0  0  0  0  0  0  0  0  0  0  0
   -7.0941   -3.1077    4.0354 F   0  0  0  0  0  0  0  0  0  0  0  0
   -6.5190   -4.7851    2.5760 F   0  0  0  0  0  0  0  0  0  0  0  0
   -5.1004   -4.2183    4.1834 F   0  0  0  0  0  0  0  0  0  0  0  0
   -6.0462   -1.6179    2.0602 C   0  0  0  0  0  0  0  0  0  0  0  0
   -5.4021   -0.7369    1.1775 C   0  0  0  0  0  0  0  0  0  0  0  0
   -4.1560   -1.0416    0.6759 C   0  0  0  0  0  0  0  0  0  0  0  0
   -3.4356   -0.2527   -0.1860 O   0  0  0  0  0  0  0  0  0  0  0  0
   -3.9189    0.9703   -0.6471 C   0  0  0  0  0  0  0  0  0  0  0  0
   -3.5170    1.2884   -2.0774 C   0  0  0  0  0  0  0  0  0  0  0  0
   -3.3967    2.7882   -2.2848 C   0  0  0  0  0  0  0  0  0  0  0  0
   -4.3777    3.4551   -1.4542 N   0  0  0  0  0  0  0  0  0  0  0  0
   -5.7122    3.0959   -1.7914 C   0  0  0  0  0  0  0  0  0  0  0  0
   -4.0417    3.3638   -0.0506 C   0  0  0  0  0  0  0  0  0  0  0  0
   -3.3371    2.0667    0.2749 C   0  0  0  0  0  0  0  0  0  0  0  0
    0.4877   -3.3740   -0.1576 C   0  0  0  0  0  0  0  0  0  0  0  0
    1.7166   -3.7359   -0.6826 C   0  0  0  0  0  0  0  0  0  0  0  0
    2.7627   -2.8180   -0.5532 C   0  0  0  0  0  0  0  0  0  0  0  0
    4.0718   -3.2061   -1.0928 C   0  0  0  0  0  0  0  0  0  0  0  0
    4.0278   -0.0173    1.3217 C   0  0  0  0  0  0  0  0  0  0  0  0
    5.0591    0.8825    1.4128 C   0  0  0  0  0  0  0  0  0  0  0  0
    5.7891    1.1580    0.2820 C   0  0  0  0  0  0  0  0  0  0  0  0
    6.8128    2.0276    0.3222 N   0  0  0  0  0  0  0  0  0  0  0  0
    9.2942    4.9210    0.4097 H   0  0  0  0  0  0  0  0  0  0  0  0
    9.7162    3.3347    1.1836 H   0  0  0  0  0  0  0  0  0  0  0  0
    8.0167    3.9625    1.2981 H   0  0  0  0  0  0  0  0  0  0  0  0
    9.2365    3.5008   -1.4462 H   0  0  0  0  0  0  0  0  0  0  0  0
    6.0528    0.3980   -2.9339 H   0  0  0  0  0  0  0  0  0  0  0  0
    4.2140   -0.8311   -1.9102 H   0  0  0  0  0  0  0  0  0  0  0  0
    1.1731   -0.3481    1.0681 H   0  0  0  0  0  0  0  0  0  0  0  0
   -2.1012   -3.1213   -0.3088 H   0  0  0  0  0  0  0  0  0  0  0  0
   -3.6615   -4.0236    2.1902 H   0  0  0  0  0  0  0  0  0  0  0  0
   -7.0169   -1.3211    2.4221 H   0  0  0  0  0  0  0  0  0  0  0  0
   -5.9106    0.1860    0.9056 H   0  0  0  0  0  0  0  0  0  0  0  0
   -5.0053    1.0654   -0.5403 H   0  0  0  0  0  0  0  0  0  0  0  0
   -2.4819    0.8783   -2.2561 H   0  0  0  0  0  0  0  0  0  0  0  0
   -4.2351    0.9016   -2.8113 H   0  0  0  0  0  0  0  0  0  0  0  0
   -3.6209    3.0019   -3.3331 H   0  0  0  0  0  0  0  0  0  0  0  0
   -2.4044    3.1223   -1.9530 H   0  0  0  0  0  0  0  0  0  0  0  0
   -6.1462    3.9403   -2.3861 H   0  0  0  0  0  0  0  0  0  0  0  0
   -5.7401    2.2276   -2.5007 H   0  0  0  0  0  0  0  0  0  0  0  0
   -6.3987    2.9368   -0.9577 H   0  0  0  0  0  0  0  0  0  0  0  0
   -4.9293    3.5482    0.5477 H   0  0  0  0  0  0  0  0  0  0  0  0
   -3.3025    4.1739    0.1420 H   0  0  0  0  0  0  0  0  0  0  0  0
   -3.5642    1.7890    1.3020 H   0  0  0  0  0  0  0  0  0  0  0  0
   -2.2644    2.1192    0.0505 H   0  0  0  0  0  0  0  0  0  0  0  0
   -0.3054   -4.0944   -0.2693 H   0  0  0  0  0  0  0  0  0  0  0  0
    1.8653   -4.6927   -1.1732 H   0  0  0  0  0  0  0  0  0  0  0  0
    4.9383   -2.7167   -0.6464 H   0  0  0  0  0  0  0  0  0  0  0  0
    4.2422   -4.3100   -0.8855 H   0  0  0  0  0  0  0  0  0  0  0  0
    4.0610   -3.1788   -2.2185 H   0  0  0  0  0  0  0  0  0  0  0  0
    3.4383   -0.2499    2.1948 H   0  0  0  0  0  0  0  0  0  0  0  0
    5.2966    1.3732    2.3542 H   0  0  0  0  0  0  0  0  0  0  0  0
  1  2  1  0
  2  3  1  0
  3  4  2  0
  4  5  1  0
  5  6  2  0
  6  7  1  0
  7  8  2  0
  8  9  1  0
  9 10  2  0
 10 11  1  0
 11 12  1  0
 12 13  2  0
 12 14  1  0
 14 15  1  0
 15 16  2  0
 16 17  1  0
 17 18  1  0
 18 19  1  0
 18 20  1  0
 18 21  1  0
 17 22  2  0
 22 23  1  0
 23 24  2  0
 24 25  1  0
 25 26  1  0
 26 27  1  0
 27 28  1  0
 28 29  1  0
 29 30  1  0
 29 31  1  0
 31 32  1  0
 11 33  2  0
 33 34  1  0
 34 35  2  0
 35 36  1  0
  8 37  1  0
 37 38  2  0
 38 39  1  0
 39 40  2  0
 40  3  1  0
 39  6  1  0
 35  9  1  0
 24 15  1  0
 32 26  1  0
  1 41  1  0
  1 42  1  0
  1 43  1  0
  2 44  1  0
  5 45  1  0
  7 46  1  0
 10 47  1  0
 14 48  1  0
 16 49  1  0
 22 50  1  0
 23 51  1  0
 26 52  1  0
 27 53  1  0
 27 54  1  0
 28 55  1  0
 28 56  1  0
 30 57  1  0
 30 58  1  0
 30 59  1  0
 31 60  1  0
 31 61  1  0
 32 62  1  0
 32 63  1  0
 33 64  1  0
 34 65  1  0
 36 66  1  0
 36 67  1  0
 36 68  1  0
 37 69  1  0
 38 70  1  0
M  END
$$$$
