@<TRIPOS>MOLECULE
*****
 70 74 0 0 0
SMALL
GASTEIGER

@<TRIPOS>ATOM
      1 C           8.9083    3.9015    0.6319 C.3     1  UNL1        0.0003
      2 N           8.6177    3.2551   -0.6194 N.pl3   1  UNL1       -0.3165
      3 C           7.5565    2.3197   -0.7700 C.ar    1  UNL1        0.2155
      4 N           7.3043    1.7438   -1.9735 N.ar    1  UNL1       -0.2223
      5 C           6.2798    0.8774   -1.9929 C.ar    1  UNL1        0.0404
      6 C           5.4971    0.5493   -0.9066 C.ar    1  UNL1        0.0192
      7 C           4.4579   -0.3470   -0.9713 C.ar    1  UNL1       -0.0434
      8 C           3.6879   -0.6573    0.1481 C.ar    1  UNL1       -0.0169
      9 C           2.5860   -1.6065    0.0673 C.ar    1  UNL1       -0.0142
     10 C           1.3419   -1.3039    0.5719 C.ar    1  UNL1       -0.0416
     11 C           0.2655   -2.1572    0.4798 C.ar    1  UNL1        0.0376
     12 C          -1.0495   -1.8841    1.0290 C.2     1  UNL1        0.2484
     13 O          -1.2142   -1.0888    2.0061 O.2     1  UNL1       -0.2699
     14 N          -2.2212   -2.4693    0.5183 N.am    1  UNL1       -0.2785
     15 C          -3.5109   -2.2345    1.0368 C.ar    1  UNL1        0.0764
     16 C          -4.1538   -3.0817    1.8990 C.ar    1  UNL1       -0.0253
     17 C          -5.4130   -2.7760    2.4072 C.ar    1  UNL1        0.0568
     18 C          -6.0702   -3.7187    3.3298 C.3     1  UNL1        0.4175
     19 F          -7.0941   -3.1077    4.0354 F       1  UNL1       -0.1659
     20 F          -6.5190   -4.7851    2.5760 F       1  UNL1       -0.1659
     21 F          -5.1004   -4.2183    4.1834 F       1  UNL1       -0.1659
     22 C          -6.0462   -1.6179    2.0602 C.ar    1  UNL1       -0.0465
     23 C          -5.4021   -0.7369    1.1775 C.ar    1  UNL1       -0.0175
     24 C          -4.1560   -1.0416    0.6759 C.ar    1  UNL1        0.1420
     25 O          -3.4356   -0.2527   -0.1860 O.3     1  UNL1       -0.4869
     26 C          -3.9189    0.9703   -0.6471 C.3     1  UNL1        0.1026
     27 C          -3.5170    1.2884   -2.0774 C.3     1  UNL1       -0.0029
     28 C          -3.3967    2.7882   -2.2848 C.3     1  UNL1        0.0019
     29 N          -4.3777    3.4551   -1.4542 N.3     1  UNL1       -0.3051
     30 C          -5.7122    3.0959   -1.7914 C.3     1  UNL1       -0.0128
     31 C          -4.0417    3.3638   -0.0506 C.3     1  UNL1        0.0019
     32 C          -3.3371    2.0667    0.2749 C.3     1  UNL1       -0.0029
     33 C           0.4877   -3.3740   -0.1576 C.ar    1  UNL1       -0.0493
     34 C           1.7166   -3.7359   -0.6826 C.ar    1  UNL1       -0.0575
     35 C           2.7627   -2.8180   -0.5532 C.ar    1  UNL1       -0.0427
     36 C           4.0718   -3.2061   -1.0928 C.3     1  UNL1       -0.0391
     37 C           4.0278   -0.0173    1.3217 C.ar    1  UNL1       -0.0520
     38 C           5.0591    0.8825    1.4128 C.ar    1  UNL1       -0.0350
     39 C           5.7891    1.1580    0.2820 C.ar    1  UNL1        0.0761
     40 N           6.8128    2.0276    0.3222 N.ar    1  UNL1       -0.2145
     41 H           9.2942    4.9210    0.4097 H       1  UNL1        0.0426
     42 H           9.7162    3.3347    1.1836 H       1  UNL1        0.0426
     43 H           8.0167    3.9625    1.2981 H       1  UNL1        0.0426
     44 H           9.2365    3.5008   -1.4462 H       1  UNL1        0.1486
     45 H           6.0528    0.3980   -2.9339 H       1  UNL1        0.0837
     46 H           4.2140   -0.8311   -1.9102 H       1  UNL1        0.0631
     47 H           1.1731   -0.3481    1.0681 H       1  UNL1        0.0631
     48 H          -2.1012   -3.1213   -0.3088 H       1  UNL1        0.1552
     49 H          -3.6615   -4.0236    2.1902 H       1  UNL1        0.0643
     50 H          -7.0169   -1.3211    2.4221 H       1  UNL1        0.0624
     51 H          -5.9106    0.1860    0.9056 H       1  UNL1        0.0655
     52 H          -5.0053    1.0654   -0.5403 H       1  UNL1        0.0733
     53 H          -2.4819    0.8783   -2.2561 H       1  UNL1        0.0313
     54 H          -4.2351    0.9016   -2.8113 H       1  UNL1        0.0313
     55 H          -3.6209    3.0019   -3.3331 H       1  UNL1        0.0428
     56 H          -2.4044    3.1223   -1.9530 H       1  UNL1        0.0428
     57 H          -6.1462    3.9403   -2.3861 H       1  UNL1        0.0391
     58 H          -5.7401    2.2276   -2.5007 H       1  UNL1        0.0391
     59 H          -6.3987    2.9368   -0.9577 H       1  UNL1        0.0391
     60 H          -4.9293    3.5482    0.5477 H       1  UNL1        0.0428
     61 H          -3.3025    4.1739    0.1420 H       1  UNL1        0.0428
     62 H          -3.5642    1.7890    1.3020 H       1  UNL1        0.0313
     63 H          -2.2644    2.1192    0.0505 H       1  UNL1        0.0313
     64 H          -0.3054   -4.0944   -0.2693 H       1  UNL1        0.0625
     65 H           1.8653   -4.6927   -1.1732 H       1  UNL1        0.0621
     66 H           4.9383   -2.7167   -0.6464 H       1  UNL1        0.0278
     67 H           4.2422   -4.3100   -0.8855 H       1  UNL1        0.0278
     68 H           4.0610   -3.1788   -2.2185 H       1  UNL1        0.0278
     69 H           3.4383   -0.2499    2.1948 H       1  UNL1        0.0624
     70 H           5.2966    1.3732    2.3542 H       1  UNL1        0.0639
@<TRIPOS>BOND
     1     1     2    1
     2     2     3    1
     3     3     4   ar
     4     4     5   ar
     5     5     6   ar
     6     6     7   ar
     7     7     8   ar
     8     8     9    1
     9     9    10   ar
    10    10    11   ar
    11    11    12    1
    12    12    13    2
    13    12    14   am
    14    14    15    1
    15    15    16   ar
    16    16    17   ar
    17    17    18    1
    18    18    19    1
    19    18    20    1
    20    18    21    1
    21    17    22   ar
    22    22    23   ar
    23    23    24   ar
    24    24    25    1
    25    25    26    1
    26    26    27    1
    27    27    28    1
    28    28    29    1
    29    29    30    1
    30    29    31    1
    31    31    32    1
    32    11    33   ar
    33    33    34   ar
    34    34    35   ar
    35    35    36    1
    36     8    37   ar
    37    37    38   ar
    38    38    39   ar
    39    39    40   ar
    40    40     3   ar
    41    39     6   ar
    42    35     9   ar
    43    24    15   ar
    44    32    26    1
    45     1    41    1
    46     1    42    1
    47     1    43    1
    48     2    44    1
    49     5    45    1
    50     7    46    1
    51    10    47    1
    52    14    48    1
    53    16    49    1
    54    22    50    1
    55    23    51    1
    56    26    52    1
    57    27    53    1
    58    27    54    1
    59    28    55    1
    60    28    56    1
    61    30    57    1
    62    30    58    1
    63    30    59    1
    64    31    60    1
    65    31    61    1
    66    32    62    1
    67    32    63    1
    68    33    64    1
    69    34    65    1
    70    36    66    1
    71    36    67    1
    72    36    68    1
    73    37    69    1
    74    38    70    1
