@<TRIPOS>MOLECULE
*****
 48 51 0 0 0
SMALL
GASTEIGER

@<TRIPOS>ATOM
      1 C          -1.9438   -1.0068   -1.1711 C.3     1  UNL1        0.0093
      2 N          -1.7559   -0.1110   -0.0769 N.3     1  UNL1       -0.1763
      3 C          -0.4255   -0.0916    0.4578 C.3     1  UNL1        0.0360
      4 C           0.1787    1.2572    0.1433 C.3     1  UNL1       -0.0300
      5 C           1.5704    1.4074    0.6485 C.3     1  UNL1       -0.0104
      6 C           2.4018    0.2574    0.2909 C.ar    1  UNL1        0.0266
      7 C           1.8662   -0.9621    0.0246 C.ar    1  UNL1        0.0025
      8 C           2.9351   -1.7857   -0.2684 C.ar    1  UNL1        0.1110
      9 N           3.0714   -3.0891   -0.6091 N.ar    1  UNL1       -0.2501
     10 C           4.2720   -3.6486   -0.8456 C.ar    1  UNL1        0.0465
     11 C           5.4113   -2.9105   -0.7489 C.ar    1  UNL1        0.0480
     12 N           5.2909   -1.5950   -0.4064 N.ar    1  UNL1       -0.2343
     13 C           4.0941   -1.0447   -0.1725 C.ar    1  UNL1        0.1601
     14 N           3.7614    0.2071    0.1706 N.ar    1  UNL1       -0.3168
     15 C           4.6784    1.3247    0.3810 C.3     1  UNL1        0.1218
     16 C           4.8948    2.0542   -0.8779 C.2     1  UNL1        0.3247
     17 O           4.3217    1.6777   -1.9136 O.2     1  UNL1       -0.2490
     18 O           5.7291    3.1527   -0.9156 O.3     1  UNL1       -0.4794
     19 C           0.4217   -1.2381    0.0692 C.3     1  UNL1       -0.0066
     20 S          -2.9850   -0.1591    1.1024 S.O2    1  UNL1        0.0609
     21 O          -2.6459    0.8531    2.1682 O.2     1  UNL1       -0.1528
     22 O          -3.0686   -1.4937    1.7851 O.2     1  UNL1       -0.1528
     23 C          -4.5096    0.2963    0.3893 C.ar    1  UNL1        0.1056
     24 C          -5.3301   -0.6581   -0.1635 C.ar    1  UNL1       -0.0326
     25 C          -6.5409   -0.2519   -0.7236 C.ar    1  UNL1       -0.0246
     26 C          -6.9520    1.0632   -0.7478 C.ar    1  UNL1        0.1235
     27 F          -8.1543    1.4118   -1.3117 F       1  UNL1       -0.2055
     28 C          -6.1168    2.0074   -0.1889 C.ar    1  UNL1       -0.0246
     29 C          -4.8981    1.6148    0.3771 C.ar    1  UNL1       -0.0326
     30 H          -2.9869   -0.8902   -1.5316 H       1  UNL1        0.0408
     31 H          -1.2916   -0.6856   -2.0035 H       1  UNL1        0.0408
     32 H          -1.8266   -2.0693   -0.8947 H       1  UNL1        0.0408
     33 H          -0.5406   -0.1144    1.5826 H       1  UNL1        0.0483
     34 H           0.1463    1.4426   -0.9480 H       1  UNL1        0.0285
     35 H          -0.4448    2.0481    0.6091 H       1  UNL1        0.0285
     36 H           2.0029    2.3139    0.1310 H       1  UNL1        0.0328
     37 H           1.6177    1.6635    1.7316 H       1  UNL1        0.0328
     38 H           4.3776   -4.7001   -1.1201 H       1  UNL1        0.0845
     39 H           6.3704   -3.3611   -0.9387 H       1  UNL1        0.0846
     40 H           5.6450    0.9762    0.8222 H       1  UNL1        0.0608
     41 H           4.2221    2.0272    1.1042 H       1  UNL1        0.0608
     42 H           5.6596    3.8788   -1.6290 H       1  UNL1        0.2951
     43 H           0.1952   -2.1246    0.7381 H       1  UNL1        0.0330
     44 H           0.1687   -1.6496   -0.9550 H       1  UNL1        0.0330
     45 H          -5.0296   -1.7051   -0.1578 H       1  UNL1        0.0638
     46 H          -7.2210   -0.9889   -1.1742 H       1  UNL1        0.0647
     47 H          -6.4011    3.0536   -0.1865 H       1  UNL1        0.0647
     48 H          -4.2357    2.3458    0.8178 H       1  UNL1        0.0638
@<TRIPOS>BOND
     1     1     2    1
     2     2     3    1
     3     3     4    1
     4     4     5    1
     5     5     6    1
     6     6     7   ar
     7     7     8   ar
     8     8     9   ar
     9     9    10   ar
    10    10    11   ar
    11    11    12   ar
    12    12    13   ar
    13    13    14   ar
    14    14    15    1
    15    15    16    1
    16    16    17    2
    17    16    18    1
    18     7    19    1
    19     2    20    1
    20    20    21    2
    21    20    22    2
    22    20    23    1
    23    23    24   ar
    24    24    25   ar
    25    25    26   ar
    26    26    27    1
    27    26    28   ar
    28    28    29   ar
    29    19     3    1
    30    29    23   ar
    31    14     6   ar
    32    13     8   ar
    33     1    30    1
    34     1    31    1
    35     1    32    1
    36     3    33    1
    37     4    34    1
    38     4    35    1
    39     5    36    1
    40     5    37    1
    41    10    38    1
    42    11    39    1
    43    15    40    1
    44    15    41    1
    45    18    42    1
    46    19    43    1
    47    19    44    1
    48    24    45    1
    49    25    46    1
    50    28    47    1
    51    29    48    1
