
     RDKit          3D

 48 51  0  0  0  0  0  0  0  0999 V2000
   -1.9438   -1.0068   -1.1711 C   0  0  0  0  0  0  0  0  0  0  0  0
   -1.7559   -0.1110   -0.0769 N   0  0  0  0  0  0  0  0  0  0  0  0
   -0.4255   -0.0916    0.4578 C   0  0  2  0  0  0  0  0  0  0  0  0
    0.1787    1.2572    0.1433 C   0  0  0  0  0  0  0  0  0  0  0  0
    1.5704    1.4074    0.6485 C   0  0  0  0  0  0  0  0  0  0  0  0
    2.4018    0.2574    0.2909 C   0  0  0  0  0  0  0  0  0  0  0  0
    1.8662   -0.9621    0.0246 C   0  0  0  0  0  0  0  0  0  0  0  0
    2.9351   -1.7857   -0.2684 C   0  0  0  0  0  0  0  0  0  0  0  0
    3.0714   -3.0891   -0.6091 N   0  0  0  0  0  0  0  0  0  0  0  0
    4.2720   -3.6486   -0.8456 C   0  0  0  0  0  0  0  0  0  0  0  0
    5.4113   -2.9105   -0.7489 C   0  0  0  0  0  0  0  0  0  0  0  0
    5.2909   -1.5950   -0.4064 N   0  0  0  0  0  0  0  0  0  0  0  0
    4.0941   -1.0447   -0.1725 C   0  0  0  0  0  0  0  0  0  0  0  0
    3.7614    0.2071    0.1706 N   0  0  0  0  0  0  0  0  0  0  0  0
    4.6784    1.3247    0.3810 C   0  0  0  0  0  0  0  0  0  0  0  0
    4.8948    2.0542   -0.8779 C   0  0  0  0  0  0  0  0  0  0  0  0
    4.3217    1.6777   -1.9136 O   0  0  0  0  0  0  0  0  0  0  0  0
    5.7291    3.1527   -0.9156 O   0  0  0  0  0  0  0  0  0  0  0  0
    0.4217   -1.2381    0.0692 C   0  0  0  0  0  0  0  0  0  0  0  0
   -2.9850   -0.1591    1.1024 S   0  0  0  0  0  6  0  0  0  0  0  0
   -2.6459    0.8531    2.1682 O   0  0  0  0  0  0  0  0  0  0  0  0
   -3.0686   -1.4937    1.7851 O   0  0  0  0  0  0  0  0  0  0  0  0
   -4.5096    0.2963    0.3893 C   0  0  0  0  0  0  0  0  0  0  0  0
   -5.3301   -0.6581   -0.1635 C   0  0  0  0  0  0  0  0  0  0  0  0
   -6.5409   -0.2519   -0.7236 C   0  0  0  0  0  0  0  0  0  0  0  0
   -6.9520    1.0632   -0.7478 C   0  0  0  0  0  0  0  0  0  0  0  0
   -8.1543    1.4118   -1.3117 F   0  0  0  0  0  0  0  0  0  0  0  0
   -6.1168    2.0074   -0.1889 C   0  0  0  0  0  0  0  0  0  0  0  0
   -4.8981    1.6148    0.3771 C   0  0  0  0  0  0  0  0  0  0  0  0
   -2.9869   -0.8902   -1.5316 H   0  0  0  0  0  0  0  0  0  0  0  0
   -1.2916   -0.6856   -2.0035 H   0  0  0  0  0  0  0  0  0  0  0  0
   -1.8266   -2.0693   -0.8947 H   0  0  0  0  0  0  0  0  0  0  0  0
   -0.5406   -0.1144    1.5826 H   0  0  0  0  0  0  0  0  0  0  0  0
    0.1463    1.4426   -0.9480 H   0  0  0  0  0  0  0  0  0  0  0  0
   -0.4448    2.0481    0.6091 H   0  0  0  0  0  0  0  0  0  0  0  0
    2.0029    2.3139    0.1310 H   0  0  0  0  0  0  0  0  0  0  0  0
    1.6177    1.6635    1.7316 H   0  0  0  0  0  0  0  0  0  0  0  0
    4.3776   -4.7001   -1.1201 H   0  0  0  0  0  0  0  0  0  0  0  0
    6.3704   -3.3611   -0.9387 H   0  0  0  0  0  0  0  0  0  0  0  0
    5.6450    0.9762    0.8222 H   0  0  0  0  0  0  0  0  0  0  0  0
    4.2221    2.0272    1.1042 H   0  0  0  0  0  0  0  0  0  0  0  0
    5.6596    3.8788   -1.6290 H   0  0  0  0  0  0  0  0  0  0  0  0
    0.1952   -2.1246    0.7381 H   0  0  0  0  0  0  0  0  0  0  0  0
    0.1687   -1.6496   -0.9550 H   0  0  0  0  0  0  0  0  0  0  0  0
   -5.0296   -1.7051   -0.1578 H   0  0  0  0  0  0  0  0  0  0  0  0
   -7.2210   -0.9889   -1.1742 H   0  0  0  0  0  0  0  0  0  0  0  0
   -6.4011    3.0536   -0.1865 H   0  0  0  0  0  0  0  0  0  0  0  0
   -4.2357    2.3458    0.8178 H   0  0  0  0  0  0  0  0  0  0  0  0
  1  2  1  0
  2  3  1  0
  3  4  1  0
  4  5  1  0
  5  6  1  0
  6  7  2  0
  7  8  1  0
  8  9  2  0
  9 10  1  0
 10 11  2  0
 11 12  1  0
 12 13  2  0
 13 14  1  0
 14 15  1  0
 15 16  1  0
 16 17  2  0
 16 18  1  0
  7 19  1  0
  2 20  1  0
 20 21  2  0
 20 22  2  0
 20 23  1  0
 23 24  2  0
 24 25  1  0
 25 26  2  0
 26 27  1  0
 26 28  1  0
 28 29  2  0
 19  3  1  0
 29 23  1  0
 14  6  1  0
 13  8  1  0
  1 30  1  0
  1 31  1  0
  1 32  1  0
  3 33  1  1
  4 34  1  0
  4 35  1  0
  5 36  1  0
  5 37  1  0
 10 38  1  0
 11 39  1  0
 15 40  1  0
 15 41  1  0
 18 42  1  0
 19 43  1  0
 19 44  1  0
 24 45  1  0
 25 46  1  0
 28 47  1  0
 29 48  1  0
M  END
$$$$
