
     RDKit          3D

 53 57  0  0  0  0  0  0  0  0999 V2000
    3.1631    4.2919   -1.9905 C   0  0  0  0  0  0  0  0  0  0  0  0
    3.3570    3.0479   -1.1623 C   0  0  0  0  0  0  0  0  0  0  0  0
    2.4927    1.8968   -1.6741 C   0  0  0  0  0  0  0  0  0  0  0  0
    2.7657    0.7229   -0.7729 C   0  0  0  0  0  0  0  0  0  0  0  0
    3.7344   -0.2093   -0.9737 N   0  0  0  0  0  0  0  0  0  0  0  0
    3.7191   -1.0999    0.0168 C   0  0  0  0  0  0  0  0  0  0  0  0
    4.5169   -2.2080    0.2193 C   0  0  0  0  0  0  0  0  0  0  0  0
    5.5814   -2.5509   -0.7475 C   0  0  0  0  0  0  0  0  0  0  0  0
    4.2621   -2.9539    1.3488 C   0  0  0  0  0  0  0  0  0  0  0  0
    3.2450   -2.5835    2.2231 C   0  0  0  0  0  0  0  0  0  0  0  0
    2.5038   -1.4928    1.9688 N   0  0  0  0  0  0  0  0  0  0  0  0
    2.7210   -0.7370    0.8753 C   0  0  0  0  0  0  0  0  0  0  0  0
    2.1568    0.3789    0.3662 N   0  0  0  0  0  0  0  0  0  0  0  0
    1.0653    1.0691    1.0167 C   0  0  0  0  0  0  0  0  0  0  0  0
   -0.2672    0.5463    0.6748 C   0  0  0  0  0  0  0  0  0  0  0  0
   -1.0559    0.9269   -0.3601 C   0  0  0  0  0  0  0  0  0  0  0  0
   -2.2978    0.3438   -0.5704 C   0  0  0  0  0  0  0  0  0  0  0  0
   -2.7973   -0.6442    0.2507 C   0  0  0  0  0  0  0  0  0  0  0  0
   -4.1054   -1.2314   -0.0633 C   0  0  0  0  0  0  0  0  0  0  0  0
   -4.1212   -2.5541   -0.5606 C   0  0  0  0  0  0  0  0  0  0  0  0
   -5.2712   -3.1910   -0.9407 C   0  0  0  0  0  0  0  0  0  0  0  0
   -6.4203   -2.4980   -0.8231 N   0  0  0  0  0  0  0  0  0  0  0  0
   -6.4581   -1.2486   -0.3588 C   0  0  0  0  0  0  0  0  0  0  0  0
   -5.2865   -0.5860    0.0350 C   0  0  0  0  0  0  0  0  0  0  0  0
   -5.3788    0.7507    0.6073 C   0  0  0  0  0  0  0  0  0  0  0  0
   -6.5143    1.5011    0.4332 N   0  0  0  0  0  0  0  0  0  0  0  0
   -6.3795    2.6870    0.9844 N   0  0  0  0  0  0  0  0  0  0  0  0
   -5.1752    2.7044    1.5079 N   0  0  0  0  0  0  0  0  0  0  0  0
   -4.5702    1.5370    1.2818 N   0  0  0  0  0  0  0  0  0  0  0  0
   -2.0014   -1.0284    1.2971 C   0  0  0  0  0  0  0  0  0  0  0  0
   -0.7589   -0.4587    1.5227 C   0  0  0  0  0  0  0  0  0  0  0  0
    3.0354    5.1738   -1.2996 H   0  0  0  0  0  0  0  0  0  0  0  0
    4.0459    4.5498   -2.6095 H   0  0  0  0  0  0  0  0  0  0  0  0
    2.2726    4.2336   -2.6588 H   0  0  0  0  0  0  0  0  0  0  0  0
    4.4364    2.7693   -1.1982 H   0  0  0  0  0  0  0  0  0  0  0  0
    3.1194    3.2242   -0.0865 H   0  0  0  0  0  0  0  0  0  0  0  0
    2.8977    1.6285   -2.6663 H   0  0  0  0  0  0  0  0  0  0  0  0
    1.4458    2.1618   -1.7189 H   0  0  0  0  0  0  0  0  0  0  0  0
    5.5155   -3.6438   -1.0320 H   0  0  0  0  0  0  0  0  0  0  0  0
    5.4603   -1.9983   -1.6814 H   0  0  0  0  0  0  0  0  0  0  0  0
    6.5953   -2.4041   -0.3430 H   0  0  0  0  0  0  0  0  0  0  0  0
    4.8561   -3.8435    1.5690 H   0  0  0  0  0  0  0  0  0  0  0  0
    3.1023   -3.2223    3.0947 H   0  0  0  0  0  0  0  0  0  0  0  0
    1.1276    2.1371    0.7491 H   0  0  0  0  0  0  0  0  0  0  0  0
    1.2105    1.0191    2.1334 H   0  0  0  0  0  0  0  0  0  0  0  0
   -0.7271    1.6984   -1.0305 H   0  0  0  0  0  0  0  0  0  0  0  0
   -2.8882    0.6750   -1.4011 H   0  0  0  0  0  0  0  0  0  0  0  0
   -3.1661   -3.0757   -0.6375 H   0  0  0  0  0  0  0  0  0  0  0  0
   -5.2278   -4.2043   -1.3147 H   0  0  0  0  0  0  0  0  0  0  0  0
   -7.4015   -0.7066   -0.2730 H   0  0  0  0  0  0  0  0  0  0  0  0
   -3.6219    1.2953    1.6118 H   0  0  0  0  0  0  0  0  0  0  0  0
   -2.3488   -1.8035    1.9724 H   0  0  0  0  0  0  0  0  0  0  0  0
   -0.1643   -0.7931    2.3633 H   0  0  0  0  0  0  0  0  0  0  0  0
  1  2  1  0
  2  3  1  0
  3  4  1  0
  4  5  2  0
  5  6  1  0
  6  7  2  0
  7  8  1  0
  7  9  1  0
  9 10  2  0
 10 11  1  0
 11 12  2  0
 12 13  1  0
 13 14  1  0
 14 15  1  0
 15 16  2  0
 16 17  1  0
 17 18  2  0
 18 19  1  0
 19 20  2  0
 20 21  1  0
 21 22  2  0
 22 23  1  0
 23 24  2  0
 24 25  1  0
 25 26  2  0
 26 27  1  0
 27 28  2  0
 28 29  1  0
 18 30  1  0
 30 31  2  0
 13  4  1  0
 31 15  1  0
 12  6  1  0
 24 19  1  0
 29 25  1  0
  1 32  1  0
  1 33  1  0
  1 34  1  0
  2 35  1  0
  2 36  1  0
  3 37  1  0
  3 38  1  0
  8 39  1  0
  8 40  1  0
  8 41  1  0
  9 42  1  0
 10 43  1  0
 14 44  1  0
 14 45  1  0
 16 46  1  0
 17 47  1  0
 20 48  1  0
 21 49  1  0
 23 50  1  0
 29 51  1  0
 30 52  1  0
 31 53  1  0
M  END
$$$$
