@<TRIPOS>MOLECULE
*****
 53 57 0 0 0
SMALL
GASTEIGER

@<TRIPOS>ATOM
      1 C           3.1631    4.2919   -1.9905 C.3     1  UNL1       -0.0649
      2 C           3.3570    3.0479   -1.1623 C.3     1  UNL1       -0.0491
      3 C           2.4927    1.8968   -1.6741 C.3     1  UNL1        0.0054
      4 C           2.7657    0.7229   -0.7729 C.ar    1  UNL1        0.1122
      5 N           3.7344   -0.2093   -0.9737 N.ar    1  UNL1       -0.2304
      6 C           3.7191   -1.0999    0.0168 C.ar    1  UNL1        0.1111
      7 C           4.5169   -2.2080    0.2193 C.ar    1  UNL1       -0.0200
      8 C           5.5814   -2.5509   -0.7475 C.3     1  UNL1       -0.0375
      9 C           4.2621   -2.9539    1.3488 C.ar    1  UNL1       -0.0385
     10 C           3.2450   -2.5835    2.2231 C.ar    1  UNL1        0.0303
     11 N           2.5038   -1.4928    1.9688 N.ar    1  UNL1       -0.2357
     12 C           2.7210   -0.7370    0.8753 C.ar    1  UNL1        0.1610
     13 N           2.1568    0.3789    0.3662 N.ar    1  UNL1       -0.3081
     14 C           1.0653    1.0691    1.0167 C.3     1  UNL1        0.0513
     15 C          -0.2672    0.5463    0.6748 C.ar    1  UNL1       -0.0276
     16 C          -1.0559    0.9269   -0.3601 C.ar    1  UNL1       -0.0563
     17 C          -2.2978    0.3438   -0.5704 C.ar    1  UNL1       -0.0537
     18 C          -2.7973   -0.6442    0.2507 C.ar    1  UNL1       -0.0171
     19 C          -4.1054   -1.2314   -0.0633 C.ar    1  UNL1       -0.0043
     20 C          -4.1212   -2.5541   -0.5606 C.ar    1  UNL1       -0.0352
     21 C          -5.2712   -3.1910   -0.9407 C.ar    1  UNL1        0.0282
     22 N          -6.4203   -2.4980   -0.8231 N.ar    1  UNL1       -0.2625
     23 C          -6.4581   -1.2486   -0.3588 C.ar    1  UNL1        0.0389
     24 C          -5.2865   -0.5860    0.0350 C.ar    1  UNL1        0.0462
     25 C          -5.3788    0.7507    0.6073 C.ar    1  UNL1        0.1814
     26 N          -6.5143    1.5011    0.4332 N.ar    1  UNL1       -0.1083
     27 N          -6.3795    2.6870    0.9844 N.ar    1  UNL1       -0.0229
     28 N          -5.1752    2.7044    1.5079 N.ar    1  UNL1       -0.0464
     29 N          -4.5702    1.5370    1.2818 N.ar    1  UNL1       -0.2388
     30 C          -2.0014   -1.0284    1.2971 C.ar    1  UNL1       -0.0537
     31 C          -0.7589   -0.4587    1.5227 C.ar    1  UNL1       -0.0563
     32 H           3.0354    5.1738   -1.2996 H       1  UNL1        0.0230
     33 H           4.0459    4.5498   -2.6095 H       1  UNL1        0.0230
     34 H           2.2726    4.2336   -2.6588 H       1  UNL1        0.0230
     35 H           4.4364    2.7693   -1.1982 H       1  UNL1        0.0267
     36 H           3.1194    3.2242   -0.0865 H       1  UNL1        0.0267
     37 H           2.8977    1.6285   -2.6663 H       1  UNL1        0.0343
     38 H           1.4458    2.1618   -1.7189 H       1  UNL1        0.0343
     39 H           5.5155   -3.6438   -1.0320 H       1  UNL1        0.0278
     40 H           5.4603   -1.9983   -1.6814 H       1  UNL1        0.0278
     41 H           6.5953   -2.4041   -0.3430 H       1  UNL1        0.0278
     42 H           4.8561   -3.8435    1.5690 H       1  UNL1        0.0636
     43 H           3.1023   -3.2223    3.0947 H       1  UNL1        0.0830
     44 H           1.1276    2.1371    0.7491 H       1  UNL1        0.0542
     45 H           1.2105    1.0191    2.1334 H       1  UNL1        0.0542
     46 H          -0.7271    1.6984   -1.0305 H       1  UNL1        0.0621
     47 H          -2.8882    0.6750   -1.4011 H       1  UNL1        0.0624
     48 H          -3.1661   -3.0757   -0.6375 H       1  UNL1        0.0639
     49 H          -5.2278   -4.2043   -1.3147 H       1  UNL1        0.0830
     50 H          -7.4015   -0.7066   -0.2730 H       1  UNL1        0.0837
     51 H          -3.6219    1.2953    1.6118 H       1  UNL1        0.1923
     52 H          -2.3488   -1.8035    1.9724 H       1  UNL1        0.0624
     53 H          -0.1643   -0.7931    2.3633 H       1  UNL1        0.0621
@<TRIPOS>BOND
     1     1     2    1
     2     2     3    1
     3     3     4    1
     4     4     5   ar
     5     5     6   ar
     6     6     7   ar
     7     7     8    1
     8     7     9   ar
     9     9    10   ar
    10    10    11   ar
    11    11    12   ar
    12    12    13   ar
    13    13    14    1
    14    14    15    1
    15    15    16   ar
    16    16    17   ar
    17    17    18   ar
    18    18    19    1
    19    19    20   ar
    20    20    21   ar
    21    21    22   ar
    22    22    23   ar
    23    23    24   ar
    24    24    25    1
    25    25    26   ar
    26    26    27   ar
    27    27    28   ar
    28    28    29   ar
    29    18    30   ar
    30    30    31   ar
    31    13     4   ar
    32    31    15   ar
    33    12     6   ar
    34    24    19   ar
    35    29    25   ar
    36     1    32    1
    37     1    33    1
    38     1    34    1
    39     2    35    1
    40     2    36    1
    41     3    37    1
    42     3    38    1
    43     8    39    1
    44     8    40    1
    45     8    41    1
    46     9    42    1
    47    10    43    1
    48    14    44    1
    49    14    45    1
    50    16    46    1
    51    17    47    1
    52    20    48    1
    53    21    49    1
    54    23    50    1
    55    29    51    1
    56    30    52    1
    57    31    53    1
