@<TRIPOS>MOLECULE
*****
 28 28 0 0 0
SMALL
GASTEIGER

@<TRIPOS>ATOM
      1 N          -4.5760    0.1833    0.3951 N.am    0  UNK0       -0.1813
      2 O          -5.5750    1.0471    0.0981 O.3     0  UNK0       -0.2940
      3 C          -3.2317    0.5287    0.0286 C.2     0  UNK0        0.3231
      4 O          -3.1052    1.6263   -0.5473 O.2     0  UNK0       -0.2507
      5 N          -2.1643   -0.3644    0.3307 N.am    1  PHE1       -0.2843
      6 CA         -0.7689   -0.1379    0.0173 C.3     1  PHE1        0.1254
      7 CB          0.1567   -0.2831    1.2016 C.3     1  PHE1        0.0013
      8 CG          1.5489   -0.0197    0.7174 C.ar    1  PHE1       -0.0451
      9 CD1         1.8987    1.3184    0.8049 C.ar    1  PHE1       -0.0585
     10 CE1         3.1417    1.7967    0.4134 C.ar    1  PHE1       -0.0615
     11 CZ          4.0665    0.8766   -0.0874 C.ar    1  PHE1       -0.0617
     12 CE2         3.7083   -0.4410   -0.1683 C.ar    1  PHE1       -0.0615
     13 CD2         2.4633   -0.9261    0.2228 C.ar    1  PHE1       -0.0585
     14 C          -0.3807   -1.1769   -0.9733 C.2     1  PHE1        0.3256
     15 O           0.2753   -2.0163   -1.8956 O.3     1  PHE1       -0.4793
     16 OXT        -1.4587   -1.8329   -1.1270 O.2     1  PHE1       -0.2489
     17 H          -4.7806   -0.6992    0.8728 H       0  UNK0        0.1838
     18 H          -5.3603    1.9507    0.4026 H       0  UNK0        0.2414
     19 H          -2.3108   -1.2787    0.8163 H       1  PHE1        0.1511
     20 HA         -0.6185    0.8325   -0.4973 H       1  PHE1        0.0618
     21 HB1        -0.1007    0.3155    2.0724 H       1  PHE1        0.0337
     22 HB2         0.1897   -1.3341    1.5596 H       1  PHE1        0.0337
     23 HD1         1.2563    2.1020    1.1765 H       1  PHE1        0.0620
     24 HE1         3.4335    2.8299    0.4728 H       1  PHE1        0.0618
     25 HZ          5.0666    1.1332   -0.4234 H       1  PHE1        0.0618
     26 HE2         4.3548   -1.2426   -0.5445 H       1  PHE1        0.0618
     27 HD2         2.1115   -1.9267    0.1919 H       1  PHE1        0.0620
     28 H           0.7598   -2.8614   -1.5529 H       1  PHE1        0.2951
@<TRIPOS>BOND
     1     1     2    1
     2     1     3   am
     3     3     4    2
     4     3     5   am
     5     5     6    1
     6     6     7    1
     7     7     8    1
     8     8     9   ar
     9     9    10   ar
    10    10    11   ar
    11    11    12   ar
    12    12    13   ar
    13     6    14    1
    14    14    15    1
    15    14    16    2
    16    13     8   ar
    17     1    17    1
    18     2    18    1
    19     5    19    1
    20     6    20    1
    21     7    21    1
    22     7    22    1
    23     9    23    1
    24    10    24    1
    25    11    25    1
    26    12    26    1
    27    13    27    1
    28    15    28    1
