
     RDKit          3D

 28 28  0  0  0  0  0  0  0  0999 V2000
   -4.5760    0.1833    0.3951 N   0  0  0  0  0  0  0  0  0  0  0  0
   -5.5750    1.0471    0.0981 O   0  0  0  0  0  0  0  0  0  0  0  0
   -3.2317    0.5287    0.0286 C   0  0  0  0  0  0  0  0  0  0  0  0
   -3.1052    1.6263   -0.5473 O   0  0  0  0  0  0  0  0  0  0  0  0
   -2.1643   -0.3644    0.3307 N   0  0  0  0  0  0  0  0  0  0  0  0
   -0.7689   -0.1379    0.0173 C   0  0  1  0  0  0  0  0  0  0  0  0
    0.1567   -0.2831    1.2016 C   0  0  0  0  0  0  0  0  0  0  0  0
    1.5489   -0.0197    0.7174 C   0  0  0  0  0  0  0  0  0  0  0  0
    1.8987    1.3184    0.8049 C   0  0  0  0  0  0  0  0  0  0  0  0
    3.1417    1.7967    0.4134 C   0  0  0  0  0  0  0  0  0  0  0  0
    4.0665    0.8766   -0.0874 C   0  0  0  0  0  0  0  0  0  0  0  0
    3.7083   -0.4410   -0.1683 C   0  0  0  0  0  0  0  0  0  0  0  0
    2.4633   -0.9261    0.2228 C   0  0  0  0  0  0  0  0  0  0  0  0
   -0.3807   -1.1769   -0.9733 C   0  0  0  0  0  0  0  0  0  0  0  0
    0.2753   -2.0163   -1.8956 O   0  0  0  0  0  0  0  0  0  0  0  0
   -1.4587   -1.8329   -1.1270 O   0  0  0  0  0  0  0  0  0  0  0  0
   -4.7806   -0.6992    0.8728 H   0  0  0  0  0  0  0  0  0  0  0  0
   -5.3603    1.9507    0.4026 H   0  0  0  0  0  0  0  0  0  0  0  0
   -2.3108   -1.2787    0.8163 H   0  0  0  0  0  0  0  0  0  0  0  0
   -0.6185    0.8325   -0.4973 H   0  0  0  0  0  0  0  0  0  0  0  0
   -0.1007    0.3155    2.0724 H   0  0  0  0  0  0  0  0  0  0  0  0
    0.1897   -1.3341    1.5596 H   0  0  0  0  0  0  0  0  0  0  0  0
    1.2563    2.1020    1.1765 H   0  0  0  0  0  0  0  0  0  0  0  0
    3.4335    2.8299    0.4728 H   0  0  0  0  0  0  0  0  0  0  0  0
    5.0666    1.1332   -0.4234 H   0  0  0  0  0  0  0  0  0  0  0  0
    4.3548   -1.2426   -0.5445 H   0  0  0  0  0  0  0  0  0  0  0  0
    2.1115   -1.9267    0.1919 H   0  0  0  0  0  0  0  0  0  0  0  0
    0.7598   -2.8614   -1.5529 H   0  0  0  0  0  0  0  0  0  0  0  0
  1  2  1  0
  1  3  1  0
  3  4  2  0
  3  5  1  0
  5  6  1  0
  6  7  1  0
  7  8  1  0
  8  9  2  0
  9 10  1  0
 10 11  2  0
 11 12  1  0
 12 13  2  0
  6 14  1  0
 14 15  1  0
 14 16  2  0
 13  8  1  0
  1 17  1  0
  2 18  1  0
  5 19  1  0
  6 20  1  6
  7 21  1  0
  7 22  1  0
  9 23  1  0
 10 24  1  0
 11 25  1  0
 12 26  1  0
 13 27  1  0
 15 28  1  0
M  END
$$$$
