@<TRIPOS>MOLECULE
*****
 52 55 0 0 0
SMALL
GASTEIGER

@<TRIPOS>ATOM
      1 C          -1.3402    0.9170   -0.0695 C.3     1  UNL1       -0.0298
      2 C          -2.2471    1.7708    0.7393 C.3     1  UNL1       -0.0468
      3 C          -3.5713    1.4658    0.0273 C.3     1  UNL1       -0.0235
      4 C          -3.4721   -0.0510   -0.1854 C.3     1  UNL1        0.0689
      5 C          -4.1071   -0.4921   -1.4656 C.3     1  UNL1       -0.0356
      6 O          -4.2452   -0.5942    0.8443 O.3     1  UNL1       -0.3883
      7 C          -2.0461   -0.4307   -0.0062 C.3     1  UNL1       -0.0004
      8 C          -1.8529   -1.0959    1.3112 C.3     1  UNL1       -0.0567
      9 C          -1.4609   -1.2196   -1.1443 C.3     1  UNL1       -0.0445
     10 C           0.0088   -1.3977   -0.9491 C.3     1  UNL1       -0.0486
     11 C           0.7420   -0.1715   -0.5403 C.3     1  UNL1       -0.0288
     12 C           0.0324    0.6870    0.4574 C.3     1  UNL1       -0.0337
     13 C           0.7612    2.0005    0.6012 C.3     1  UNL1       -0.0459
     14 C           2.1636    1.7967    1.0758 C.3     1  UNL1       -0.0305
     15 C           2.8250    0.7940    0.2201 C.2     1  UNL1       -0.0601
     16 C           4.0316    1.0961   -0.2643 C.2     1  UNL1       -0.0194
     17 C           4.7693    0.1750   -1.1189 C.2     1  UNL1        0.1561
     18 O           5.6643    0.5820   -1.8875 O.2     1  UNL1       -0.2927
     19 C           4.3401   -1.2610   -0.9686 C.3     1  UNL1        0.0107
     20 C           2.8372   -1.2480   -1.1269 C.3     1  UNL1       -0.0367
     21 C           2.1175   -0.4906   -0.0550 C.3     1  UNL1       -0.0072
     22 C           2.0980   -1.2335    1.2638 C.3     1  UNL1       -0.0556
     23 H          -1.3090    1.3000   -1.0945 H       1  UNL1        0.0310
     24 H          -2.0062    2.8562    0.6850 H       1  UNL1        0.0269
     25 H          -2.3528    1.5058    1.7888 H       1  UNL1        0.0269
     26 H          -3.4988    1.9720   -0.9707 H       1  UNL1        0.0293
     27 H          -4.4398    1.7553    0.6169 H       1  UNL1        0.0293
     28 H          -5.0793    0.0667   -1.5486 H       1  UNL1        0.0257
     29 H          -4.3738   -1.5678   -1.3414 H       1  UNL1        0.0257
     30 H          -3.5621   -0.2593   -2.3779 H       1  UNL1        0.0257
     31 H          -4.8847    0.0209    1.2437 H       1  UNL1        0.2102
     32 H          -1.0583   -1.8449    1.3544 H       1  UNL1        0.0236
     33 H          -2.8033   -1.6577    1.5480 H       1  UNL1        0.0236
     34 H          -1.7367   -0.4082    2.1784 H       1  UNL1        0.0236
     35 H          -1.5675   -0.6124   -2.0799 H       1  UNL1        0.0272
     36 H          -1.9368   -2.2017   -1.2333 H       1  UNL1        0.0272
     37 H           0.4199   -1.6722   -1.9659 H       1  UNL1        0.0268
     38 H           0.2025   -2.3022   -0.3435 H       1  UNL1        0.0268
     39 H           0.8814    0.4749   -1.4562 H       1  UNL1        0.0312
     40 H           0.0625    0.1865    1.4231 H       1  UNL1        0.0307
     41 H           0.7035    2.5975   -0.3480 H       1  UNL1        0.0271
     42 H           0.2242    2.6003    1.3663 H       1  UNL1        0.0271
     43 H           2.1044    1.4941    2.1385 H       1  UNL1        0.0310
     44 H           2.6885    2.7661    1.0600 H       1  UNL1        0.0310
     45 H           4.4780    2.0698   -0.0082 H       1  UNL1        0.0652
     46 H           4.7615   -1.8317   -1.7977 H       1  UNL1        0.0345
     47 H           4.6765   -1.6355    0.0099 H       1  UNL1        0.0345
     48 H           2.4306   -2.2706   -1.1738 H       1  UNL1        0.0278
     49 H           2.6255   -0.7348   -2.0896 H       1  UNL1        0.0278
     50 H           3.0713   -1.7120    1.4671 H       1  UNL1        0.0238
     51 H           1.8952   -0.5347    2.1025 H       1  UNL1        0.0238
     52 H           1.3353   -2.0194    1.3293 H       1  UNL1        0.0238
@<TRIPOS>BOND
     1     1     2    1
     2     2     3    1
     3     3     4    1
     4     4     5    1
     5     4     6    1
     6     4     7    1
     7     7     8    1
     8     7     9    1
     9     9    10    1
    10    10    11    1
    11    11    12    1
    12    12    13    1
    13    13    14    1
    14    14    15    1
    15    15    16    2
    16    16    17    1
    17    17    18    2
    18    17    19    1
    19    19    20    1
    20    20    21    1
    21    21    22    1
    22     7     1    1
    23    21    11    1
    24    12     1    1
    25    21    15    1
    26     1    23    1
    27     2    24    1
    28     2    25    1
    29     3    26    1
    30     3    27    1
    31     5    28    1
    32     5    29    1
    33     5    30    1
    34     6    31    1
    35     8    32    1
    36     8    33    1
    37     8    34    1
    38     9    35    1
    39     9    36    1
    40    10    37    1
    41    10    38    1
    42    11    39    1
    43    12    40    1
    44    13    41    1
    45    13    42    1
    46    14    43    1
    47    14    44    1
    48    16    45    1
    49    19    46    1
    50    19    47    1
    51    20    48    1
    52    20    49    1
    53    22    50    1
    54    22    51    1
    55    22    52    1
