
     RDKit          3D

 48 49  0  0  0  0  0  0  0  0999 V2000
    6.2132    2.7944   -0.7945 C   0  0  0  0  0  0  0  0  0  0  0  0
    5.6153    1.5029   -0.3660 C   0  0  0  0  0  0  0  0  0  0  0  0
    4.5104    0.9899   -0.9759 C   0  0  0  0  0  0  0  0  0  0  0  0
    3.9634   -0.2032   -0.5753 C   0  0  0  0  0  0  0  0  0  0  0  0
    2.8198   -0.8461   -1.1228 N   0  0  0  0  0  0  0  0  0  0  0  0
    1.5020   -0.6199   -0.6503 C   0  0  0  0  0  0  0  0  0  0  0  0
    1.2491    0.1718    0.2943 O   0  0  0  0  0  0  0  0  0  0  0  0
    0.4910   -1.4309   -1.4111 C   0  0  0  0  0  0  0  0  0  0  0  0
   -0.8765   -1.1875   -0.9109 C   0  0  0  0  0  0  0  0  0  0  0  0
   -1.4273   -1.9438    0.1044 C   0  0  0  0  0  0  0  0  0  0  0  0
   -2.6914   -1.6819    0.5316 C   0  0  0  0  0  0  0  0  0  0  0  0
   -3.4842   -0.6690   -0.0090 C   0  0  0  0  0  0  0  0  0  0  0  0
   -4.7255   -0.5766    0.5674 O   0  0  0  0  0  0  0  0  0  0  0  0
   -5.7243    0.3602    0.2095 C   0  0  0  0  0  0  0  0  0  0  0  0
   -5.2556    1.7704    0.4008 C   0  0  0  0  0  0  0  0  0  0  0  0
   -6.1149    0.1042   -1.2168 C   0  0  0  0  0  0  0  0  0  0  0  0
   -6.8642    0.1069    1.1383 C   0  0  0  0  0  0  0  0  0  0  0  0
   -7.1859   -0.7420    2.1865 O   0  0  0  0  0  0  0  0  0  0  0  0
   -7.7402    0.9614    0.7913 O   0  0  0  0  0  0  0  0  0  0  0  0
   -2.9252    0.0847   -1.0263 C   0  0  0  0  0  0  0  0  0  0  0  0
   -1.6431   -0.1788   -1.4616 C   0  0  0  0  0  0  0  0  0  0  0  0
    4.5497   -0.9006    0.4738 C   0  0  0  0  0  0  0  0  0  0  0  0
    5.6699   -0.4043    1.1099 C   0  0  0  0  0  0  0  0  0  0  0  0
    6.3590   -1.0977    2.2483 C   0  0  0  0  0  0  0  0  0  0  0  0
    6.1940    0.7981    0.6817 C   0  0  0  0  0  0  0  0  0  0  0  0
    5.5363    3.2548   -1.5432 H   0  0  0  0  0  0  0  0  0  0  0  0
    7.1721    2.5935   -1.3121 H   0  0  0  0  0  0  0  0  0  0  0  0
    6.3502    3.4871    0.0731 H   0  0  0  0  0  0  0  0  0  0  0  0
    4.0152    1.4851   -1.7917 H   0  0  0  0  0  0  0  0  0  0  0  0
    3.1023   -1.4853   -1.8980 H   0  0  0  0  0  0  0  0  0  0  0  0
    0.6182   -1.1316   -2.4730 H   0  0  0  0  0  0  0  0  0  0  0  0
    0.7285   -2.5128   -1.3556 H   0  0  0  0  0  0  0  0  0  0  0  0
   -0.7961   -2.7274    0.5132 H   0  0  0  0  0  0  0  0  0  0  0  0
   -3.0220   -2.3450    1.3403 H   0  0  0  0  0  0  0  0  0  0  0  0
   -4.1922    1.8634    0.7196 H   0  0  0  0  0  0  0  0  0  0  0  0
   -5.4106    2.3227   -0.5493 H   0  0  0  0  0  0  0  0  0  0  0  0
   -5.8784    2.3034    1.1564 H   0  0  0  0  0  0  0  0  0  0  0  0
   -7.1683   -0.2565   -1.2213 H   0  0  0  0  0  0  0  0  0  0  0  0
   -5.9943    1.0576   -1.7919 H   0  0  0  0  0  0  0  0  0  0  0  0
   -5.5107   -0.7205   -1.6689 H   0  0  0  0  0  0  0  0  0  0  0  0
   -8.0739   -1.2220    2.1257 H   0  0  0  0  0  0  0  0  0  0  0  0
   -3.5858    0.8505   -1.4022 H   0  0  0  0  0  0  0  0  0  0  0  0
   -1.2931    0.4688   -2.2659 H   0  0  0  0  0  0  0  0  0  0  0  0
    4.2178   -1.8511    0.8863 H   0  0  0  0  0  0  0  0  0  0  0  0
    6.1201   -2.1869    2.2605 H   0  0  0  0  0  0  0  0  0  0  0  0
    7.4512   -0.9465    2.1063 H   0  0  0  0  0  0  0  0  0  0  0  0
    6.0575   -0.6779    3.2133 H   0  0  0  0  0  0  0  0  0  0  0  0
    7.0776    1.2137    1.1654 H   0  0  0  0  0  0  0  0  0  0  0  0
  1  2  1  0
  2  3  2  0
  3  4  1  0
  4  5  1  0
  5  6  1  0
  6  7  2  0
  6  8  1  0
  8  9  1  0
  9 10  2  0
 10 11  1  0
 11 12  2  0
 12 13  1  0
 13 14  1  0
 14 15  1  0
 14 16  1  0
 14 17  1  0
 17 18  1  0
 17 19  2  0
 12 20  1  0
 20 21  2  0
  4 22  2  0
 22 23  1  0
 23 24  1  0
 23 25  2  0
 25  2  1  0
 21  9  1  0
  1 26  1  0
  1 27  1  0
  1 28  1  0
  3 29  1  0
  5 30  1  0
  8 31  1  0
  8 32  1  0
 10 33  1  0
 11 34  1  0
 15 35  1  0
 15 36  1  0
 15 37  1  0
 16 38  1  0
 16 39  1  0
 16 40  1  0
 18 41  1  0
 20 42  1  0
 21 43  1  0
 22 44  1  0
 24 45  1  0
 24 46  1  0
 24 47  1  0
 25 48  1  0
M  END
$$$$
