@<TRIPOS>MOLECULE
*****
 48 49 0 0 0
SMALL
GASTEIGER

@<TRIPOS>ATOM
      1 C           6.2132    2.7944   -0.7945 C.3     1  UNL1       -0.0396
      2 C           5.6153    1.5029   -0.3660 C.ar    1  UNL1       -0.0484
      3 C           4.5104    0.9899   -0.9759 C.ar    1  UNL1       -0.0375
      4 C           3.9634   -0.2032   -0.5753 C.ar    1  UNL1        0.0339
      5 N           2.8198   -0.8461   -1.1228 N.am    1  UNL1       -0.2852
      6 C           1.5020   -0.6199   -0.6503 C.2     1  UNL1        0.2215
      7 O           1.2491    0.1718    0.2943 O.2     1  UNL1       -0.2751
      8 C           0.4910   -1.4309   -1.4111 C.3     1  UNL1        0.0494
      9 C          -0.8765   -1.1875   -0.9109 C.ar    1  UNL1       -0.0384
     10 C          -1.4273   -1.9438    0.1044 C.ar    1  UNL1       -0.0547
     11 C          -2.6914   -1.6819    0.5316 C.ar    1  UNL1       -0.0196
     12 C          -3.4842   -0.6690   -0.0090 C.ar    1  UNL1        0.1221
     13 O          -4.7255   -0.5766    0.5674 O.3     1  UNL1       -0.4751
     14 C          -5.7243    0.3602    0.2095 C.3     1  UNL1        0.2003
     15 C          -5.2556    1.7704    0.4008 C.3     1  UNL1       -0.0145
     16 C          -6.1149    0.1042   -1.2168 C.3     1  UNL1       -0.0145
     17 C          -6.8642    0.1069    1.1383 C.2     1  UNL1        0.3485
     18 O          -7.1859   -0.7420    2.1865 O.3     1  UNL1       -0.4779
     19 O          -7.7402    0.9614    0.7913 O.2     1  UNL1       -0.2465
     20 C          -2.9252    0.0847   -1.0263 C.ar    1  UNL1       -0.0196
     21 C          -1.6431   -0.1788   -1.4616 C.ar    1  UNL1       -0.0547
     22 C           4.5497   -0.9006    0.4738 C.ar    1  UNL1       -0.0375
     23 C           5.6699   -0.4043    1.1099 C.ar    1  UNL1       -0.0484
     24 C           6.3590   -1.0977    2.2483 C.3     1  UNL1       -0.0396
     25 C           6.1940    0.7981    0.6817 C.ar    1  UNL1       -0.0558
     26 H           5.5363    3.2548   -1.5432 H       1  UNL1        0.0278
     27 H           7.1721    2.5935   -1.3121 H       1  UNL1        0.0278
     28 H           6.3502    3.4871    0.0731 H       1  UNL1        0.0278
     29 H           4.0152    1.4851   -1.7917 H       1  UNL1        0.0639
     30 H           3.1023   -1.4853   -1.8980 H       1  UNL1        0.1548
     31 H           0.6182   -1.1316   -2.4730 H       1  UNL1        0.0407
     32 H           0.7285   -2.5128   -1.3556 H       1  UNL1        0.0407
     33 H          -0.7961   -2.7274    0.5132 H       1  UNL1        0.0622
     34 H          -3.0220   -2.3450    1.3403 H       1  UNL1        0.0654
     35 H          -4.1922    1.8634    0.7196 H       1  UNL1        0.0273
     36 H          -5.4106    2.3227   -0.5493 H       1  UNL1        0.0273
     37 H          -5.8784    2.3034    1.1564 H       1  UNL1        0.0273
     38 H          -7.1683   -0.2565   -1.2213 H       1  UNL1        0.0273
     39 H          -5.9943    1.0576   -1.7919 H       1  UNL1        0.0273
     40 H          -5.5107   -0.7205   -1.6689 H       1  UNL1        0.0273
     41 H          -8.0739   -1.2220    2.1257 H       1  UNL1        0.2952
     42 H          -3.5858    0.8505   -1.4022 H       1  UNL1        0.0654
     43 H          -1.2931    0.4688   -2.2659 H       1  UNL1        0.0622
     44 H           4.2178   -1.8511    0.8863 H       1  UNL1        0.0639
     45 H           6.1201   -2.1869    2.2605 H       1  UNL1        0.0278
     46 H           7.4512   -0.9465    2.1063 H       1  UNL1        0.0278
     47 H           6.0575   -0.6779    3.2133 H       1  UNL1        0.0278
     48 H           7.0776    1.2137    1.1654 H       1  UNL1        0.0623
@<TRIPOS>BOND
     1     1     2    1
     2     2     3   ar
     3     3     4   ar
     4     4     5    1
     5     5     6   am
     6     6     7    2
     7     6     8    1
     8     8     9    1
     9     9    10   ar
    10    10    11   ar
    11    11    12   ar
    12    12    13    1
    13    13    14    1
    14    14    15    1
    15    14    16    1
    16    14    17    1
    17    17    18    1
    18    17    19    2
    19    12    20   ar
    20    20    21   ar
    21     4    22   ar
    22    22    23   ar
    23    23    24    1
    24    23    25   ar
    25    25     2   ar
    26    21     9   ar
    27     1    26    1
    28     1    27    1
    29     1    28    1
    30     3    29    1
    31     5    30    1
    32     8    31    1
    33     8    32    1
    34    10    33    1
    35    11    34    1
    36    15    35    1
    37    15    36    1
    38    15    37    1
    39    16    38    1
    40    16    39    1
    41    16    40    1
    42    18    41    1
    43    20    42    1
    44    21    43    1
    45    22    44    1
    46    24    45    1
    47    24    46    1
    48    24    47    1
    49    25    48    1
