@<TRIPOS>MOLECULE
*****
 36 38 0 0 0
SMALL
GASTEIGER

@<TRIPOS>ATOM
      1 C           4.6672   -2.5566   -0.3756 C.3     1  UNL1        0.0788
      2 O           4.0880   -1.9897    0.7699 O.3     1  UNL1       -0.4951
      3 C           3.0073   -1.1239    0.7229 C.ar    1  UNL1        0.1202
      4 C           2.4994   -0.6131    1.8837 C.ar    1  UNL1       -0.0180
      5 C           1.4247    0.2460    1.8151 C.ar    1  UNL1       -0.0328
      6 C           0.8416    0.6103    0.6190 C.ar    1  UNL1        0.0663
      7 N          -0.2795    1.5055    0.5372 N.ar    1  UNL1       -0.2316
      8 N          -0.3401    2.7658    0.9136 N.ar    1  UNL1       -0.1618
      9 C          -1.5481    3.3103    0.6934 C.ar    1  UNL1        0.1662
     10 C          -1.9916    4.7131    0.9907 C.3     1  UNL1        0.4360
     11 F          -2.0192    4.9577    2.3385 F       1  UNL1       -0.1644
     12 F          -3.2052    4.9320    0.3734 F       1  UNL1       -0.1644
     13 F          -1.0949    5.6309    0.4315 F       1  UNL1       -0.1644
     14 C          -2.3079    2.3054    0.1315 C.ar    1  UNL1       -0.0039
     15 C          -1.4921    1.1883    0.0447 C.ar    1  UNL1        0.0752
     16 C          -1.8622   -0.1256   -0.4881 C.ar    1  UNL1        0.0006
     17 C          -1.5252   -1.2926    0.1652 C.ar    1  UNL1       -0.0512
     18 C          -1.8745   -2.5406   -0.3370 C.ar    1  UNL1       -0.0428
     19 C          -2.5693   -2.6315   -1.5062 C.ar    1  UNL1        0.0410
     20 CL         -2.9873   -4.2333   -2.0994 Cl      1  UNL1       -0.0835
     21 C          -2.9197   -1.4849   -2.1806 C.ar    1  UNL1       -0.0428
     22 C          -2.5650   -0.2415   -1.6689 C.ar    1  UNL1       -0.0512
     23 C           1.3972    0.0633   -0.5170 C.ar    1  UNL1       -0.0328
     24 C           2.4690   -0.7980   -0.4999 C.ar    1  UNL1       -0.0180
     25 H           5.3089   -1.8403   -0.9274 H       1  UNL1        0.0660
     26 H           5.3702   -3.3588   -0.0123 H       1  UNL1        0.0660
     27 H           3.9224   -3.0607   -0.9987 H       1  UNL1        0.0660
     28 H           2.9508   -0.8918    2.8472 H       1  UNL1        0.0655
     29 H           1.0010    0.6661    2.7149 H       1  UNL1        0.0640
     30 H          -3.3289    2.3947   -0.1711 H       1  UNL1        0.0660
     31 H          -0.9759   -1.2136    1.0890 H       1  UNL1        0.0625
     32 H          -1.5951   -3.4364    0.1996 H       1  UNL1        0.0632
     33 H          -3.4730   -1.5841   -3.1098 H       1  UNL1        0.0632
     34 H          -2.8688    0.6335   -2.2453 H       1  UNL1        0.0625
     35 H           0.9759    0.3181   -1.4758 H       1  UNL1        0.0640
     36 H           2.8998   -1.2242   -1.4039 H       1  UNL1        0.0655
@<TRIPOS>BOND
     1     1     2    1
     2     2     3    1
     3     3     4   ar
     4     4     5   ar
     5     5     6   ar
     6     6     7    1
     7     7     8   ar
     8     8     9   ar
     9     9    10    1
    10    10    11    1
    11    10    12    1
    12    10    13    1
    13     9    14   ar
    14    14    15   ar
    15    15    16    1
    16    16    17   ar
    17    17    18   ar
    18    18    19   ar
    19    19    20    1
    20    19    21   ar
    21    21    22   ar
    22     6    23   ar
    23    23    24   ar
    24    24     3   ar
    25    15     7   ar
    26    22    16   ar
    27     1    25    1
    28     1    26    1
    29     1    27    1
    30     4    28    1
    31     5    29    1
    32    14    30    1
    33    17    31    1
    34    18    32    1
    35    21    33    1
    36    22    34    1
    37    23    35    1
    38    24    36    1
