
     RDKit          3D

 36 38  0  0  0  0  0  0  0  0999 V2000
    4.6672   -2.5566   -0.3756 C   0  0  0  0  0  0  0  0  0  0  0  0
    4.0880   -1.9897    0.7699 O   0  0  0  0  0  0  0  0  0  0  0  0
    3.0073   -1.1239    0.7229 C   0  0  0  0  0  0  0  0  0  0  0  0
    2.4994   -0.6131    1.8837 C   0  0  0  0  0  0  0  0  0  0  0  0
    1.4247    0.2460    1.8151 C   0  0  0  0  0  0  0  0  0  0  0  0
    0.8416    0.6103    0.6190 C   0  0  0  0  0  0  0  0  0  0  0  0
   -0.2795    1.5055    0.5372 N   0  0  0  0  0  0  0  0  0  0  0  0
   -0.3401    2.7658    0.9136 N   0  0  0  0  0  0  0  0  0  0  0  0
   -1.5481    3.3103    0.6934 C   0  0  0  0  0  0  0  0  0  0  0  0
   -1.9916    4.7131    0.9907 C   0  0  0  0  0  0  0  0  0  0  0  0
   -2.0192    4.9577    2.3385 F   0  0  0  0  0  0  0  0  0  0  0  0
   -3.2052    4.9320    0.3734 F   0  0  0  0  0  0  0  0  0  0  0  0
   -1.0949    5.6309    0.4315 F   0  0  0  0  0  0  0  0  0  0  0  0
   -2.3079    2.3054    0.1315 C   0  0  0  0  0  0  0  0  0  0  0  0
   -1.4921    1.1883    0.0447 C   0  0  0  0  0  0  0  0  0  0  0  0
   -1.8622   -0.1256   -0.4881 C   0  0  0  0  0  0  0  0  0  0  0  0
   -1.5252   -1.2926    0.1652 C   0  0  0  0  0  0  0  0  0  0  0  0
   -1.8745   -2.5406   -0.3370 C   0  0  0  0  0  0  0  0  0  0  0  0
   -2.5693   -2.6315   -1.5062 C   0  0  0  0  0  0  0  0  0  0  0  0
   -2.9873   -4.2333   -2.0994 Cl  0  0  0  0  0  0  0  0  0  0  0  0
   -2.9197   -1.4849   -2.1806 C   0  0  0  0  0  0  0  0  0  0  0  0
   -2.5650   -0.2415   -1.6689 C   0  0  0  0  0  0  0  0  0  0  0  0
    1.3972    0.0633   -0.5170 C   0  0  0  0  0  0  0  0  0  0  0  0
    2.4690   -0.7980   -0.4999 C   0  0  0  0  0  0  0  0  0  0  0  0
    5.3089   -1.8403   -0.9274 H   0  0  0  0  0  0  0  0  0  0  0  0
    5.3702   -3.3588   -0.0123 H   0  0  0  0  0  0  0  0  0  0  0  0
    3.9224   -3.0607   -0.9987 H   0  0  0  0  0  0  0  0  0  0  0  0
    2.9508   -0.8918    2.8472 H   0  0  0  0  0  0  0  0  0  0  0  0
    1.0010    0.6661    2.7149 H   0  0  0  0  0  0  0  0  0  0  0  0
   -3.3289    2.3947   -0.1711 H   0  0  0  0  0  0  0  0  0  0  0  0
   -0.9759   -1.2136    1.0890 H   0  0  0  0  0  0  0  0  0  0  0  0
   -1.5951   -3.4364    0.1996 H   0  0  0  0  0  0  0  0  0  0  0  0
   -3.4730   -1.5841   -3.1098 H   0  0  0  0  0  0  0  0  0  0  0  0
   -2.8688    0.6335   -2.2453 H   0  0  0  0  0  0  0  0  0  0  0  0
    0.9759    0.3181   -1.4758 H   0  0  0  0  0  0  0  0  0  0  0  0
    2.8998   -1.2242   -1.4039 H   0  0  0  0  0  0  0  0  0  0  0  0
  1  2  1  0
  2  3  1  0
  3  4  2  0
  4  5  1  0
  5  6  2  0
  6  7  1  0
  7  8  1  0
  8  9  2  0
  9 10  1  0
 10 11  1  0
 10 12  1  0
 10 13  1  0
  9 14  1  0
 14 15  2  0
 15 16  1  0
 16 17  2  0
 17 18  1  0
 18 19  2  0
 19 20  1  0
 19 21  1  0
 21 22  2  0
  6 23  1  0
 23 24  2  0
 24  3  1  0
 15  7  1  0
 22 16  1  0
  1 25  1  0
  1 26  1  0
  1 27  1  0
  4 28  1  0
  5 29  1  0
 14 30  1  0
 17 31  1  0
 18 32  1  0
 21 33  1  0
 22 34  1  0
 23 35  1  0
 24 36  1  0
M  END
$$$$
