@<TRIPOS>MOLECULE
*****
 33 33 0 0 0
SMALL
GASTEIGER

@<TRIPOS>ATOM
      1 O           0.7169   -3.4660   -0.0252 O.3     1  UNL1        0.0000
      2 C           0.6135   -2.1467    0.3215 C.3     1  UNL1        0.0000
      3 C          -0.7978   -1.5955    0.2679 C.3     1  UNL1        0.0000
      4 O          -1.6782   -2.2764    1.0686 O.3     1  UNL1        0.0000
      5 C          -0.6424   -0.1454    0.7466 C.3     1  UNL1        0.0000
      6 C          -2.0695    0.4185    0.7383 C.3     1  UNL1        0.0000
      7 O          -2.0749    1.7502    1.0790 O.3     1  UNL1        0.0000
      8 V          -3.9262    2.4048    1.0481 V       1  UNL1        0.0000
      9 O          -5.0356    1.2359   -0.0752 O.3     1  UNL1        0.0000
     10 O          -4.5824    2.3900    2.6826 O.2     1  UNL1        0.0000
     11 O          -3.9297    4.0120    0.3525 O.2     1  UNL1        0.0000
     12 O           0.0735    0.5739   -0.1662 O.3     1  UNL1        0.0000
     13 C           1.3744    0.1605   -0.3480 C.3     1  UNL1        0.0000
     14 O           1.8287    0.7781   -1.5204 O.3     1  UNL1        0.0000
     15 P           3.1548    1.7651   -1.2728 P.3     1  UNL1        0.0000
     16 O           2.8558    3.0483   -0.2286 O.3     1  UNL1        0.0000
     17 O           4.5284    0.9337   -0.7832 O.3     1  UNL1        0.0000
     18 O           3.4956    2.3503   -2.6437 O.2     1  UNL1        0.0000
     19 C           1.4379   -1.3276   -0.6436 C.3     1  UNL1        0.0000
     20 O           2.7403   -1.7921   -0.5469 O.3     1  UNL1        0.0000
     21 H           0.8104   -4.0126    0.7999 H       1  UNL1        0.0000
     22 H           0.9948   -1.8991    1.3423 H       1  UNL1        0.0000
     23 H          -1.1430   -1.5342   -0.7897 H       1  UNL1        0.0000
     24 H          -1.1983   -2.8920    1.6618 H       1  UNL1        0.0000
     25 H          -0.2546   -0.1579    1.7727 H       1  UNL1        0.0000
     26 H          -2.5196    0.3148   -0.2701 H       1  UNL1        0.0000
     27 H          -2.6968   -0.1889    1.4437 H       1  UNL1        0.0000
     28 H          -5.9071    1.1084    0.3496 H       1  UNL1        0.0000
     29 H           1.9711    0.4303    0.5469 H       1  UNL1        0.0000
     30 H           3.4367    3.7982   -0.5153 H       1  UNL1        0.0000
     31 H           4.6426    0.1296   -1.3750 H       1  UNL1        0.0000
     32 H           1.0254   -1.4443   -1.6844 H       1  UNL1        0.0000
     33 H           2.7555   -2.7238   -0.2522 H       1  UNL1        0.0000
@<TRIPOS>BOND
     1     1     2    1
     2     2     3    1
     3     3     4    1
     4     3     5    1
     5     5     6    1
     6     6     7    1
     7     7     8    1
     8     8     9    1
     9     8    10    2
    10     8    11    2
    11     5    12    1
    12    12    13    1
    13    13    14    1
    14    14    15    1
    15    15    16    1
    16    15    17    1
    17    15    18    2
    18    13    19    1
    19    19    20    1
    20    19     2    1
    21     1    21    1
    22     2    22    1
    23     3    23    1
    24     4    24    1
    25     5    25    1
    26     6    26    1
    27     6    27    1
    28     9    28    1
    29    13    29    1
    30    16    30    1
    31    17    31    1
    32    19    32    1
    33    20    33    1
