@<TRIPOS>MOLECULE
*****
 43 45 0 0 0
SMALL
GASTEIGER

@<TRIPOS>ATOM
      1 O           0.4092    0.9629   -0.0853 O.2     1  UNL1       -0.2698
      2 C           0.7376   -0.1855    0.2716 C.2     1  UNL1        0.2500
      3 N           2.1065   -0.5054    0.1549 N.am    1  UNL1       -0.2814
      4 C           3.1502    0.3317   -0.3294 C.ar    1  UNL1        0.0342
      5 C           2.9746    1.6204   -0.7713 C.ar    1  UNL1       -0.0404
      6 C           4.0232    2.3996   -1.2353 C.ar    1  UNL1       -0.0595
      7 C           5.2976    1.8989   -1.2691 C.ar    1  UNL1       -0.0500
      8 C           5.4678    0.6032   -0.8238 C.ar    1  UNL1        0.0566
      9 C           6.8471    0.0019   -0.8387 C.3     1  UNL1        0.4175
     10 F           7.7258    0.8102   -1.5176 F       1  UNL1       -0.1659
     11 F           6.7989   -1.2138   -1.4527 F       1  UNL1       -0.1659
     12 F           7.2238   -0.1015    0.4895 F       1  UNL1       -0.1659
     13 C           4.4521   -0.1738   -0.3662 C.ar    1  UNL1       -0.0288
     14 C          -0.2079   -1.1701    0.7879 C.ar    1  UNL1        0.0578
     15 C           0.1898   -2.4989    0.9038 C.ar    1  UNL1       -0.0478
     16 C          -0.7154   -3.4540    1.3315 C.ar    1  UNL1       -0.0609
     17 C          -2.0083   -3.1483    1.6524 C.ar    1  UNL1       -0.0600
     18 C          -2.3991   -1.8416    1.5394 C.ar    1  UNL1       -0.0401
     19 C          -1.5120   -0.8459    1.1099 C.ar    1  UNL1        0.0396
     20 N          -1.9596    0.4912    1.0970 N.pl3   1  UNL1       -0.3391
     21 C          -3.3246    0.9377    1.3641 C.3     1  UNL1        0.0345
     22 C          -4.2244    0.8533    0.2158 C.ar    1  UNL1       -0.0276
     23 C          -4.1956    1.8943   -0.7271 C.ar    1  UNL1       -0.0389
     24 C          -5.0300    1.8986   -1.8227 C.ar    1  UNL1        0.0279
     25 N          -5.8969    0.8960   -2.0123 N.ar    1  UNL1       -0.2632
     26 C          -5.9496   -0.1059   -1.1368 C.ar    1  UNL1        0.0279
     27 C          -5.1145   -0.1414   -0.0103 C.ar    1  UNL1       -0.0389
     28 H           2.4276   -1.4600    0.4635 H       1  UNL1        0.1551
     29 H           2.0223    2.1074   -0.7874 H       1  UNL1        0.0636
     30 H           3.8792    3.4148   -1.5824 H       1  UNL1        0.0618
     31 H           6.1537    2.4534   -1.6181 H       1  UNL1        0.0623
     32 H           4.6230   -1.1965   -0.0210 H       1  UNL1        0.0642
     33 H           1.2010   -2.7772    0.6498 H       1  UNL1        0.0626
     34 H          -0.3848   -4.4653    1.4115 H       1  UNL1        0.0618
     35 H          -2.7292   -3.9049    1.9916 H       1  UNL1        0.0618
     36 H          -3.3977   -1.5688    1.8049 H       1  UNL1        0.0636
     37 H          -1.3170    1.3189    0.9021 H       1  UNL1        0.1464
     38 H          -3.6715    0.3496    2.2553 H       1  UNL1        0.0511
     39 H          -3.3132    2.0014    1.7497 H       1  UNL1        0.0511
     40 H          -3.5117    2.7268   -0.6165 H       1  UNL1        0.0636
     41 H          -4.9884    2.7120   -2.5344 H       1  UNL1        0.0829
     42 H          -6.6300   -0.9357   -1.2453 H       1  UNL1        0.0829
     43 H          -5.2296   -0.9897    0.6672 H       1  UNL1        0.0636
@<TRIPOS>BOND
     1     1     2    2
     2     2     3   am
     3     3     4    1
     4     4     5   ar
     5     5     6   ar
     6     6     7   ar
     7     7     8   ar
     8     8     9    1
     9     9    10    1
    10     9    11    1
    11     9    12    1
    12     8    13   ar
    13     2    14    1
    14    14    15   ar
    15    15    16   ar
    16    16    17   ar
    17    17    18   ar
    18    18    19   ar
    19    19    20    1
    20    20    21    1
    21    21    22    1
    22    22    23   ar
    23    23    24   ar
    24    24    25   ar
    25    25    26   ar
    26    26    27   ar
    27    13     4   ar
    28    19    14   ar
    29    27    22   ar
    30     3    28    1
    31     5    29    1
    32     6    30    1
    33     7    31    1
    34    13    32    1
    35    15    33    1
    36    16    34    1
    37    17    35    1
    38    18    36    1
    39    20    37    1
    40    21    38    1
    41    21    39    1
    42    23    40    1
    43    24    41    1
    44    26    42    1
    45    27    43    1
