
     RDKit          3D

 43 45  0  0  0  0  0  0  0  0999 V2000
    0.4092    0.9629   -0.0853 O   0  0  0  0  0  0  0  0  0  0  0  0
    0.7376   -0.1855    0.2716 C   0  0  0  0  0  0  0  0  0  0  0  0
    2.1065   -0.5054    0.1549 N   0  0  0  0  0  0  0  0  0  0  0  0
    3.1502    0.3317   -0.3294 C   0  0  0  0  0  0  0  0  0  0  0  0
    2.9746    1.6204   -0.7713 C   0  0  0  0  0  0  0  0  0  0  0  0
    4.0232    2.3996   -1.2353 C   0  0  0  0  0  0  0  0  0  0  0  0
    5.2976    1.8989   -1.2691 C   0  0  0  0  0  0  0  0  0  0  0  0
    5.4678    0.6032   -0.8238 C   0  0  0  0  0  0  0  0  0  0  0  0
    6.8471    0.0019   -0.8387 C   0  0  0  0  0  0  0  0  0  0  0  0
    7.7258    0.8102   -1.5176 F   0  0  0  0  0  0  0  0  0  0  0  0
    6.7989   -1.2138   -1.4527 F   0  0  0  0  0  0  0  0  0  0  0  0
    7.2238   -0.1015    0.4895 F   0  0  0  0  0  0  0  0  0  0  0  0
    4.4521   -0.1738   -0.3662 C   0  0  0  0  0  0  0  0  0  0  0  0
   -0.2079   -1.1701    0.7879 C   0  0  0  0  0  0  0  0  0  0  0  0
    0.1898   -2.4989    0.9038 C   0  0  0  0  0  0  0  0  0  0  0  0
   -0.7154   -3.4540    1.3315 C   0  0  0  0  0  0  0  0  0  0  0  0
   -2.0083   -3.1483    1.6524 C   0  0  0  0  0  0  0  0  0  0  0  0
   -2.3991   -1.8416    1.5394 C   0  0  0  0  0  0  0  0  0  0  0  0
   -1.5120   -0.8459    1.1099 C   0  0  0  0  0  0  0  0  0  0  0  0
   -1.9596    0.4912    1.0970 N   0  0  0  0  0  0  0  0  0  0  0  0
   -3.3246    0.9377    1.3641 C   0  0  0  0  0  0  0  0  0  0  0  0
   -4.2244    0.8533    0.2158 C   0  0  0  0  0  0  0  0  0  0  0  0
   -4.1956    1.8943   -0.7271 C   0  0  0  0  0  0  0  0  0  0  0  0
   -5.0300    1.8986   -1.8227 C   0  0  0  0  0  0  0  0  0  0  0  0
   -5.8969    0.8960   -2.0123 N   0  0  0  0  0  0  0  0  0  0  0  0
   -5.9496   -0.1059   -1.1368 C   0  0  0  0  0  0  0  0  0  0  0  0
   -5.1145   -0.1414   -0.0103 C   0  0  0  0  0  0  0  0  0  0  0  0
    2.4276   -1.4600    0.4635 H   0  0  0  0  0  0  0  0  0  0  0  0
    2.0223    2.1074   -0.7874 H   0  0  0  0  0  0  0  0  0  0  0  0
    3.8792    3.4148   -1.5824 H   0  0  0  0  0  0  0  0  0  0  0  0
    6.1537    2.4534   -1.6181 H   0  0  0  0  0  0  0  0  0  0  0  0
    4.6230   -1.1965   -0.0210 H   0  0  0  0  0  0  0  0  0  0  0  0
    1.2010   -2.7772    0.6498 H   0  0  0  0  0  0  0  0  0  0  0  0
   -0.3848   -4.4653    1.4115 H   0  0  0  0  0  0  0  0  0  0  0  0
   -2.7292   -3.9049    1.9916 H   0  0  0  0  0  0  0  0  0  0  0  0
   -3.3977   -1.5688    1.8049 H   0  0  0  0  0  0  0  0  0  0  0  0
   -1.3170    1.3189    0.9021 H   0  0  0  0  0  0  0  0  0  0  0  0
   -3.6715    0.3496    2.2553 H   0  0  0  0  0  0  0  0  0  0  0  0
   -3.3132    2.0014    1.7497 H   0  0  0  0  0  0  0  0  0  0  0  0
   -3.5117    2.7268   -0.6165 H   0  0  0  0  0  0  0  0  0  0  0  0
   -4.9884    2.7120   -2.5344 H   0  0  0  0  0  0  0  0  0  0  0  0
   -6.6300   -0.9357   -1.2453 H   0  0  0  0  0  0  0  0  0  0  0  0
   -5.2296   -0.9897    0.6672 H   0  0  0  0  0  0  0  0  0  0  0  0
  1  2  2  0
  2  3  1  0
  3  4  1  0
  4  5  2  0
  5  6  1  0
  6  7  2  0
  7  8  1  0
  8  9  1  0
  9 10  1  0
  9 11  1  0
  9 12  1  0
  8 13  2  0
  2 14  1  0
 14 15  2  0
 15 16  1  0
 16 17  2  0
 17 18  1  0
 18 19  2  0
 19 20  1  0
 20 21  1  0
 21 22  1  0
 22 23  2  0
 23 24  1  0
 24 25  2  0
 25 26  1  0
 26 27  2  0
 13  4  1  0
 19 14  1  0
 27 22  1  0
  3 28  1  0
  5 29  1  0
  6 30  1  0
  7 31  1  0
 13 32  1  0
 15 33  1  0
 16 34  1  0
 17 35  1  0
 18 36  1  0
 20 37  1  0
 21 38  1  0
 21 39  1  0
 23 40  1  0
 24 41  1  0
 26 42  1  0
 27 43  1  0
M  END
$$$$
