@<TRIPOS>MOLECULE
*****
 41 43 0 0 0
SMALL
GASTEIGER

@<TRIPOS>ATOM
      1 C          -1.6399    0.8155    1.3498 C.3     1  UNL1        0.1005
      2 S          -2.1105    1.6376   -0.1841 S.3     1  UNL1       -0.1273
      3 C          -3.5938    0.5608   -0.3552 C.3     1  UNL1        0.0417
      4 C          -4.6795    1.0195    0.5886 C.3     1  UNL1       -0.0484
      5 C          -4.0665    0.5274   -1.7897 C.3     1  UNL1       -0.0484
      6 CA         -3.0308   -0.7206    0.1061 C.3     1  UNL1        0.1379
      7 N          -2.0157   -0.5547    1.0599 N.am    1  UNL1       -0.2708
      8 C          -1.0395   -0.8990    1.9990 C.2     1  UNL1        0.2402
      9 O          -0.8615   -1.8048    2.8720 O.2     1  UNL1       -0.2734
     10 CA         -0.2693    0.3064    1.5104 C.3     1  UNL1        0.1277
     11 N           0.4792   -0.0270    0.3395 N.am    1  UNL1       -0.3015
     12 C           1.9096    0.1105    0.2687 C.2     1  UNL1        0.2180
     13 O           2.4707    0.5454    1.3064 O.2     1  UNL1       -0.2754
     14 C           2.6226   -0.2607   -0.9963 C.3     1  UNL1        0.0491
     15 C           4.0650   -0.0205   -0.7839 C.ar    1  UNL1       -0.0386
     16 C           4.5448    1.2322   -1.1055 C.ar    1  UNL1       -0.0581
     17 C           5.8795    1.4754   -0.9160 C.ar    1  UNL1       -0.0615
     18 C           6.7859    0.5570   -0.4247 C.ar    1  UNL1       -0.0617
     19 C           6.2931   -0.6957   -0.1057 C.ar    1  UNL1       -0.0615
     20 C           4.9414   -0.9790   -0.2853 C.ar    1  UNL1       -0.0581
     21 C          -4.1504   -1.5404    0.6937 C.2     1  UNL1        0.3269
     22 O          -4.8874   -2.2806    1.5969 O.3     1  UNL1       -0.4793
     23 OXT        -5.0971   -1.7146   -0.1455 O.2     1  UNL1       -0.2489
     24 H          -2.0529    1.2736    2.2466 H       1  UNL1        0.0640
     25 H          -5.0644    0.1941    1.2132 H       1  UNL1        0.0244
     26 H          -4.2645    1.7868    1.3018 H       1  UNL1        0.0244
     27 H          -5.5667    1.4403    0.0359 H       1  UNL1        0.0244
     28 H          -3.8098    1.4125   -2.3763 H       1  UNL1        0.0244
     29 H          -3.7380   -0.3703   -2.3319 H       1  UNL1        0.0244
     30 H          -5.1906    0.4956   -1.7448 H       1  UNL1        0.0244
     31 HA         -2.7357   -1.2969   -0.8090 H       1  UNL1        0.0631
     32 HA          0.3272    0.6785    2.3612 H       1  UNL1        0.0622
     33 H          -0.0905   -0.3860   -0.4829 H       1  UNL1        0.1495
     34 H           2.2370    0.2608   -1.8818 H       1  UNL1        0.0407
     35 H           2.5114   -1.3639   -1.1871 H       1  UNL1        0.0407
     36 H           3.8791    1.9911   -1.4945 H       1  UNL1        0.0620
     37 H           6.2918    2.4500   -1.1583 H       1  UNL1        0.0618
     38 H           7.8363    0.7728   -0.2837 H       1  UNL1        0.0618
     39 H           6.9474   -1.4539    0.2808 H       1  UNL1        0.0618
     40 H           4.5531   -1.9404   -0.0425 H       1  UNL1        0.0620
     41 H          -4.6203   -3.2349    1.8847 H       1  UNL1        0.2951
@<TRIPOS>BOND
     1     1     2    1
     2     2     3    1
     3     3     4    1
     4     3     5    1
     5     3     6    1
     6     6     7    1
     7     7     8   am
     8     8     9    2
     9     8    10    1
    10    10    11    1
    11    11    12   am
    12    12    13    2
    13    12    14    1
    14    14    15    1
    15    15    16   ar
    16    16    17   ar
    17    17    18   ar
    18    18    19   ar
    19    19    20   ar
    20     6    21    1
    21    21    22    1
    22    21    23    2
    23     7     1    1
    24    20    15   ar
    25    10     1    1
    26     1    24    1
    27     4    25    1
    28     4    26    1
    29     4    27    1
    30     5    28    1
    31     5    29    1
    32     5    30    1
    33     6    31    1
    34    10    32    1
    35    11    33    1
    36    14    34    1
    37    14    35    1
    38    16    36    1
    39    17    37    1
    40    18    38    1
    41    19    39    1
    42    20    40    1
    43    22    41    1
