
     RDKit          3D

 41 43  0  0  0  0  0  0  0  0999 V2000
   -1.6399    0.8155    1.3498 C   0  0  1  0  0  0  0  0  0  0  0  0
   -2.1105    1.6376   -0.1841 S   0  0  0  0  0  0  0  0  0  0  0  0
   -3.5938    0.5608   -0.3552 C   0  0  0  0  0  0  0  0  0  0  0  0
   -4.6795    1.0195    0.5886 C   0  0  0  0  0  0  0  0  0  0  0  0
   -4.0665    0.5274   -1.7897 C   0  0  0  0  0  0  0  0  0  0  0  0
   -3.0308   -0.7206    0.1061 C   0  0  1  0  0  0  0  0  0  0  0  0
   -2.0157   -0.5547    1.0599 N   0  0  0  0  0  0  0  0  0  0  0  0
   -1.0395   -0.8990    1.9990 C   0  0  0  0  0  0  0  0  0  0  0  0
   -0.8615   -1.8048    2.8720 O   0  0  0  0  0  0  0  0  0  0  0  0
   -0.2693    0.3064    1.5104 C   0  0  1  0  0  0  0  0  0  0  0  0
    0.4792   -0.0270    0.3395 N   0  0  0  0  0  0  0  0  0  0  0  0
    1.9096    0.1105    0.2687 C   0  0  0  0  0  0  0  0  0  0  0  0
    2.4707    0.5454    1.3064 O   0  0  0  0  0  0  0  0  0  0  0  0
    2.6226   -0.2607   -0.9963 C   0  0  0  0  0  0  0  0  0  0  0  0
    4.0650   -0.0205   -0.7839 C   0  0  0  0  0  0  0  0  0  0  0  0
    4.5448    1.2322   -1.1055 C   0  0  0  0  0  0  0  0  0  0  0  0
    5.8795    1.4754   -0.9160 C   0  0  0  0  0  0  0  0  0  0  0  0
    6.7859    0.5570   -0.4247 C   0  0  0  0  0  0  0  0  0  0  0  0
    6.2931   -0.6957   -0.1057 C   0  0  0  0  0  0  0  0  0  0  0  0
    4.9414   -0.9790   -0.2853 C   0  0  0  0  0  0  0  0  0  0  0  0
   -4.1504   -1.5404    0.6937 C   0  0  0  0  0  0  0  0  0  0  0  0
   -4.8874   -2.2806    1.5969 O   0  0  0  0  0  0  0  0  0  0  0  0
   -5.0971   -1.7146   -0.1455 O   0  0  0  0  0  0  0  0  0  0  0  0
   -2.0529    1.2736    2.2466 H   0  0  0  0  0  0  0  0  0  0  0  0
   -5.0644    0.1941    1.2132 H   0  0  0  0  0  0  0  0  0  0  0  0
   -4.2645    1.7868    1.3018 H   0  0  0  0  0  0  0  0  0  0  0  0
   -5.5667    1.4403    0.0359 H   0  0  0  0  0  0  0  0  0  0  0  0
   -3.8098    1.4125   -2.3763 H   0  0  0  0  0  0  0  0  0  0  0  0
   -3.7380   -0.3703   -2.3319 H   0  0  0  0  0  0  0  0  0  0  0  0
   -5.1906    0.4956   -1.7448 H   0  0  0  0  0  0  0  0  0  0  0  0
   -2.7357   -1.2969   -0.8090 H   0  0  0  0  0  0  0  0  0  0  0  0
    0.3272    0.6785    2.3612 H   0  0  0  0  0  0  0  0  0  0  0  0
   -0.0905   -0.3860   -0.4829 H   0  0  0  0  0  0  0  0  0  0  0  0
    2.2370    0.2608   -1.8818 H   0  0  0  0  0  0  0  0  0  0  0  0
    2.5114   -1.3639   -1.1871 H   0  0  0  0  0  0  0  0  0  0  0  0
    3.8791    1.9911   -1.4945 H   0  0  0  0  0  0  0  0  0  0  0  0
    6.2918    2.4500   -1.1583 H   0  0  0  0  0  0  0  0  0  0  0  0
    7.8363    0.7728   -0.2837 H   0  0  0  0  0  0  0  0  0  0  0  0
    6.9474   -1.4539    0.2808 H   0  0  0  0  0  0  0  0  0  0  0  0
    4.5531   -1.9404   -0.0425 H   0  0  0  0  0  0  0  0  0  0  0  0
   -4.6203   -3.2349    1.8847 H   0  0  0  0  0  0  0  0  0  0  0  0
  1  2  1  0
  2  3  1  0
  3  4  1  0
  3  5  1  0
  3  6  1  0
  6  7  1  0
  7  8  1  0
  8  9  2  0
  8 10  1  0
 10 11  1  0
 11 12  1  0
 12 13  2  0
 12 14  1  0
 14 15  1  0
 15 16  2  0
 16 17  1  0
 17 18  2  0
 18 19  1  0
 19 20  2  0
  6 21  1  0
 21 22  1  0
 21 23  2  0
  7  1  1  0
 20 15  1  0
 10  1  1  0
  1 24  1  1
  4 25  1  0
  4 26  1  0
  4 27  1  0
  5 28  1  0
  5 29  1  0
  5 30  1  0
  6 31  1  6
 10 32  1  1
 11 33  1  0
 14 34  1  0
 14 35  1  0
 16 36  1  0
 17 37  1  0
 18 38  1  0
 19 39  1  0
 20 40  1  0
 22 41  1  0
M  END
$$$$
