@<TRIPOS>MOLECULE
*****
 62 65 0 0 0
SMALL
GASTEIGER

@<TRIPOS>ATOM
      1 C           0.2768   -3.1184   -1.5899 C.3     1  UNL1       -0.0421
      2 C           0.3859   -2.3970   -0.2709 C.3     1  UNL1        0.0515
      3 C           1.6964   -1.7226   -0.1392 C.ar    1  UNL1       -0.0271
      4 C           2.0520   -0.5091   -0.6471 C.ar    1  UNL1       -0.0562
      5 C           3.3280    0.0396   -0.4621 C.ar    1  UNL1       -0.0522
      6 C           4.2928   -0.6312    0.2502 C.ar    1  UNL1        0.0021
      7 C           5.6320   -0.0404    0.4371 C.ar    1  UNL1        0.0916
      8 C           6.6417   -0.6523    1.1323 C.ar    1  UNL1       -0.0289
      9 C           7.8919   -0.0389    1.2728 C.ar    1  UNL1        0.0064
     10 C           8.0872    1.2050    0.6915 C.ar    1  UNL1        0.2670
     11 O           9.1896    1.7951    0.7896 O.2     1  UNL1       -0.2662
     12 N           7.0640    1.7590    0.0218 N.ar    1  UNL1       -0.2321
     13 C           7.2448    3.0546   -0.5918 C.3     1  UNL1        0.0340
     14 N           5.8837    1.1646   -0.1028 N.ar    1  UNL1       -0.1685
     15 C           3.9601   -1.8573    0.7731 C.ar    1  UNL1       -0.0522
     16 C           2.6973   -2.3867    0.5828 C.ar    1  UNL1       -0.0562
     17 N          -0.7725   -1.5733   -0.0428 N.am    1  UNL1       -0.2605
     18 C          -1.1421   -0.5135   -0.9284 C.3     1  UNL1        0.0224
     19 C          -2.6822   -0.5852   -1.0487 C.3     1  UNL1        0.0075
     20 C          -3.3132   -0.1795    0.2283 C.3     1  UNL1        0.1415
     21 C          -4.7282   -0.7471    0.3712 C.3     1  UNL1       -0.0064
     22 C          -5.6256   -0.2738   -0.7371 C.3     1  UNL1       -0.0258
     23 C          -7.0227   -0.8372   -0.5902 C.3     1  UNL1        0.0443
     24 O          -7.8627   -0.4051   -1.6117 O.3     1  UNL1       -0.3950
     25 C          -3.3426    1.2864    0.4332 C.ar    1  UNL1       -0.0041
     26 C          -2.8913    2.1911   -0.4960 C.ar    1  UNL1       -0.0548
     27 C          -2.9286    3.5561   -0.2693 C.ar    1  UNL1       -0.0614
     28 C          -3.4232    4.0570    0.9041 C.ar    1  UNL1       -0.0617
     29 C          -3.8811    3.1677    1.8492 C.ar    1  UNL1       -0.0614
     30 C          -3.8403    1.7979    1.6142 C.ar    1  UNL1       -0.0548
     31 O          -2.5931   -0.7738    1.3147 O.3     1  UNL1       -0.4388
     32 C          -1.6561   -1.7909    1.0510 C.2     1  UNL1        0.4042
     33 O          -1.5713   -2.8504    1.7225 O.2     1  UNL1       -0.2262
     34 H           0.7010   -2.5344   -2.4308 H       1  UNL1        0.0251
     35 H          -0.7553   -3.4660   -1.7949 H       1  UNL1        0.0251
     36 H           0.8991   -4.0342   -1.5109 H       1  UNL1        0.0251
     37 H           0.3650   -3.2522    0.5202 H       1  UNL1        0.0549
     38 H           1.3234    0.0445   -1.2136 H       1  UNL1        0.0621
     39 H           3.5419    1.0058   -0.8926 H       1  UNL1        0.0624
     40 H           6.5082   -1.6094    1.5855 H       1  UNL1        0.0641
     41 H           8.6925   -0.5140    1.8187 H       1  UNL1        0.0673
     42 H           7.4019    3.8067    0.2145 H       1  UNL1        0.0474
     43 H           6.3498    3.3663   -1.1666 H       1  UNL1        0.0474
     44 H           8.1203    3.0021   -1.2819 H       1  UNL1        0.0474
     45 H           4.6954   -2.4089    1.3374 H       1  UNL1        0.0624
     46 H           2.4547   -3.3555    1.0015 H       1  UNL1        0.0621
     47 H          -0.7091   -0.6167   -1.9482 H       1  UNL1        0.0467
     48 H          -0.8586    0.4431   -0.4498 H       1  UNL1        0.0467
     49 H          -2.9085   -1.6791   -1.2050 H       1  UNL1        0.0322
     50 H          -3.0137   -0.0622   -1.9374 H       1  UNL1        0.0322
     51 H          -5.1788   -0.4354    1.3335 H       1  UNL1        0.0308
     52 H          -4.7084   -1.8541    0.3652 H       1  UNL1        0.0308
     53 H          -5.7227    0.8196   -0.7883 H       1  UNL1        0.0289
     54 H          -5.2554   -0.6029   -1.7398 H       1  UNL1        0.0289
     55 H          -7.4901   -0.4768    0.3663 H       1  UNL1        0.0557
     56 H          -7.0217   -1.9484   -0.5692 H       1  UNL1        0.0557
     57 H          -7.5009   -0.8026   -2.4528 H       1  UNL1        0.2094
     58 H          -2.5004    1.8569   -1.4268 H       1  UNL1        0.0622
     59 H          -2.5648    4.2670   -1.0199 H       1  UNL1        0.0618
     60 H          -3.4352    5.1338    1.0430 H       1  UNL1        0.0618
     61 H          -4.2695    3.5756    2.7705 H       1  UNL1        0.0618
     62 H          -4.2072    1.1409    2.3778 H       1  UNL1        0.0622
@<TRIPOS>BOND
     1     1     2    1
     2     2     3    1
     3     3     4   ar
     4     4     5   ar
     5     5     6   ar
     6     6     7    1
     7     7     8   ar
     8     8     9   ar
     9     9    10   ar
    10    10    11    2
    11    10    12   ar
    12    12    13    1
    13    12    14   ar
    14     6    15   ar
    15    15    16   ar
    16     2    17    1
    17    17    18    1
    18    18    19    1
    19    19    20    1
    20    20    21    1
    21    21    22    1
    22    22    23    1
    23    23    24    1
    24    20    25    1
    25    25    26   ar
    26    26    27   ar
    27    27    28   ar
    28    28    29   ar
    29    29    30   ar
    30    20    31    1
    31    31    32    1
    32    32    33    2
    33    16     3   ar
    34    32    17   am
    35    14     7   ar
    36    30    25   ar
    37     1    34    1
    38     1    35    1
    39     1    36    1
    40     2    37    1
    41     4    38    1
    42     5    39    1
    43     8    40    1
    44     9    41    1
    45    13    42    1
    46    13    43    1
    47    13    44    1
    48    15    45    1
    49    16    46    1
    50    18    47    1
    51    18    48    1
    52    19    49    1
    53    19    50    1
    54    21    51    1
    55    21    52    1
    56    22    53    1
    57    22    54    1
    58    23    55    1
    59    23    56    1
    60    24    57    1
    61    26    58    1
    62    27    59    1
    63    28    60    1
    64    29    61    1
    65    30    62    1
