
     RDKit          3D

 44 46  0  0  0  0  0  0  0  0999 V2000
    6.1362    1.2196    1.0128 C   0  0  0  0  0  0  0  0  0  0  0  0
    6.0670   -0.2081    1.1176 N   0  0  0  0  0  0  0  0  0  0  0  0
    6.9969   -0.8896    1.9930 C   0  0  0  0  0  0  0  0  0  0  0  0
    5.1288   -0.9567    0.4001 C   0  0  0  0  0  0  0  0  0  0  0  0
    5.0846   -2.2291    0.5066 O   0  0  0  0  0  0  0  0  0  0  0  0
    4.1967   -0.3123   -0.4701 N   0  0  0  0  0  0  0  0  0  0  0  0
    4.0965    0.9802   -0.6973 N   0  0  0  0  0  0  0  0  0  0  0  0
    3.1260    1.2252   -1.5581 N   0  0  0  0  0  0  0  0  0  0  0  0
    2.5791    0.0462   -1.8997 C   0  0  0  0  0  0  0  0  0  0  0  0
    1.4565   -0.2249   -2.8348 C   0  0  0  0  0  0  0  0  0  0  0  0
    0.1394   -0.2423   -2.1636 C   0  0  0  0  0  0  0  0  0  0  0  0
   -0.3719   -1.4360   -1.6571 C   0  0  0  0  0  0  0  0  0  0  0  0
   -1.5976   -1.4853   -1.0264 C   0  0  0  0  0  0  0  0  0  0  0  0
   -2.3757   -0.3500   -0.8680 C   0  0  0  0  0  0  0  0  0  0  0  0
   -3.6647   -0.4519   -0.1963 C   0  0  0  0  0  0  0  0  0  0  0  0
   -4.4389   -1.6061   -0.2833 C   0  0  0  0  0  0  0  0  0  0  0  0
   -5.6531   -1.6781    0.3624 C   0  0  0  0  0  0  0  0  0  0  0  0
   -6.0527   -0.5687    1.0847 C   0  0  0  0  0  0  0  0  0  0  0  0
   -5.3039    0.5795    1.1832 C   0  0  0  0  0  0  0  0  0  0  0  0
   -5.8428    1.7060    1.9921 C   0  0  0  0  0  0  0  0  0  0  0  0
   -6.6152    2.5739    1.2483 O   0  0  0  0  0  0  0  0  0  0  0  0
   -4.0975    0.6349    0.5343 C   0  0  0  0  0  0  0  0  0  0  0  0
   -1.8740    0.8334   -1.3676 C   0  0  0  0  0  0  0  0  0  0  0  0
   -0.6415    0.8802   -2.0012 C   0  0  0  0  0  0  0  0  0  0  0  0
    3.2546   -0.8832   -1.2177 N   0  0  0  0  0  0  0  0  0  0  0  0
    6.3016    1.5613   -0.0493 H   0  0  0  0  0  0  0  0  0  0  0  0
    6.9968    1.6295    1.6116 H   0  0  0  0  0  0  0  0  0  0  0  0
    5.2005    1.6751    1.3656 H   0  0  0  0  0  0  0  0  0  0  0  0
    8.0009   -0.8642    1.5547 H   0  0  0  0  0  0  0  0  0  0  0  0
    6.6783   -1.9450    2.2013 H   0  0  0  0  0  0  0  0  0  0  0  0
    7.0446   -0.2978    2.9437 H   0  0  0  0  0  0  0  0  0  0  0  0
    1.6576   -1.1586   -3.4004 H   0  0  0  0  0  0  0  0  0  0  0  0
    1.4319    0.5819   -3.6261 H   0  0  0  0  0  0  0  0  0  0  0  0
    0.2449   -2.3211   -1.7857 H   0  0  0  0  0  0  0  0  0  0  0  0
   -1.9889   -2.4324   -0.6317 H   0  0  0  0  0  0  0  0  0  0  0  0
   -4.0793   -2.4440   -0.8610 H   0  0  0  0  0  0  0  0  0  0  0  0
   -6.2827   -2.5694    0.3131 H   0  0  0  0  0  0  0  0  0  0  0  0
   -7.0238   -0.6661    1.5833 H   0  0  0  0  0  0  0  0  0  0  0  0
   -4.9987    2.2388    2.5139 H   0  0  0  0  0  0  0  0  0  0  0  0
   -6.4633    1.2868    2.8112 H   0  0  0  0  0  0  0  0  0  0  0  0
   -6.2088    3.4715    1.2961 H   0  0  0  0  0  0  0  0  0  0  0  0
   -3.4834    1.5456    0.6011 H   0  0  0  0  0  0  0  0  0  0  0  0
   -2.4854    1.7348   -1.2449 H   0  0  0  0  0  0  0  0  0  0  0  0
   -0.2758    1.8165   -2.3806 H   0  0  0  0  0  0  0  0  0  0  0  0
  1  2  1  0
  2  3  1  0
  2  4  1  0
  4  5  2  0
  4  6  1  0
  6  7  1  0
  7  8  2  0
  8  9  1  0
  9 10  1  0
 10 11  1  0
 11 12  2  0
 12 13  1  0
 13 14  2  0
 14 15  1  0
 15 16  2  0
 16 17  1  0
 17 18  2  0
 18 19  1  0
 19 20  1  0
 20 21  1  0
 19 22  2  0
 14 23  1  0
 23 24  2  0
  9 25  2  0
 25  6  1  0
 24 11  1  0
 22 15  1  0
  1 26  1  0
  1 27  1  0
  1 28  1  0
  3 29  1  0
  3 30  1  0
  3 31  1  0
 10 32  1  0
 10 33  1  0
 12 34  1  0
 13 35  1  0
 16 36  1  0
 17 37  1  0
 18 38  1  0
 20 39  1  0
 20 40  1  0
 21 41  1  0
 22 42  1  0
 23 43  1  0
 24 44  1  0
M  END
$$$$
