@<TRIPOS>MOLECULE
*****
 44 46 0 0 0
SMALL
GASTEIGER

@<TRIPOS>ATOM
      1 C           6.1362    1.2196    1.0128 C.3     1  UNL1        0.0046
      2 N           6.0670   -0.2081    1.1176 N.am    1  UNL1       -0.2869
      3 C           6.9969   -0.8896    1.9930 C.3     1  UNL1        0.0046
      4 C           5.1288   -0.9567    0.4001 C.2     1  UNL1        0.3553
      5 O           5.0846   -2.2291    0.5066 O.2     1  UNL1       -0.2459
      6 N           4.1967   -0.3123   -0.4701 N.ar    1  UNL1       -0.0764
      7 N           4.0965    0.9802   -0.6973 N.ar    1  UNL1       -0.0369
      8 N           3.1260    1.2252   -1.5581 N.ar    1  UNL1       -0.1122
      9 C           2.5791    0.0462   -1.8997 C.ar    1  UNL1        0.1794
     10 C           1.4565   -0.2249   -2.8348 C.3     1  UNL1        0.0361
     11 C           0.1394   -0.2423   -2.1636 C.ar    1  UNL1       -0.0399
     12 C          -0.3719   -1.4360   -1.6571 C.ar    1  UNL1       -0.0576
     13 C          -1.5976   -1.4853   -1.0264 C.ar    1  UNL1       -0.0538
     14 C          -2.3757   -0.3500   -0.8680 C.ar    1  UNL1       -0.0179
     15 C          -3.6647   -0.4519   -0.1963 C.ar    1  UNL1       -0.0176
     16 C          -4.4389   -1.6061   -0.2833 C.ar    1  UNL1       -0.0540
     17 C          -5.6531   -1.6781    0.3624 C.ar    1  UNL1       -0.0609
     18 C          -6.0527   -0.5687    1.0847 C.ar    1  UNL1       -0.0564
     19 C          -5.3039    0.5795    1.1832 C.ar    1  UNL1       -0.0216
     20 C          -5.8428    1.7060    1.9921 C.3     1  UNL1        0.0693
     21 O          -6.6152    2.5739    1.2483 O.3     1  UNL1       -0.3904
     22 C          -4.0975    0.6349    0.5343 C.ar    1  UNL1       -0.0487
     23 C          -1.8740    0.8334   -1.3676 C.ar    1  UNL1       -0.0538
     24 C          -0.6415    0.8802   -2.0012 C.ar    1  UNL1       -0.0576
     25 N           3.2546   -0.8832   -1.2177 N.ar    1  UNL1       -0.1262
     26 H           6.3016    1.5613   -0.0493 H       1  UNL1        0.0429
     27 H           6.9968    1.6295    1.6116 H       1  UNL1        0.0429
     28 H           5.2005    1.6751    1.3656 H       1  UNL1        0.0429
     29 H           8.0009   -0.8642    1.5547 H       1  UNL1        0.0429
     30 H           6.6783   -1.9450    2.2013 H       1  UNL1        0.0429
     31 H           7.0446   -0.2978    2.9437 H       1  UNL1        0.0429
     32 H           1.6576   -1.1586   -3.4004 H       1  UNL1        0.0393
     33 H           1.4319    0.5819   -3.6261 H       1  UNL1        0.0393
     34 H           0.2449   -2.3211   -1.7857 H       1  UNL1        0.0621
     35 H          -1.9889   -2.4324   -0.6317 H       1  UNL1        0.0624
     36 H          -4.0793   -2.4440   -0.8610 H       1  UNL1        0.0624
     37 H          -6.2827   -2.5694    0.3131 H       1  UNL1        0.0618
     38 H          -7.0238   -0.6661    1.5833 H       1  UNL1        0.0621
     39 H          -4.9987    2.2388    2.5139 H       1  UNL1        0.0607
     40 H          -6.4633    1.2868    2.8112 H       1  UNL1        0.0607
     41 H          -6.2088    3.4715    1.2961 H       1  UNL1        0.2098
     42 H          -3.4834    1.5456    0.6011 H       1  UNL1        0.0627
     43 H          -2.4854    1.7348   -1.2449 H       1  UNL1        0.0624
     44 H          -0.2758    1.8165   -2.3806 H       1  UNL1        0.0621
@<TRIPOS>BOND
     1     1     2    1
     2     2     3    1
     3     2     4   am
     4     4     5    2
     5     4     6   am
     6     6     7   ar
     7     7     8   ar
     8     8     9   ar
     9     9    10    1
    10    10    11    1
    11    11    12   ar
    12    12    13   ar
    13    13    14   ar
    14    14    15    1
    15    15    16   ar
    16    16    17   ar
    17    17    18   ar
    18    18    19   ar
    19    19    20    1
    20    20    21    1
    21    19    22   ar
    22    14    23   ar
    23    23    24   ar
    24     9    25   ar
    25    25     6   ar
    26    24    11   ar
    27    22    15   ar
    28     1    26    1
    29     1    27    1
    30     1    28    1
    31     3    29    1
    32     3    30    1
    33     3    31    1
    34    10    32    1
    35    10    33    1
    36    12    34    1
    37    13    35    1
    38    16    36    1
    39    17    37    1
    40    18    38    1
    41    20    39    1
    42    20    40    1
    43    21    41    1
    44    22    42    1
    45    23    43    1
    46    24    44    1
