@<TRIPOS>MOLECULE
*****
 53 55 0 0 0
SMALL
GASTEIGER

@<TRIPOS>ATOM
      1 C           2.3691   -2.1184   -0.5058 C.3     1  UNL1       -0.0164
      2 C           2.3406   -0.5921   -0.6591 C.3     1  UNL1        0.1816
      3 C           2.1383   -0.3911   -2.1882 C.3     1  UNL1       -0.0164
      4 O           3.3796    0.0043   -0.1976 O.3     1  UNL1       -0.4609
      5 C           4.4603    0.5679    0.2220 C.ar    1  UNL1        0.2157
      6 C           5.2222    0.0313    1.2805 C.ar    1  UNL1        0.0012
      7 C           6.3622    0.6217    1.7258 C.ar    1  UNL1       -0.0379
      8 C           6.8114    1.7848    1.1412 C.ar    1  UNL1        0.0701
      9 C           8.0181    2.4279    1.5947 C.1     1  UNL1        0.1007
     10 N           8.9783    2.9301    1.9731 N.1     1  UNL1       -0.1908
     11 C           6.0656    2.3074    0.1074 C.ar    1  UNL1        0.0487
     12 N           4.9552    1.7236   -0.3193 N.ar    1  UNL1       -0.2200
     13 C           1.0296   -0.0796   -0.0982 C.2     1  UNL1        0.2566
     14 O           1.1152    0.8525    0.7296 O.2     1  UNL1       -0.2714
     15 N          -0.2283   -0.6140   -0.4785 N.am    1  UNL1       -0.3087
     16 C          -1.4229   -0.0847    0.0876 C.3     1  UNL1        0.0289
     17 C          -2.3045    0.4905   -0.9766 C.3     1  UNL1       -0.0216
     18 C          -3.1348   -0.4597   -1.7422 C.3     1  UNL1       -0.0485
     19 C          -3.1985   -1.8646   -1.2999 C.3     1  UNL1       -0.0524
     20 C          -2.4789   -2.2411   -0.0581 C.3     1  UNL1       -0.0485
     21 C          -2.2312   -1.0781    0.8750 C.3     1  UNL1       -0.0216
     22 C          -3.5253   -0.4332    1.2711 C.3     1  UNL1       -0.0374
     23 C          -3.5223    1.0684    1.1084 C.3     1  UNL1        0.0360
     24 C          -4.8329    1.6025    1.4662 C.2     1  UNL1        0.2136
     25 N          -6.0444    1.2419    0.8117 N.am    1  UNL1       -0.3291
     26 O          -4.9259    2.4318    2.4042 O.2     1  UNL1       -0.2757
     27 C          -3.2101    1.4997   -0.3026 C.3     1  UNL1       -0.0374
     28 H           2.2114   -2.3344    0.5557 H       1  UNL1        0.0273
     29 H           3.3827   -2.4292   -0.8350 H       1  UNL1        0.0273
     30 H           1.6356   -2.6054   -1.1473 H       1  UNL1        0.0273
     31 H           1.3628   -1.1285   -2.4746 H       1  UNL1        0.0273
     32 H           1.7760    0.6250   -2.3913 H       1  UNL1        0.0273
     33 H           3.0573   -0.6639   -2.7287 H       1  UNL1        0.0273
     34 H           4.8530   -0.8712    1.7174 H       1  UNL1        0.0671
     35 H           6.9547    0.2090    2.5457 H       1  UNL1        0.0632
     36 H           6.4564    3.2371   -0.3340 H       1  UNL1        0.0844
     37 H          -0.1874   -1.3908   -1.1763 H       1  UNL1        0.1491
     38 H          -1.1648    0.7352    0.7857 H       1  UNL1        0.0504
     39 H          -1.6083    1.0803   -1.6478 H       1  UNL1        0.0319
     40 H          -2.7390   -0.4627   -2.8061 H       1  UNL1        0.0269
     41 H          -4.1764   -0.0367   -1.8954 H       1  UNL1        0.0269
     42 H          -2.9222   -2.5847   -2.1286 H       1  UNL1        0.0265
     43 H          -4.2853   -2.1265   -1.1175 H       1  UNL1        0.0265
     44 H          -1.4900   -2.6871   -0.2913 H       1  UNL1        0.0269
     45 H          -3.0249   -3.0218    0.5468 H       1  UNL1        0.0269
     46 H          -1.6544   -1.4666    1.7378 H       1  UNL1        0.0319
     47 H          -3.6546   -0.6224    2.3687 H       1  UNL1        0.0276
     48 H          -4.3993   -0.9076    0.7807 H       1  UNL1        0.0276
     49 H          -2.7658    1.4591    1.8165 H       1  UNL1        0.0394
     50 H          -6.3533    0.2644    0.6814 H       1  UNL1        0.1449
     51 H          -6.6626    1.9936    0.4394 H       1  UNL1        0.1449
     52 H          -4.1090    1.6405   -0.9261 H       1  UNL1        0.0276
     53 H          -2.6780    2.4657   -0.2478 H       1  UNL1        0.0276
@<TRIPOS>BOND
     1     1     2    1
     2     2     3    1
     3     2     4    1
     4     4     5    1
     5     5     6   ar
     6     6     7   ar
     7     7     8   ar
     8     8     9    1
     9     9    10    3
    10     8    11   ar
    11    11    12   ar
    12     2    13    1
    13    13    14    2
    14    13    15   am
    15    15    16    1
    16    16    17    1
    17    17    18    1
    18    18    19    1
    19    19    20    1
    20    20    21    1
    21    21    22    1
    22    22    23    1
    23    23    24    1
    24    24    25   am
    25    24    26    2
    26    23    27    1
    27    12     5   ar
    28    21    16    1
    29    27    17    1
    30     1    28    1
    31     1    29    1
    32     1    30    1
    33     3    31    1
    34     3    32    1
    35     3    33    1
    36     6    34    1
    37     7    35    1
    38    11    36    1
    39    15    37    1
    40    16    38    1
    41    17    39    1
    42    18    40    1
    43    18    41    1
    44    19    42    1
    45    19    43    1
    46    20    44    1
    47    20    45    1
    48    21    46    1
    49    22    47    1
    50    22    48    1
    51    23    49    1
    52    25    50    1
    53    25    51    1
    54    27    52    1
    55    27    53    1
