
     RDKit          3D

 33 33  0  0  0  0  0  0  0  0999 V2000
    0.9032   -1.9686   -0.8290 C   0  0  1  0  0  0  0  0  0  0  0  0
    1.5081   -3.2217   -0.9017 O   0  0  0  0  0  0  0  0  0  0  0  0
   -0.4968   -1.9740   -1.3590 C   0  0  2  0  0  0  0  0  0  0  0  0
   -0.6732   -1.0102   -2.3608 O   0  0  0  0  0  0  0  0  0  0  0  0
   -1.3195   -1.5926   -0.1778 C   0  0  2  0  0  0  0  0  0  0  0  0
   -2.1008   -0.3002   -0.4336 C   0  0  0  0  0  0  0  0  0  0  0  0
   -2.9057   -0.0569    0.6691 O   0  0  0  0  0  0  0  0  0  0  0  0
   -3.8175    1.3520    0.4906 P   0  0  0  0  0  0  0  0  0  0  0  0
   -3.5931    1.9446   -1.0719 O   0  0  0  0  0  0  0  0  0  0  0  0
   -3.3878    2.5355    1.6120 O   0  0  0  0  0  0  0  0  0  0  0  0
   -5.2699    1.0010    0.7157 O   0  0  0  0  0  0  0  0  0  0  0  0
   -0.5345   -1.4920    0.9361 O   0  0  0  0  0  0  0  0  0  0  0  0
    0.7986   -1.4469    0.5663 C   0  0  2  0  0  0  0  0  0  0  0  0
    1.3814   -0.0466    0.6788 C   0  0  0  0  0  0  0  0  0  0  0  0
    2.7137    0.0022    0.3098 O   0  0  0  0  0  0  0  0  0  0  0  0
    3.3714    1.5475    0.4280 P   0  0  0  0  0  0  0  0  0  0  0  0
    5.0503    1.3969    0.2001 O   0  0  0  0  0  0  0  0  0  0  0  0
    3.0026    2.3071    1.8944 O   0  0  0  0  0  0  0  0  0  0  0  0
    2.8919    2.4808   -0.6587 O   0  0  0  0  0  0  0  0  0  0  0  0
    1.4885   -1.2370   -1.4271 H   0  0  0  0  0  0  0  0  0  0  0  0
    2.4478   -3.1162   -1.1682 H   0  0  0  0  0  0  0  0  0  0  0  0
   -0.7290   -2.9712   -1.7687 H   0  0  0  0  0  0  0  0  0  0  0  0
   -0.5158   -1.4527   -3.2482 H   0  0  0  0  0  0  0  0  0  0  0  0
   -2.0473   -2.4210   -0.0110 H   0  0  0  0  0  0  0  0  0  0  0  0
   -1.4162    0.5111   -0.6964 H   0  0  0  0  0  0  0  0  0  0  0  0
   -2.7719   -0.4623   -1.3065 H   0  0  0  0  0  0  0  0  0  0  0  0
   -3.4428    2.9151   -1.1069 H   0  0  0  0  0  0  0  0  0  0  0  0
   -2.5502    2.3637    2.0820 H   0  0  0  0  0  0  0  0  0  0  0  0
    1.3956   -2.1019    1.2382 H   0  0  0  0  0  0  0  0  0  0  0  0
    0.8423    0.6979    0.0946 H   0  0  0  0  0  0  0  0  0  0  0  0
    1.3363    0.2485    1.7623 H   0  0  0  0  0  0  0  0  0  0  0  0
    5.4786    2.2904    0.1012 H   0  0  0  0  0  0  0  0  0  0  0  0
    2.9619    3.2777    1.8145 H   0  0  0  0  0  0  0  0  0  0  0  0
  1  2  1  0
  1  3  1  0
  3  4  1  0
  3  5  1  0
  5  6  1  0
  6  7  1  0
  7  8  1  0
  8  9  1  0
  8 10  1  0
  8 11  2  0
  5 12  1  0
 12 13  1  0
 13 14  1  0
 14 15  1  0
 15 16  1  0
 16 17  1  0
 16 18  1  0
 16 19  2  0
 13  1  1  0
  1 20  1  6
  2 21  1  0
  3 22  1  6
  4 23  1  0
  5 24  1  1
  6 25  1  0
  6 26  1  0
  9 27  1  0
 10 28  1  0
 13 29  1  1
 14 30  1  0
 14 31  1  0
 17 32  1  0
 18 33  1  0
M  END
$$$$
