@<TRIPOS>MOLECULE
*****
 29 29 0 0 0
SMALL
GASTEIGER

@<TRIPOS>ATOM
      1 C           3.7610   -0.4896    0.9312 C.3     1  UNL1       -0.0024
      2 N           2.4534    0.1320    0.8757 N.pl3   1  UNL1       -0.3454
      3 C           1.3813   -0.5429    0.2394 C.ar    1  UNL1        0.0515
      4 C           1.5830   -1.8023   -0.3389 C.ar    1  UNL1        0.0488
      5 N           0.5779   -2.4510   -0.9484 N.ar    1  UNL1       -0.2596
      6 C          -0.6366   -1.9182   -1.0208 C.ar    1  UNL1        0.0490
      7 C          -0.8742   -0.6598   -0.4528 C.ar    1  UNL1        0.0538
      8 N          -2.1775   -0.1224   -0.5255 N.pl3   1  UNL1       -0.3346
      9 C          -2.9589    0.0257    0.6656 C.3     1  UNL1        0.0004
     10 C          -2.7068    0.2714   -1.7969 C.3     1  UNL1        0.0004
     11 C           0.1418    0.0437    0.1869 C.ar    1  UNL1        0.0109
     12 C          -0.0489    1.3753    0.7943 C.3     1  UNL1        0.0222
     13 N           0.5503    2.4216   -0.0537 N.3     1  UNL1       -0.3260
     14 H           4.4974    0.1012    1.4749 H       1  UNL1        0.0425
     15 H           4.0579   -0.7065   -0.1225 H       1  UNL1        0.0425
     16 H           3.6749   -1.5015    1.4231 H       1  UNL1        0.0425
     17 H           2.3635    1.0661    1.3145 H       1  UNL1        0.1458
     18 H           2.5922   -2.2059   -0.2581 H       1  UNL1        0.0848
     19 H          -1.4840   -2.3996   -1.5019 H       1  UNL1        0.0848
     20 H          -3.4163    1.0282    0.7788 H       1  UNL1        0.0428
     21 H          -3.8365   -0.6947    0.6059 H       1  UNL1        0.0428
     22 H          -2.4061   -0.2415    1.5978 H       1  UNL1        0.0428
     23 H          -3.3899    1.1445   -1.7306 H       1  UNL1        0.0428
     24 H          -1.9201    0.4701   -2.5667 H       1  UNL1        0.0428
     25 H          -3.3360   -0.5921   -2.1591 H       1  UNL1        0.0428
     26 H          -1.1246    1.6315    0.8998 H       1  UNL1        0.0472
     27 H           0.4418    1.4418    1.7698 H       1  UNL1        0.0472
     28 H           0.9409    3.1843    0.5429 H       1  UNL1        0.1185
     29 H           1.2992    1.9908   -0.6244 H       1  UNL1        0.1185
@<TRIPOS>BOND
     1     1     2    1
     2     2     3    1
     3     3     4   ar
     4     4     5   ar
     5     5     6   ar
     6     6     7   ar
     7     7     8    1
     8     8     9    1
     9     8    10    1
    10     7    11   ar
    11    11    12    1
    12    12    13    1
    13    11     3   ar
    14     1    14    1
    15     1    15    1
    16     1    16    1
    17     2    17    1
    18     4    18    1
    19     6    19    1
    20     9    20    1
    21     9    21    1
    22     9    22    1
    23    10    23    1
    24    10    24    1
    25    10    25    1
    26    12    26    1
    27    12    27    1
    28    13    28    1
    29    13    29    1
