
     RDKit          3D

 29 29  0  0  0  0  0  0  0  0999 V2000
    3.7610   -0.4896    0.9312 C   0  0  0  0  0  0  0  0  0  0  0  0
    2.4534    0.1320    0.8757 N   0  0  0  0  0  0  0  0  0  0  0  0
    1.3813   -0.5429    0.2394 C   0  0  0  0  0  0  0  0  0  0  0  0
    1.5830   -1.8023   -0.3389 C   0  0  0  0  0  0  0  0  0  0  0  0
    0.5779   -2.4510   -0.9484 N   0  0  0  0  0  0  0  0  0  0  0  0
   -0.6366   -1.9182   -1.0208 C   0  0  0  0  0  0  0  0  0  0  0  0
   -0.8742   -0.6598   -0.4528 C   0  0  0  0  0  0  0  0  0  0  0  0
   -2.1775   -0.1224   -0.5255 N   0  0  0  0  0  0  0  0  0  0  0  0
   -2.9589    0.0257    0.6656 C   0  0  0  0  0  0  0  0  0  0  0  0
   -2.7068    0.2714   -1.7969 C   0  0  0  0  0  0  0  0  0  0  0  0
    0.1418    0.0437    0.1869 C   0  0  0  0  0  0  0  0  0  0  0  0
   -0.0489    1.3753    0.7943 C   0  0  0  0  0  0  0  0  0  0  0  0
    0.5503    2.4216   -0.0537 N   0  0  0  0  0  0  0  0  0  0  0  0
    4.4974    0.1012    1.4749 H   0  0  0  0  0  0  0  0  0  0  0  0
    4.0579   -0.7065   -0.1225 H   0  0  0  0  0  0  0  0  0  0  0  0
    3.6749   -1.5015    1.4231 H   0  0  0  0  0  0  0  0  0  0  0  0
    2.3635    1.0661    1.3145 H   0  0  0  0  0  0  0  0  0  0  0  0
    2.5922   -2.2059   -0.2581 H   0  0  0  0  0  0  0  0  0  0  0  0
   -1.4840   -2.3996   -1.5019 H   0  0  0  0  0  0  0  0  0  0  0  0
   -3.4163    1.0282    0.7788 H   0  0  0  0  0  0  0  0  0  0  0  0
   -3.8365   -0.6947    0.6059 H   0  0  0  0  0  0  0  0  0  0  0  0
   -2.4061   -0.2415    1.5978 H   0  0  0  0  0  0  0  0  0  0  0  0
   -3.3899    1.1445   -1.7306 H   0  0  0  0  0  0  0  0  0  0  0  0
   -1.9201    0.4701   -2.5667 H   0  0  0  0  0  0  0  0  0  0  0  0
   -3.3360   -0.5921   -2.1591 H   0  0  0  0  0  0  0  0  0  0  0  0
   -1.1246    1.6315    0.8998 H   0  0  0  0  0  0  0  0  0  0  0  0
    0.4418    1.4418    1.7698 H   0  0  0  0  0  0  0  0  0  0  0  0
    0.9409    3.1843    0.5429 H   0  0  0  0  0  0  0  0  0  0  0  0
    1.2992    1.9908   -0.6244 H   0  0  0  0  0  0  0  0  0  0  0  0
  1  2  1  0
  2  3  1  0
  3  4  2  0
  4  5  1  0
  5  6  2  0
  6  7  1  0
  7  8  1  0
  8  9  1  0
  8 10  1  0
  7 11  2  0
 11 12  1  0
 12 13  1  0
 11  3  1  0
  1 14  1  0
  1 15  1  0
  1 16  1  0
  2 17  1  0
  4 18  1  0
  6 19  1  0
  9 20  1  0
  9 21  1  0
  9 22  1  0
 10 23  1  0
 10 24  1  0
 10 25  1  0
 12 26  1  0
 12 27  1  0
 13 28  1  0
 13 29  1  0
M  END
$$$$
