@<TRIPOS>MOLECULE
*****
 48 49 0 0 0
SMALL
GASTEIGER

@<TRIPOS>ATOM
      1 C           6.2415   -1.4828   -0.5307 C.3     1  UNL1        0.0788
      2 O           5.3342   -0.4240   -0.4122 O.3     1  UNL1       -0.4950
      3 C           3.9545   -0.6999   -0.4199 C.ar    1  UNL1        0.1239
      4 C           3.4762   -1.9723   -0.5399 C.ar    1  UNL1        0.0224
      5 C           2.1309   -2.2040   -0.5429 C.ar    1  UNL1        0.1346
      6 O           1.7497   -3.5552   -0.6742 O.3     1  UNL1       -0.5058
      7 C           1.1616   -1.1776   -0.4251 C.ar    1  UNL1        0.1036
      8 C           1.6549    0.0911   -0.3077 C.ar    1  UNL1       -0.0264
      9 C           3.0516    0.3141   -0.3059 C.ar    1  UNL1       -0.0158
     10 C           0.8854    1.3537   -0.2107 C.3     1  UNL1       -0.0267
     11 C           0.5363    1.6480    1.1996 C.3     1  UNL1       -0.0490
     12 C          -0.0647    3.0392    1.4139 C.3     1  UNL1       -0.0524
     13 C          -1.1412    3.2917    0.3791 C.3     1  UNL1       -0.0460
     14 C          -2.1939    2.1819    0.4819 C.3     1  UNL1        0.0099
     15 C          -2.9671    2.2288   -0.7826 C.2     1  UNL1        0.1558
     16 O          -2.9470    3.3223   -1.4619 O.2     1  UNL1       -0.2927
     17 C          -3.7354    1.1426   -1.3435 C.2     1  UNL1       -0.0230
     18 C          -3.9476   -0.0222   -0.8076 C.2     1  UNL1       -0.0773
     19 C          -3.5366   -0.5882    0.4516 C.3     1  UNL1        0.0027
     20 C          -2.5658   -1.7326    0.4329 C.3     1  UNL1        0.1040
     21 C          -2.7292   -2.3404    1.8791 C.3     1  UNL1       -0.0274
     22 O          -1.2334   -1.2286    0.4085 O.3     1  UNL1       -0.4578
     23 C          -0.2162   -1.6348   -0.4105 C.2     1  UNL1        0.3433
     24 O          -0.4905   -2.5481   -1.2831 O.2     1  UNL1       -0.2448
     25 H           7.2742   -1.0914   -0.7536 H       1  UNL1        0.0660
     26 H           6.0241   -2.2039   -1.3260 H       1  UNL1        0.0660
     27 H           6.3300   -1.9817    0.4610 H       1  UNL1        0.0660
     28 H           4.2085   -2.7880   -0.6319 H       1  UNL1        0.0691
     29 H           1.8227   -4.0933    0.1999 H       1  UNL1        0.2922
     30 H           3.4606    1.3093   -0.2104 H       1  UNL1        0.0657
     31 H           0.0066    1.3319   -0.9120 H       1  UNL1        0.0313
     32 H           1.5337    2.2032   -0.5668 H       1  UNL1        0.0313
     33 H          -0.0235    0.8694    1.6924 H       1  UNL1        0.0268
     34 H           1.5305    1.7157    1.7529 H       1  UNL1        0.0268
     35 H           0.7126    3.7955    1.3036 H       1  UNL1        0.0265
     36 H          -0.5050    3.0304    2.4308 H       1  UNL1        0.0265
     37 H          -0.6860    3.2320   -0.6221 H       1  UNL1        0.0269
     38 H          -1.6414    4.2476    0.6073 H       1  UNL1        0.0269
     39 H          -2.8894    2.4415    1.3191 H       1  UNL1        0.0345
     40 H          -1.6619    1.2658    0.6824 H       1  UNL1        0.0345
     41 H          -4.1892    1.3616   -2.3628 H       1  UNL1        0.0649
     42 H          -4.5628   -0.7124   -1.4528 H       1  UNL1        0.0574
     43 H          -4.5265   -1.1122    0.8572 H       1  UNL1        0.0343
     44 H          -3.3568    0.0977    1.2874 H       1  UNL1        0.0343
     45 H          -2.7676   -2.5082   -0.2631 H       1  UNL1        0.0734
     46 H          -3.8219   -2.5107    1.9551 H       1  UNL1        0.0265
     47 H          -2.4477   -1.5948    2.6246 H       1  UNL1        0.0265
     48 H          -2.2319   -3.3076    1.9351 H       1  UNL1        0.0265
@<TRIPOS>BOND
     1     1     2    1
     2     2     3    1
     3     3     4   ar
     4     4     5   ar
     5     5     6    1
     6     5     7   ar
     7     7     8   ar
     8     8     9   ar
     9     8    10    1
    10    10    11    1
    11    11    12    1
    12    12    13    1
    13    13    14    1
    14    14    15    1
    15    15    16    2
    16    15    17    1
    17    17    18    2
    18    18    19    1
    19    19    20    1
    20    20    21    1
    21    20    22    1
    22    22    23    1
    23    23    24    2
    24     9     3   ar
    25    23     7    1
    26     1    25    1
    27     1    26    1
    28     1    27    1
    29     4    28    1
    30     6    29    1
    31     9    30    1
    32    10    31    1
    33    10    32    1
    34    11    33    1
    35    11    34    1
    36    12    35    1
    37    12    36    1
    38    13    37    1
    39    13    38    1
    40    14    39    1
    41    14    40    1
    42    17    41    1
    43    18    42    1
    44    19    43    1
    45    19    44    1
    46    20    45    1
    47    21    46    1
    48    21    47    1
    49    21    48    1
