
     RDKit          3D

 56 59  0  0  0  0  0  0  0  0999 V2000
   -0.6511    5.1900    0.0490 C   0  0  0  0  0  0  0  0  0  0  0  0
   -0.4348    3.8154    0.2436 O   0  0  0  0  0  0  0  0  0  0  0  0
   -1.4553    2.8877    0.3023 C   0  0  0  0  0  0  0  0  0  0  0  0
   -2.7508    3.3322    0.1631 C   0  0  0  0  0  0  0  0  0  0  0  0
   -3.7335    2.3717    0.2290 C   0  0  0  0  0  0  0  0  0  0  0  0
   -3.4713    1.0380    0.4213 C   0  0  0  0  0  0  0  0  0  0  0  0
   -2.1619    0.5988    0.5605 C   0  0  0  0  0  0  0  0  0  0  0  0
   -1.8247   -0.8153    0.7789 C   0  0  0  0  0  0  0  0  0  0  0  0
   -1.6852   -1.6082   -0.3997 N   0  0  0  0  0  0  0  0  0  0  0  0
   -2.8474   -2.2388   -1.0422 C   0  0  0  0  0  0  0  0  0  0  0  0
   -3.0954   -3.6129   -0.4909 C   0  0  0  0  0  0  0  0  0  0  0  0
   -4.2514   -4.1591   -1.1773 N   0  0  0  0  0  0  0  0  0  0  0  0
   -4.4909   -5.4904   -0.6424 C   0  0  0  0  0  0  0  0  0  0  0  0
   -4.0041   -4.3186   -2.6014 C   0  0  0  0  0  0  0  0  0  0  0  0
   -0.4187   -1.8091   -0.9828 C   0  0  0  0  0  0  0  0  0  0  0  0
   -0.2911   -2.5034   -2.0360 O   0  0  0  0  0  0  0  0  0  0  0  0
    0.7491   -1.2102   -0.3598 C   0  0  0  0  0  0  0  0  0  0  0  0
    1.4360   -1.1312    0.5838 N   0  0  0  0  0  0  0  0  0  0  0  0
    2.5088   -0.4077    0.7877 C   0  0  0  0  0  0  0  0  0  0  0  0
    3.3149   -0.3266    1.9171 C   0  0  0  0  0  0  0  0  0  0  0  0
    4.4104    0.4952    1.9479 C   0  0  0  0  0  0  0  0  0  0  0  0
    4.7958    1.2880    0.8935 C   0  0  0  0  0  0  0  0  0  0  0  0
    5.9504    2.1416    0.9500 C   0  0  0  0  0  0  0  0  0  0  0  0
    6.4081    2.7584    2.1099 C   0  0  0  0  0  0  0  0  0  0  0  0
    7.5045    3.4814    1.8044 N   0  0  0  0  0  0  0  0  0  0  0  0
    7.7558    3.3488    0.5144 N   0  0  0  0  0  0  0  0  0  0  0  0
    6.8274    2.5406   -0.0279 C   0  0  0  0  0  0  0  0  0  0  0  0
    4.0032    1.2281   -0.2593 C   0  0  0  0  0  0  0  0  0  0  0  0
    2.8975    0.3846   -0.2607 C   0  0  0  0  0  0  0  0  0  0  0  0
    1.6452    0.0090   -1.4909 S   0  0  0  0  0  0  0  0  0  0  0  0
   -1.1635    1.5363    0.4989 C   0  0  0  0  0  0  0  0  0  0  0  0
   -0.8949    5.4300   -1.0072 H   0  0  0  0  0  0  0  0  0  0  0  0
   -1.4873    5.5635    0.6718 H   0  0  0  0  0  0  0  0  0  0  0  0
    0.2691    5.7897    0.2853 H   0  0  0  0  0  0  0  0  0  0  0  0
   -3.0067    4.3848    0.0075 H   0  0  0  0  0  0  0  0  0  0  0  0
   -4.7604    2.7162    0.1201 H   0  0  0  0  0  0  0  0  0  0  0  0
   -4.2619    0.3053    0.4689 H   0  0  0  0  0  0  0  0  0  0  0  0
   -0.8436   -0.8475    1.3265 H   0  0  0  0  0  0  0  0  0  0  0  0
   -2.5658   -1.2151    1.4997 H   0  0  0  0  0  0  0  0  0  0  0  0
   -2.6346   -2.3430   -2.1259 H   0  0  0  0  0  0  0  0  0  0  0  0
   -3.7557   -1.6080   -0.9568 H   0  0  0  0  0  0  0  0  0  0  0  0
   -3.3231   -3.6257    0.5830 H   0  0  0  0  0  0  0  0  0  0  0  0
   -2.2389   -4.2779   -0.7495 H   0  0  0  0  0  0  0  0  0  0  0  0
   -3.5400   -5.8930   -0.2014 H   0  0  0  0  0  0  0  0  0  0  0  0
   -5.1995   -5.3783    0.1995 H   0  0  0  0  0  0  0  0  0  0  0  0
   -4.8328   -6.1830   -1.4295 H   0  0  0  0  0  0  0  0  0  0  0  0
   -4.1799   -3.3559   -3.1299 H   0  0  0  0  0  0  0  0  0  0  0  0
   -4.7904   -5.0314   -2.9719 H   0  0  0  0  0  0  0  0  0  0  0  0
   -3.0283   -4.7641   -2.8281 H   0  0  0  0  0  0  0  0  0  0  0  0
    3.1150   -0.9026    2.8129 H   0  0  0  0  0  0  0  0  0  0  0  0
    5.0178    0.5172    2.8815 H   0  0  0  0  0  0  0  0  0  0  0  0
    5.9969    2.7021    3.1033 H   0  0  0  0  0  0  0  0  0  0  0  0
    8.5604    3.8188    0.0415 H   0  0  0  0  0  0  0  0  0  0  0  0
    6.7634    2.2439   -1.0534 H   0  0  0  0  0  0  0  0  0  0  0  0
    4.2471    1.8273   -1.1324 H   0  0  0  0  0  0  0  0  0  0  0  0
   -0.1023    1.3124    0.6009 H   0  0  0  0  0  0  0  0  0  0  0  0
  1  2  1  0
  2  3  1  0
  3  4  2  0
  4  5  1  0
  5  6  2  0
  6  7  1  0
  7  8  1  0
  8  9  1  0
  9 10  1  0
 10 11  1  0
 11 12  1  0
 12 13  1  0
 12 14  1  0
  9 15  1  0
 15 16  2  0
 15 17  1  0
 17 18  2  0
 18 19  1  0
 19 20  2  0
 20 21  1  0
 21 22  2  0
 22 23  1  0
 23 24  1  0
 24 25  2  0
 25 26  1  0
 26 27  1  0
 22 28  1  0
 28 29  2  0
 29 30  1  0
  7 31  2  0
 31  3  1  0
 30 17  1  0
 29 19  1  0
 27 23  2  0
  1 32  1  0
  1 33  1  0
  1 34  1  0
  4 35  1  0
  5 36  1  0
  6 37  1  0
  8 38  1  0
  8 39  1  0
 10 40  1  0
 10 41  1  0
 11 42  1  0
 11 43  1  0
 13 44  1  0
 13 45  1  0
 13 46  1  0
 14 47  1  0
 14 48  1  0
 14 49  1  0
 20 50  1  0
 21 51  1  0
 24 52  1  0
 26 53  1  0
 27 54  1  0
 28 55  1  0
 31 56  1  0
M  END
$$$$
