@<TRIPOS>MOLECULE
*****
 56 59 0 0 0
SMALL
GASTEIGER

@<TRIPOS>ATOM
      1 C          -0.6511    5.1900    0.0490 C.3     1  UNL1        0.0788
      2 O          -0.4348    3.8154    0.2436 O.3     1  UNL1       -0.4951
      3 C          -1.4553    2.8877    0.3023 C.ar    1  UNL1        0.1204
      4 C          -2.7508    3.3322    0.1631 C.ar    1  UNL1       -0.0199
      5 C          -3.7335    2.3717    0.2290 C.ar    1  UNL1       -0.0580
      6 C          -3.4713    1.0380    0.4213 C.ar    1  UNL1       -0.0568
      7 C          -2.1619    0.5988    0.5605 C.ar    1  UNL1       -0.0266
      8 C          -1.8247   -0.8153    0.7789 C.3     1  UNL1        0.0402
      9 N          -1.6852   -1.6082   -0.3997 N.am    1  UNL1       -0.2903
     10 C          -2.8474   -2.2388   -1.0422 C.3     1  UNL1        0.0281
     11 C          -3.0954   -3.6129   -0.4909 C.3     1  UNL1        0.0141
     12 N          -4.2514   -4.1591   -1.1773 N.3     1  UNL1       -0.3069
     13 C          -4.4909   -5.4904   -0.6424 C.3     1  UNL1       -0.0130
     14 C          -4.0041   -4.3186   -2.6014 C.3     1  UNL1       -0.0130
     15 C          -0.4187   -1.8091   -0.9828 C.2     1  UNL1        0.2721
     16 O          -0.2911   -2.5034   -2.0360 O.2     1  UNL1       -0.2677
     17 C           0.7491   -1.2102   -0.3598 C.ar    1  UNL1        0.1641
     18 N           1.4360   -1.1312    0.5838 N.ar    1  UNL1       -0.2344
     19 C           2.5088   -0.4077    0.7877 C.ar    1  UNL1        0.0791
     20 C           3.3149   -0.3266    1.9171 C.ar    1  UNL1       -0.0346
     21 C           4.4104    0.4952    1.9479 C.ar    1  UNL1       -0.0519
     22 C           4.7958    1.2880    0.8935 C.ar    1  UNL1       -0.0138
     23 C           5.9504    2.1416    0.9500 C.ar    1  UNL1        0.0193
     24 C           6.4081    2.7584    2.1099 C.ar    1  UNL1        0.0568
     25 N           7.5045    3.4814    1.8044 N.ar    1  UNL1       -0.1817
     26 N           7.7558    3.3488    0.5144 N.ar    1  UNL1       -0.2841
     27 C           6.8274    2.5406   -0.0279 C.ar    1  UNL1        0.0300
     28 C           4.0032    1.2281   -0.2593 C.ar    1  UNL1       -0.0381
     29 C           2.8975    0.3846   -0.2607 C.ar    1  UNL1        0.0402
     30 S           1.6452    0.0090   -1.4909 S.2     1  UNL1       -0.0627
     31 C          -1.1635    1.5363    0.4989 C.ar    1  UNL1       -0.0153
     32 H          -0.8949    5.4300   -1.0072 H       1  UNL1        0.0660
     33 H          -1.4873    5.5635    0.6718 H       1  UNL1        0.0660
     34 H           0.2691    5.7897    0.2853 H       1  UNL1        0.0660
     35 H          -3.0067    4.3848    0.0075 H       1  UNL1        0.0654
     36 H          -4.7604    2.7162    0.1201 H       1  UNL1        0.0619
     37 H          -4.2619    0.3053    0.4689 H       1  UNL1        0.0621
     38 H          -0.8436   -0.8475    1.3265 H       1  UNL1        0.0514
     39 H          -2.5658   -1.2151    1.4997 H       1  UNL1        0.0514
     40 H          -2.6346   -2.3430   -2.1259 H       1  UNL1        0.0477
     41 H          -3.7557   -1.6080   -0.9568 H       1  UNL1        0.0477
     42 H          -3.3231   -3.6257    0.5830 H       1  UNL1        0.0442
     43 H          -2.2389   -4.2779   -0.7495 H       1  UNL1        0.0442
     44 H          -3.5400   -5.8930   -0.2014 H       1  UNL1        0.0391
     45 H          -5.1995   -5.3783    0.1995 H       1  UNL1        0.0391
     46 H          -4.8328   -6.1830   -1.4295 H       1  UNL1        0.0391
     47 H          -4.1799   -3.3559   -3.1299 H       1  UNL1        0.0391
     48 H          -4.7904   -5.0314   -2.9719 H       1  UNL1        0.0391
     49 H          -3.0283   -4.7641   -2.8281 H       1  UNL1        0.0391
     50 H           3.1150   -0.9026    2.8129 H       1  UNL1        0.0639
     51 H           5.0178    0.5172    2.8815 H       1  UNL1        0.0624
     52 H           5.9969    2.7021    3.1033 H       1  UNL1        0.0854
     53 H           8.5604    3.8188    0.0415 H       1  UNL1        0.1882
     54 H           6.7634    2.2439   -1.0534 H       1  UNL1        0.0830
     55 H           4.2471    1.8273   -1.1324 H       1  UNL1        0.0635
     56 H          -0.1023    1.3124    0.6009 H       1  UNL1        0.0657
@<TRIPOS>BOND
     1     1     2    1
     2     2     3    1
     3     3     4   ar
     4     4     5   ar
     5     5     6   ar
     6     6     7   ar
     7     7     8    1
     8     8     9    1
     9     9    10    1
    10    10    11    1
    11    11    12    1
    12    12    13    1
    13    12    14    1
    14     9    15   am
    15    15    16    2
    16    15    17    1
    17    17    18   ar
    18    18    19   ar
    19    19    20   ar
    20    20    21   ar
    21    21    22   ar
    22    22    23    1
    23    23    24   ar
    24    24    25   ar
    25    25    26   ar
    26    26    27   ar
    27    22    28   ar
    28    28    29   ar
    29    29    30   ar
    30     7    31   ar
    31    31     3   ar
    32    30    17   ar
    33    29    19   ar
    34    27    23   ar
    35     1    32    1
    36     1    33    1
    37     1    34    1
    38     4    35    1
    39     5    36    1
    40     6    37    1
    41     8    38    1
    42     8    39    1
    43    10    40    1
    44    10    41    1
    45    11    42    1
    46    11    43    1
    47    13    44    1
    48    13    45    1
    49    13    46    1
    50    14    47    1
    51    14    48    1
    52    14    49    1
    53    20    50    1
    54    21    51    1
    55    24    52    1
    56    26    53    1
    57    27    54    1
    58    28    55    1
    59    31    56    1
