@<TRIPOS>MOLECULE
*****
 85 90 0 0 0
SMALL
GASTEIGER

@<TRIPOS>ATOM
      1 C           7.2036   -0.9542   -1.6251 C.3     1  UNL1       -0.0361
      2 C           7.1992   -0.1507   -0.3518 C.3     1  UNL1        0.0873
      3 O           6.0313   -0.4230    0.3339 O.3     1  UNL1       -0.3431
      4 C           5.0564    0.5594    0.1624 C.3     1  UNL1        0.1881
      5 O           3.8798    0.0122    0.7178 O.3     1  UNL1       -0.3452
      6 C           2.9203   -0.1024   -0.2628 C.3     1  UNL1        0.0668
      7 C           2.4069   -1.5177   -0.4143 C.3     1  UNL1        0.0004
      8 C           0.9726   -1.5339   -0.8883 C.3     1  UNL1        0.0683
      9 O           0.7497   -2.8315   -1.3432 O.3     1  UNL1       -0.3910
     10 C           0.0467   -1.1425    0.2346 C.3     1  UNL1        0.0540
     11 C          -0.0428   -2.3406    1.1441 C.3     1  UNL1        0.0552
     12 O          -0.5330   -3.4848    0.5314 O.3     1  UNL1       -0.3943
     13 C          -1.2534   -0.5895   -0.2264 C.3     1  UNL1        0.0032
     14 C          -2.0181   -1.3782   -1.2159 C.3     1  UNL1        0.0598
     15 O          -1.4102   -1.2965   -2.4967 O.3     1  UNL1       -0.3915
     16 C          -3.4203   -0.9793   -1.4330 C.3     1  UNL1       -0.0180
     17 C          -4.2408   -0.7135   -0.1621 C.3     1  UNL1        0.0059
     18 C          -4.4709   -2.0278    0.4665 C.3     1  UNL1       -0.0563
     19 C          -5.4018    0.0564   -0.6148 C.3     1  UNL1       -0.0080
     20 C          -6.5719    0.2149    0.2676 C.2     1  UNL1       -0.0222
     21 C          -6.7651   -0.3071    1.4457 C.2     1  UNL1        0.0252
     22 C          -8.0676    0.1388    1.9222 C.2     1  UNL1        0.3323
     23 O          -8.6031   -0.1618    3.0293 O.2     1  UNL1       -0.2456
     24 O          -8.6216    0.9461    0.9620 O.3     1  UNL1       -0.4571
     25 C          -7.7396    1.0356   -0.0989 C.3     1  UNL1        0.1147
     26 C          -4.8317    1.4394   -0.8620 C.3     1  UNL1       -0.0432
     27 C          -3.4120    1.4375   -0.3265 C.3     1  UNL1       -0.0226
     28 C          -3.4514    0.2847    0.6266 C.3     1  UNL1        0.0752
     29 O          -4.0693    0.7390    1.7838 O.3     1  UNL1       -0.3877
     30 C          -2.1387   -0.3211    0.9572 C.3     1  UNL1       -0.0056
     31 C          -1.4559    0.5187    2.0129 C.3     1  UNL1       -0.0446
     32 C          -0.2114    1.0672    1.4266 C.3     1  UNL1       -0.0229
     33 C           0.7544   -0.0151    0.9953 C.3     1  UNL1        0.0788
     34 O           1.3753   -0.5422    2.0971 O.3     1  UNL1       -0.3878
     35 C           1.7375    0.7292    0.0900 C.3     1  UNL1        0.0032
     36 C           5.4524    1.8373    0.8520 C.3     1  UNL1        0.1341
     37 O           4.5287    2.8232    0.4766 O.3     1  UNL1       -0.3841
     38 C           6.8439    2.2072    0.4024 C.3     1  UNL1        0.1140
     39 O           6.7957    3.5193   -0.1138 O.3     1  UNL1       -0.3864
     40 C           7.3054    1.3226   -0.7167 C.3     1  UNL1        0.1095
     41 O           8.6746    1.5711   -0.9160 O.3     1  UNL1       -0.3866
     42 H           6.4913   -1.7902   -1.5388 H       1  UNL1        0.0255
     43 H           6.8160   -0.3069   -2.4545 H       1  UNL1        0.0255
     44 H           8.2147   -1.3281   -1.8864 H       1  UNL1        0.0255
     45 H           8.0455   -0.4308    0.3338 H       1  UNL1        0.0621
     46 H           4.9307    0.7619   -0.9056 H       1  UNL1        0.0937
     47 H           3.3254    0.2729   -1.2463 H       1  UNL1        0.0599
     48 H           2.6130   -2.0968    0.4787 H       1  UNL1        0.0315
     49 H           3.0203   -1.9582   -1.2547 H       1  UNL1        0.0315
     50 H           0.8913   -0.8572   -1.7617 H       1  UNL1        0.0601
     51 H           0.9491   -2.8864   -2.3136 H       1  UNL1        0.2098
     52 H           0.9688   -2.5954    1.5190 H       1  UNL1        0.0564
     53 H          -0.6552   -2.1860    2.0478 H       1  UNL1        0.0564
     54 H          -0.2261   -4.2693    1.0253 H       1  UNL1        0.2094
     55 H          -0.9980    0.4094   -0.6926 H       1  UNL1        0.0337
     56 H          -2.0184   -2.4500   -0.8997 H       1  UNL1        0.0596
     57 H          -1.8511   -0.6094   -3.0496 H       1  UNL1        0.2098
     58 H          -3.9530   -1.8595   -1.9075 H       1  UNL1        0.0296
     59 H          -3.5294   -0.1659   -2.1764 H       1  UNL1        0.0296
     60 H          -4.1741   -2.1573    1.5095 H       1  UNL1        0.0236
     61 H          -5.5109   -2.3723    0.2243 H       1  UNL1        0.0236
     62 H          -3.8488   -2.8062   -0.0763 H       1  UNL1        0.0236
     63 H          -5.7792   -0.2850   -1.6217 H       1  UNL1        0.0353
     64 H          -6.1106   -0.9787    2.0403 H       1  UNL1        0.0689
     65 H          -7.4850    2.0659   -0.4006 H       1  UNL1        0.0746
     66 H          -8.2674    0.6127   -1.0088 H       1  UNL1        0.0746
     67 H          -5.3717    2.2221   -0.2936 H       1  UNL1        0.0272
     68 H          -4.8726    1.7485   -1.9239 H       1  UNL1        0.0272
     69 H          -2.7140    1.3794   -1.1487 H       1  UNL1        0.0293
     70 H          -3.1819    2.3569    0.2543 H       1  UNL1        0.0293
     71 H          -4.5704    1.5778    1.6280 H       1  UNL1        0.2102
     72 H          -2.3655   -1.2874    1.4567 H       1  UNL1        0.0332
     73 H          -1.2091   -0.0385    2.9382 H       1  UNL1        0.0270
     74 H          -2.0990    1.3857    2.3202 H       1  UNL1        0.0270
     75 H           0.3241    1.6311    2.2462 H       1  UNL1        0.0293
     76 H          -0.3813    1.8263    0.6363 H       1  UNL1        0.0293
     77 H           1.4053    0.0209    2.8871 H       1  UNL1        0.2102
     78 H           1.1906    1.1349   -0.7744 H       1  UNL1        0.0318
     79 H           2.0786    1.5993    0.6870 H       1  UNL1        0.0318
     80 H           5.4081    1.6436    1.9598 H       1  UNL1        0.0671
     81 H           4.1142    3.2692    1.2437 H       1  UNL1        0.2101
     82 H           7.5052    2.1413    1.2702 H       1  UNL1        0.0648
     83 H           6.0536    4.0381    0.2858 H       1  UNL1        0.2100
     84 H           6.7117    1.4777   -1.6325 H       1  UNL1        0.0646
     85 H           8.9117    2.4935   -0.6533 H       1  UNL1        0.2100
@<TRIPOS>BOND
     1     1     2    1
     2     2     3    1
     3     3     4    1
     4     4     5    1
     5     5     6    1
     6     6     7    1
     7     7     8    1
     8     8     9    1
     9     8    10    1
    10    10    11    1
    11    11    12    1
    12    10    13    1
    13    13    14    1
    14    14    15    1
    15    14    16    1
    16    16    17    1
    17    17    18    1
    18    17    19    1
    19    19    20    1
    20    20    21    2
    21    21    22    1
    22    22    23    2
    23    22    24    1
    24    24    25    1
    25    19    26    1
    26    26    27    1
    27    27    28    1
    28    28    29    1
    29    28    30    1
    30    30    31    1
    31    31    32    1
    32    32    33    1
    33    33    34    1
    34    33    35    1
    35     4    36    1
    36    36    37    1
    37    36    38    1
    38    38    39    1
    39    38    40    1
    40    40    41    1
    41    40     2    1
    42    35     6    1
    43    33    10    1
    44    30    13    1
    45    28    17    1
    46    25    20    1
    47     1    42    1
    48     1    43    1
    49     1    44    1
    50     2    45    1
    51     4    46    1
    52     6    47    1
    53     7    48    1
    54     7    49    1
    55     8    50    1
    56     9    51    1
    57    11    52    1
    58    11    53    1
    59    12    54    1
    60    13    55    1
    61    14    56    1
    62    15    57    1
    63    16    58    1
    64    16    59    1
    65    18    60    1
    66    18    61    1
    67    18    62    1
    68    19    63    1
    69    21    64    1
    70    25    65    1
    71    25    66    1
    72    26    67    1
    73    26    68    1
    74    27    69    1
    75    27    70    1
    76    29    71    1
    77    30    72    1
    78    31    73    1
    79    31    74    1
    80    32    75    1
    81    32    76    1
    82    34    77    1
    83    35    78    1
    84    35    79    1
    85    36    80    1
    86    37    81    1
    87    38    82    1
    88    39    83    1
    89    40    84    1
    90    41    85    1
