@<TRIPOS>MOLECULE
*****
 28 28 0 0 0
SMALL
GASTEIGER

@<TRIPOS>ATOM
      1 C          -3.8692   -1.1063    0.0019 C.3     1  UNL1        0.0534
      2 N          -2.6069   -1.1063    0.7066 N.pl3   1  UNL1       -0.2786
      3 C          -1.7165   -0.0308    0.4272 C.cat   1  UNL1        0.3808
      4 N          -0.2930   -0.2091    0.3585 N.pl3   1  UNL1       -0.2718
      5 C           0.6424    0.7686   -0.1670 C.3     1  UNL1        0.0900
      6 C           2.0443    0.3186   -0.1143 C.ar    1  UNL1       -0.0141
      7 C           2.7327    0.6325    1.0407 C.ar    1  UNL1       -0.0556
      8 C           4.0510    0.2489    1.1739 C.ar    1  UNL1       -0.0614
      9 C           4.6663   -0.4467    0.1455 C.ar    1  UNL1       -0.0617
     10 C           3.9941   -0.7692   -1.0160 C.ar    1  UNL1       -0.0614
     11 C           2.6748   -0.3717   -1.1205 C.ar    1  UNL1       -0.0556
     12 N          -2.1609    1.1608    0.2299 N.pl3   1  UNL1       -0.1169
     13 C          -3.5883    1.3547    0.3058 C.3     1  UNL1        0.0940
     14 H          -3.7820   -0.9719   -1.1016 H       1  UNL1        0.0618
     15 H          -4.7657   -0.8076    0.4948 H       1  UNL1        0.0618
     16 H          -4.0627   -2.2367   -0.0297 H       1  UNL1        0.0618
     17 H          -2.2530   -1.8257    1.4143 H       1  UNL1        0.2576
     18 H           0.0965   -1.1274    0.7215 H       1  UNL1        0.2582
     19 H           0.4810    1.7102    0.3917 H       1  UNL1        0.0706
     20 H           0.3869    0.9436   -1.2506 H       1  UNL1        0.0706
     21 H           2.3023    1.1769    1.8820 H       1  UNL1        0.0621
     22 H           4.6505    0.4573    2.0425 H       1  UNL1        0.0618
     23 H           5.7086   -0.7935    0.1590 H       1  UNL1        0.0618
     24 H           4.3892   -1.3035   -1.8612 H       1  UNL1        0.0618
     25 H           2.0729   -0.5756   -1.9812 H       1  UNL1        0.0621
     26 H          -3.5972    2.5023    0.3663 H       1  UNL1        0.0656
     27 H          -4.0021    1.1733    1.3171 H       1  UNL1        0.0656
     28 H          -4.1961    1.2344   -0.5597 H       1  UNL1        0.0656
@<TRIPOS>BOND
     1     1     2    1
     2     2     3    1
     3     3     4    1
     4     4     5    1
     5     5     6    1
     6     6     7   ar
     7     7     8   ar
     8     8     9   ar
     9     9    10   ar
    10    10    11   ar
    11     3    12    2
    12    12    13    1
    13    11     6   ar
    14     1    14    1
    15     1    15    1
    16     1    16    1
    17     2    17    1
    18     4    18    1
    19     5    19    1
    20     5    20    1
    21     7    21    1
    22     8    22    1
    23     9    23    1
    24    10    24    1
    25    11    25    1
    26    13    26    1
    27    13    27    1
    28    13    28    1
