
     RDKit          3D

 42 44  0  0  0  0  0  0  0  0999 V2000
    4.4040    0.8041    0.0403 C   0  0  0  0  0  0  0  0  0  0  0  0
    4.0756   -0.5827    0.2641 N   0  0  0  0  0  0  0  0  0  0  0  0
    4.8294   -1.3723   -0.6864 C   0  0  0  0  0  0  0  0  0  0  0  0
    2.6962   -0.8004    0.0187 C   0  0  0  0  0  0  0  0  0  0  0  0
    1.7449   -0.1745    0.9989 C   0  0  0  0  0  0  0  0  0  0  0  0
    0.3099   -0.4707    0.6351 C   0  0  0  0  0  0  0  0  0  0  0  0
   -0.9001   -0.0630    0.2806 C   0  0  0  0  0  0  0  0  0  0  0  0
   -1.9578   -1.1004    0.0727 C   0  0  0  0  0  0  0  0  0  0  0  0
   -1.3858   -2.2162   -0.5081 C   0  0  0  0  0  0  0  0  0  0  0  0
   -2.2358   -3.2552   -0.7375 C   0  0  0  0  0  0  0  0  0  0  0  0
   -3.5875   -3.1351   -0.3854 C   0  0  0  0  0  0  0  0  0  0  0  0
   -4.1089   -1.9757    0.2009 C   0  0  0  0  0  0  0  0  0  0  0  0
   -3.2775   -0.8833    0.4563 C   0  0  0  0  0  0  0  0  0  0  0  0
   -4.0074    0.2196    1.0642 C   0  0  0  0  0  0  0  0  0  0  0  0
   -3.4710    1.4872    1.0405 O   0  0  0  0  0  0  0  0  0  0  0  0
   -2.3198    2.0443    0.5023 C   0  0  0  0  0  0  0  0  0  0  0  0
   -2.3258    3.3980    0.3014 C   0  0  0  0  0  0  0  0  0  0  0  0
   -1.2067    4.0355   -0.2374 C   0  0  0  0  0  0  0  0  0  0  0  0
   -0.0462    3.3442   -0.5939 C   0  0  0  0  0  0  0  0  0  0  0  0
   -0.0002    1.9850   -0.4086 C   0  0  0  0  0  0  0  0  0  0  0  0
   -1.1338    1.4024    0.1292 C   0  0  0  0  0  0  0  0  0  0  0  0
    3.4897    1.4051    0.1109 H   0  0  0  0  0  0  0  0  0  0  0  0
    4.7592    0.8872   -1.0264 H   0  0  0  0  0  0  0  0  0  0  0  0
    5.1889    1.1686    0.7393 H   0  0  0  0  0  0  0  0  0  0  0  0
    5.9004   -1.4661   -0.4432 H   0  0  0  0  0  0  0  0  0  0  0  0
    4.8030   -0.7737   -1.6419 H   0  0  0  0  0  0  0  0  0  0  0  0
    4.3295   -2.3373   -0.9156 H   0  0  0  0  0  0  0  0  0  0  0  0
    2.4515   -1.9037   -0.0155 H   0  0  0  0  0  0  0  0  0  0  0  0
    2.3743   -0.4424   -1.0053 H   0  0  0  0  0  0  0  0  0  0  0  0
    2.0237   -0.6658    1.9949 H   0  0  0  0  0  0  0  0  0  0  0  0
    1.9197    0.8675    1.2457 H   0  0  0  0  0  0  0  0  0  0  0  0
    0.4007   -1.5408    0.7708 H   0  0  0  0  0  0  0  0  0  0  0  0
   -0.3355   -2.2265   -0.7651 H   0  0  0  0  0  0  0  0  0  0  0  0
   -1.8878   -4.1590   -1.1824 H   0  0  0  0  0  0  0  0  0  0  0  0
   -4.2834   -3.9634   -0.5652 H   0  0  0  0  0  0  0  0  0  0  0  0
   -5.1592   -1.9252    0.4568 H   0  0  0  0  0  0  0  0  0  0  0  0
   -5.0631    0.1729    0.6625 H   0  0  0  0  0  0  0  0  0  0  0  0
   -4.1538   -0.0538    2.1519 H   0  0  0  0  0  0  0  0  0  0  0  0
   -3.2072    3.9394    0.5698 H   0  0  0  0  0  0  0  0  0  0  0  0
   -1.2759    5.1258   -0.3733 H   0  0  0  0  0  0  0  0  0  0  0  0
    0.8009    3.8498   -1.0061 H   0  0  0  0  0  0  0  0  0  0  0  0
    0.8285    1.3508   -0.6623 H   0  0  0  0  0  0  0  0  0  0  0  0
  1  2  1  0
  2  3  1  0
  2  4  1  0
  4  5  1  0
  5  6  1  0
  6  7  2  3
  7  8  1  0
  8  9  2  0
  9 10  1  0
 10 11  2  0
 11 12  1  0
 12 13  2  0
 13 14  1  0
 14 15  1  0
 15 16  1  0
 16 17  2  0
 17 18  1  0
 18 19  2  0
 19 20  1  0
 20 21  2  0
 21  7  1  0
 13  8  1  0
 21 16  1  0
  1 22  1  0
  1 23  1  0
  1 24  1  0
  3 25  1  0
  3 26  1  0
  3 27  1  0
  4 28  1  0
  4 29  1  0
  5 30  1  0
  5 31  1  0
  6 32  1  0
  9 33  1  0
 10 34  1  0
 11 35  1  0
 12 36  1  0
 14 37  1  0
 14 38  1  0
 17 39  1  0
 18 40  1  0
 19 41  1  0
 20 42  1  0
M  END
$$$$
