@<TRIPOS>MOLECULE
*****
 68 73 0 0 0
SMALL
GASTEIGER

@<TRIPOS>ATOM
      1 C          -8.0692   -2.0812    1.8014 C.3     1  UNL1        0.0032
      2 N          -6.8486   -1.9197    1.0454 N.am    1  UNL1       -0.3024
      3 C          -6.7479   -2.4882   -0.2734 C.3     1  UNL1        0.0032
      4 C          -5.7755   -1.2172    1.6042 C.2     1  UNL1        0.2627
      5 O          -5.8733   -0.7465    2.7512 O.2     1  UNL1       -0.2684
      6 C          -4.5578   -1.0356    0.8586 C.ar    1  UNL1        0.1070
      7 C          -3.6976   -2.0831    0.5860 C.ar    1  UNL1       -0.0209
      8 C          -2.6561   -1.5405   -0.1267 C.ar    1  UNL1        0.0378
      9 C          -1.5211   -2.1171   -0.6506 C.ar    1  UNL1        0.0419
     10 N          -0.6706   -1.3244   -1.3001 N.ar    1  UNL1       -0.2219
     11 C          -0.8759    0.0152   -1.4631 C.ar    1  UNL1        0.2224
     12 N           0.1150    0.7554   -2.1776 N.pl3   1  UNL1       -0.2684
     13 C           1.4755    0.6358   -1.7967 C.ar    1  UNL1        0.1251
     14 C           1.8630   -0.1037   -0.7051 C.ar    1  UNL1       -0.0197
     15 C           3.1840   -0.2650   -0.3669 C.ar    1  UNL1       -0.0355
     16 C           4.1267    0.3630   -1.1908 C.ar    1  UNL1        0.0546
     17 N           5.5067    0.2329   -0.9418 N.am    1  UNL1       -0.2675
     18 C           6.1828   -0.8814   -1.5977 C.3     1  UNL1        0.0327
     19 C           7.5602   -1.0953   -1.0206 C.3     1  UNL1        0.0158
     20 N           7.5241   -0.7078    0.3769 N.3     1  UNL1       -0.2900
     21 C           8.7236   -1.0094    1.0805 C.3     1  UNL1       -0.0003
     22 C           8.7049   -0.0578    2.2488 C.3     1  UNL1       -0.0383
     23 C           7.6759    1.0111    1.8910 C.3     1  UNL1       -0.0277
     24 C           7.5065    0.7584    0.4095 C.3     1  UNL1        0.0878
     25 C           6.1698    1.1452   -0.1044 C.2     1  UNL1        0.2371
     26 O           5.6931    2.2548    0.2251 O.2     1  UNL1       -0.2735
     27 C           3.7037    1.0950   -2.2726 C.ar    1  UNL1        0.0511
     28 N           2.4076    1.2425   -2.5878 N.ar    1  UNL1       -0.2383
     29 N          -1.9908    0.5386   -0.9387 N.ar    1  UNL1       -0.1962
     30 C          -2.9171   -0.2009   -0.2585 C.ar    1  UNL1        0.1466
     31 N          -4.0940    0.0958    0.3534 N.ar    1  UNL1       -0.3180
     32 C          -4.5952    1.4376    0.3408 C.3     1  UNL1        0.0366
     33 C          -4.9694    1.8831   -1.0668 C.3     1  UNL1       -0.0320
     34 C          -5.6911    3.1845   -0.7886 C.3     1  UNL1       -0.0511
     35 C          -6.2003    3.1136    0.6141 C.3     1  UNL1       -0.0511
     36 C          -5.8118    1.7106    1.1299 C.3     1  UNL1       -0.0320
     37 H          -8.1359   -3.0496    2.2876 H       1  UNL1        0.0428
     38 H          -8.0931   -1.3245    2.6347 H       1  UNL1        0.0428
     39 H          -8.9722   -1.9494    1.1701 H       1  UNL1        0.0428
     40 H          -6.3691   -1.7931   -1.0463 H       1  UNL1        0.0428
     41 H          -7.7384   -2.9257   -0.5505 H       1  UNL1        0.0428
     42 H          -6.0707   -3.3838   -0.1781 H       1  UNL1        0.0428
     43 H          -3.7869   -3.1260    0.8599 H       1  UNL1        0.0647
     44 H          -1.3559   -3.1570   -0.5258 H       1  UNL1        0.0838
     45 H          -0.1516    1.3607   -2.9555 H       1  UNL1        0.1564
     46 H           1.1437   -0.5820   -0.0619 H       1  UNL1        0.0652
     47 H           3.5311   -0.8280    0.4699 H       1  UNL1        0.0638
     48 H           6.1598   -0.8355   -2.6937 H       1  UNL1        0.0481
     49 H           5.5926   -1.7948   -1.2875 H       1  UNL1        0.0481
     50 H           7.8931   -2.1542   -1.1498 H       1  UNL1        0.0442
     51 H           8.2642   -0.4821   -1.6083 H       1  UNL1        0.0442
     52 H           8.6785   -2.0717    1.4513 H       1  UNL1        0.0427
     53 H           9.6405   -0.8672    0.4586 H       1  UNL1        0.0427
     54 H           9.6980    0.3863    2.4596 H       1  UNL1        0.0278
     55 H           8.3056   -0.6111    3.1235 H       1  UNL1        0.0278
     56 H           8.0755    2.0262    2.1085 H       1  UNL1        0.0285
     57 H           6.6924    0.8088    2.3687 H       1  UNL1        0.0285
     58 H           8.3472    1.1962   -0.1517 H       1  UNL1        0.0559
     59 H           4.4110    1.6007   -2.9396 H       1  UNL1        0.0849
     60 H          -3.8046    2.1543    0.6824 H       1  UNL1        0.0528
     61 H          -4.0624    2.1072   -1.6725 H       1  UNL1        0.0285
     62 H          -5.6419    1.1850   -1.5659 H       1  UNL1        0.0285
     63 H          -4.9681    4.0298   -0.8849 H       1  UNL1        0.0266
     64 H          -6.4905    3.3801   -1.5350 H       1  UNL1        0.0266
     65 H          -7.2985    3.2433    0.7092 H       1  UNL1        0.0266
     66 H          -5.7338    3.8936    1.2263 H       1  UNL1        0.0266
     67 H          -5.6358    1.8812    2.2143 H       1  UNL1        0.0285
     68 H          -6.6838    1.0838    0.8939 H       1  UNL1        0.0285
@<TRIPOS>BOND
     1     1     2    1
     2     2     3    1
     3     2     4   am
     4     4     5    2
     5     4     6    1
     6     6     7   ar
     7     7     8   ar
     8     8     9   ar
     9     9    10   ar
    10    10    11   ar
    11    11    12    1
    12    12    13    1
    13    13    14   ar
    14    14    15   ar
    15    15    16   ar
    16    16    17    1
    17    17    18    1
    18    18    19    1
    19    19    20    1
    20    20    21    1
    21    21    22    1
    22    22    23    1
    23    23    24    1
    24    24    25    1
    25    25    26    2
    26    16    27   ar
    27    27    28   ar
    28    11    29   ar
    29    29    30   ar
    30    30    31   ar
    31    31    32    1
    32    32    33    1
    33    33    34    1
    34    34    35    1
    35    35    36    1
    36    31     6   ar
    37    36    32    1
    38    30     8   ar
    39    28    13   ar
    40    25    17   am
    41    24    20    1
    42     1    37    1
    43     1    38    1
    44     1    39    1
    45     3    40    1
    46     3    41    1
    47     3    42    1
    48     7    43    1
    49     9    44    1
    50    12    45    1
    51    14    46    1
    52    15    47    1
    53    18    48    1
    54    18    49    1
    55    19    50    1
    56    19    51    1
    57    21    52    1
    58    21    53    1
    59    22    54    1
    60    22    55    1
    61    23    56    1
    62    23    57    1
    63    24    58    1
    64    27    59    1
    65    32    60    1
    66    33    61    1
    67    33    62    1
    68    34    63    1
    69    34    64    1
    70    35    65    1
    71    35    66    1
    72    36    67    1
    73    36    68    1
