@<TRIPOS>MOLECULE
*****
 51 55 0 0 0
SMALL
GASTEIGER

@<TRIPOS>ATOM
      1 C          -3.9541   -2.0180    0.7363 C.3     1  UNL1        0.0166
      2 N          -2.7450   -1.2234    0.5741 N.ar    1  UNL1       -0.2957
      3 C          -1.5330   -1.8349    0.6231 C.ar    1  UNL1        0.2544
      4 O          -1.5513   -3.0812    0.8150 O.2     1  UNL1       -0.2676
      5 C          -0.3631   -1.1611    0.4764 C.ar    1  UNL1        0.0249
      6 C          -0.3321    0.2374    0.2594 C.ar    1  UNL1        0.0488
      7 N           0.9180    0.8784    0.2164 N.pl3   1  UNL1       -0.3126
      8 C           1.7768    1.1666   -0.8443 C.ar    1  UNL1        0.0506
      9 C           3.0992    0.6732   -0.6269 C.ar    1  UNL1       -0.0270
     10 C           4.1123    0.7975   -1.5077 C.ar    1  UNL1        0.0385
     11 C           5.4726    0.2759   -1.2548 C.2     1  UNL1        0.2443
     12 O           6.3734    0.4184   -2.1051 O.2     1  UNL1       -0.2702
     13 N           5.7758   -0.3904   -0.0514 N.am    1  UNL1       -0.3085
     14 C           7.1202   -0.9153    0.2179 C.3     1  UNL1        0.0235
     15 C           7.1574   -2.2555    0.9572 C.3     1  UNL1       -0.0328
     16 C           7.5404   -1.0001    1.6774 C.3     1  UNL1       -0.0328
     17 C           3.8728    1.4502   -2.7216 C.ar    1  UNL1       -0.0481
     18 C           2.6118    1.9268   -2.9435 C.ar    1  UNL1       -0.0409
     19 C           1.5706    1.7805   -2.0013 C.ar    1  UNL1        0.0621
     20 CL          0.0261    2.4044   -2.4885 Cl      1  UNL1       -0.0816
     21 C          -1.5626    0.8351    0.2172 C.ar    1  UNL1        0.0586
     22 C          -1.9487    2.1496    0.0931 C.ar    1  UNL1        0.0608
     23 N          -3.2717    2.2211    0.1607 N.ar    1  UNL1       -0.1722
     24 N          -3.7717    0.9825    0.3302 N.ar    1  UNL1       -0.2156
     25 C          -5.1713    0.6910    0.4413 C.ar    1  UNL1        0.0678
     26 C          -5.8597    0.9919    1.5998 C.ar    1  UNL1       -0.0335
     27 C          -7.2033    0.7303    1.6888 C.ar    1  UNL1       -0.0244
     28 C          -7.8640    0.1652    0.6157 C.ar    1  UNL1        0.1235
     29 F          -9.2027   -0.0884    0.7223 F       1  UNL1       -0.2055
     30 C          -7.1644   -0.1302   -0.5351 C.ar    1  UNL1       -0.0244
     31 C          -5.8174    0.1267   -0.6379 C.ar    1  UNL1       -0.0335
     32 C          -2.7627    0.1028    0.3739 C.ar    1  UNL1        0.1485
     33 H          -4.6966   -1.5673    1.4085 H       1  UNL1        0.0457
     34 H          -4.4326   -2.3118   -0.1945 H       1  UNL1        0.0457
     35 H          -3.6829   -2.9965    1.2639 H       1  UNL1        0.0457
     36 H           0.6113   -1.6593    0.5176 H       1  UNL1        0.0691
     37 H           1.2624    1.2030    1.2080 H       1  UNL1        0.1522
     38 H           3.2603    0.1696    0.3253 H       1  UNL1        0.0644
     39 H           5.0629   -0.5349    0.6875 H       1  UNL1        0.1493
     40 H           7.9001   -0.7749   -0.5536 H       1  UNL1        0.0498
     41 H           6.2067   -2.7504    1.1867 H       1  UNL1        0.0284
     42 H           7.9819   -2.9612    0.7029 H       1  UNL1        0.0284
     43 H           6.8062   -0.5537    2.3995 H       1  UNL1        0.0284
     44 H           8.6044   -0.8366    1.8754 H       1  UNL1        0.0284
     45 H           4.6855    1.5461   -3.4187 H       1  UNL1        0.0625
     46 H           2.3879    2.4360   -3.8673 H       1  UNL1        0.0633
     47 H          -1.2275    2.9652   -0.0147 H       1  UNL1        0.0855
     48 H          -5.3335    1.4320    2.4291 H       1  UNL1        0.0640
     49 H          -7.7436    0.9747    2.6190 H       1  UNL1        0.0647
     50 H          -7.7087   -0.5715   -1.3571 H       1  UNL1        0.0647
     51 H          -5.2926   -0.1155   -1.5539 H       1  UNL1        0.0640
@<TRIPOS>BOND
     1     1     2    1
     2     2     3   ar
     3     3     4    2
     4     3     5   ar
     5     5     6   ar
     6     6     7    1
     7     7     8    1
     8     8     9   ar
     9     9    10   ar
    10    10    11    1
    11    11    12    2
    12    11    13   am
    13    13    14    1
    14    14    15    1
    15    15    16    1
    16    10    17   ar
    17    17    18   ar
    18    18    19   ar
    19    19    20    1
    20     6    21   ar
    21    21    22   ar
    22    22    23   ar
    23    23    24   ar
    24    24    25    1
    25    25    26   ar
    26    26    27   ar
    27    27    28   ar
    28    28    29    1
    29    28    30   ar
    30    30    31   ar
    31    24    32   ar
    32    32     2   ar
    33    19     8   ar
    34    32    21   ar
    35    16    14    1
    36    31    25   ar
    37     1    33    1
    38     1    34    1
    39     1    35    1
    40     5    36    1
    41     7    37    1
    42     9    38    1
    43    13    39    1
    44    14    40    1
    45    15    41    1
    46    15    42    1
    47    16    43    1
    48    16    44    1
    49    17    45    1
    50    18    46    1
    51    22    47    1
    52    26    48    1
    53    27    49    1
    54    30    50    1
    55    31    51    1
