@<TRIPOS>MOLECULE
*****
 40 40 0 0 0
SMALL
GASTEIGER

@<TRIPOS>ATOM
      1 C          -1.3601    1.6012    1.8963 C.3     1  UNL1       -0.0497
      2 C          -1.1929    1.7605    0.3721 C.3     1  UNL1        0.0051
      3 C          -0.6158    3.1860    0.2139 C.3     1  UNL1       -0.0497
      4 N          -0.2677    0.7910   -0.0712 N.3     1  UNL1       -0.2954
      5 C           1.0063    1.0114    0.5550 C.3     1  UNL1        0.0244
      6 C           2.0731    0.0599    0.1767 C.ar    1  UNL1       -0.0319
      7 C           2.3580   -1.0764    0.9088 C.ar    1  UNL1       -0.0559
      8 C           3.3574   -1.9550    0.5463 C.ar    1  UNL1       -0.0417
      9 C           4.1260   -1.7345   -0.5769 C.ar    1  UNL1        0.0593
     10 CL          5.4064   -2.8476   -1.0464 Cl      1  UNL1       -0.0820
     11 C           3.8599   -0.6066   -1.3228 C.ar    1  UNL1        0.0595
     12 CL          4.8506   -0.3372   -2.7479 Cl      1  UNL1       -0.0820
     13 C           2.8580    0.2702   -0.9558 C.ar    1  UNL1       -0.0376
     14 C          -0.6919   -0.5350   -0.1032 C.3     1  UNL1        0.0046
     15 C          -1.6276   -1.0565   -1.1061 C.3     1  UNL1       -0.0032
     16 C          -3.0055   -0.5778   -1.2931 C.3     1  UNL1        0.0011
     17 N          -3.3497   -1.2641   -0.0299 N.3     1  UNL1       -0.3153
     18 C          -2.3765   -2.2845   -0.4911 C.3     1  UNL1        0.0011
     19 CL          0.6909    0.0000    0.0000 Cl      2  UNL2       -0.1454
     20 H          -1.0067    0.6263    2.2615 H       1  UNL1        0.0245
     21 H          -2.4496    1.6723    2.1711 H       1  UNL1        0.0245
     22 H          -0.7950    2.3692    2.4499 H       1  UNL1        0.0245
     23 H          -2.1919    1.7438   -0.0627 H       1  UNL1        0.0457
     24 H          -1.4692    3.8913    0.1951 H       1  UNL1        0.0245
     25 H           0.0195    3.4584    1.0777 H       1  UNL1        0.0245
     26 H          -0.0123    3.1954   -0.7165 H       1  UNL1        0.0245
     27 H           0.8853    1.0212    1.6828 H       1  UNL1        0.0476
     28 H           1.3778    2.0686    0.3660 H       1  UNL1        0.0476
     29 H           1.7435   -1.2389    1.7926 H       1  UNL1        0.0621
     30 H           3.5445   -2.8379    1.1563 H       1  UNL1        0.0633
     31 H           2.6488    1.1514   -1.5391 H       1  UNL1        0.0636
     32 H          -1.0925   -0.8768    0.9203 H       1  UNL1        0.0430
     33 H           0.2337   -1.2396   -0.1559 H       1  UNL1        0.0430
     34 H          -1.1362   -1.3855   -2.0819 H       1  UNL1        0.0338
     35 H          -3.2622    0.4674   -1.3631 H       1  UNL1        0.0428
     36 H          -3.4944   -1.1919   -2.1445 H       1  UNL1        0.0428
     37 H          -4.3275   -1.6337   -0.0124 H       1  UNL1        0.1220
     38 H          -2.8322   -2.9270   -1.2445 H       1  UNL1        0.0428
     39 H          -1.7916   -2.7393    0.3228 H       1  UNL1        0.0428
     40 H          -0.6909    0.0000    0.0000 H       1  UNL1        0.1454
@<TRIPOS>BOND
     1     1     2    1
     2     2     3    1
     3     2     4    1
     4     4     5    1
     5     5     6    1
     6     6     7   ar
     7     7     8   ar
     8     8     9   ar
     9     9    10    1
    10     9    11   ar
    11    11    12    1
    12    11    13   ar
    13     4    14    1
    14    14    15    1
    15    15    16    1
    16    16    17    1
    17    17    18    1
    18    13     6   ar
    19    18    15    1
    20     1    20    1
    21     1    21    1
    22     1    22    1
    23     2    23    1
    24     3    24    1
    25     3    25    1
    26     3    26    1
    27     5    27    1
    28     5    28    1
    29     7    29    1
    30     8    30    1
    31    13    31    1
    32    14    32    1
    33    14    33    1
    34    15    34    1
    35    16    35    1
    36    16    36    1
    37    17    37    1
    38    18    38    1
    39    18    39    1
    40    19    40    1
