
     RDKit          3D

 40 40  0  0  0  0  0  0  0  0999 V2000
   -1.3601    1.6012    1.8963 C   0  0  0  0  0  0  0  0  0  0  0  0
   -1.1929    1.7605    0.3721 C   0  0  0  0  0  0  0  0  0  0  0  0
   -0.6158    3.1860    0.2139 C   0  0  0  0  0  0  0  0  0  0  0  0
   -0.2677    0.7910   -0.0712 N   0  0  0  0  0  0  0  0  0  0  0  0
    1.0063    1.0114    0.5550 C   0  0  0  0  0  0  0  0  0  0  0  0
    2.0731    0.0599    0.1767 C   0  0  0  0  0  0  0  0  0  0  0  0
    2.3580   -1.0764    0.9088 C   0  0  0  0  0  0  0  0  0  0  0  0
    3.3574   -1.9550    0.5463 C   0  0  0  0  0  0  0  0  0  0  0  0
    4.1260   -1.7345   -0.5769 C   0  0  0  0  0  0  0  0  0  0  0  0
    5.4064   -2.8476   -1.0464 Cl  0  0  0  0  0  0  0  0  0  0  0  0
    3.8599   -0.6066   -1.3228 C   0  0  0  0  0  0  0  0  0  0  0  0
    4.8506   -0.3372   -2.7479 Cl  0  0  0  0  0  0  0  0  0  0  0  0
    2.8580    0.2702   -0.9558 C   0  0  0  0  0  0  0  0  0  0  0  0
   -0.6919   -0.5350   -0.1032 C   0  0  0  0  0  0  0  0  0  0  0  0
   -1.6276   -1.0565   -1.1061 C   0  0  0  0  0  0  0  0  0  0  0  0
   -3.0055   -0.5778   -1.2931 C   0  0  0  0  0  0  0  0  0  0  0  0
   -3.3497   -1.2641   -0.0299 N   0  0  0  0  0  0  0  0  0  0  0  0
   -2.3765   -2.2845   -0.4911 C   0  0  0  0  0  0  0  0  0  0  0  0
    0.6909    0.0000    0.0000 Cl  0  0  0  0  0  0  0  0  0  0  0  0
   -1.0067    0.6263    2.2615 H   0  0  0  0  0  0  0  0  0  0  0  0
   -2.4496    1.6723    2.1711 H   0  0  0  0  0  0  0  0  0  0  0  0
   -0.7950    2.3692    2.4499 H   0  0  0  0  0  0  0  0  0  0  0  0
   -2.1919    1.7438   -0.0627 H   0  0  0  0  0  0  0  0  0  0  0  0
   -1.4692    3.8913    0.1951 H   0  0  0  0  0  0  0  0  0  0  0  0
    0.0195    3.4584    1.0777 H   0  0  0  0  0  0  0  0  0  0  0  0
   -0.0123    3.1954   -0.7165 H   0  0  0  0  0  0  0  0  0  0  0  0
    0.8853    1.0212    1.6828 H   0  0  0  0  0  0  0  0  0  0  0  0
    1.3778    2.0686    0.3660 H   0  0  0  0  0  0  0  0  0  0  0  0
    1.7435   -1.2389    1.7926 H   0  0  0  0  0  0  0  0  0  0  0  0
    3.5445   -2.8379    1.1563 H   0  0  0  0  0  0  0  0  0  0  0  0
    2.6488    1.1514   -1.5391 H   0  0  0  0  0  0  0  0  0  0  0  0
   -1.0925   -0.8768    0.9203 H   0  0  0  0  0  0  0  0  0  0  0  0
    0.2337   -1.2396   -0.1559 H   0  0  0  0  0  0  0  0  0  0  0  0
   -1.1362   -1.3855   -2.0819 H   0  0  0  0  0  0  0  0  0  0  0  0
   -3.2622    0.4674   -1.3631 H   0  0  0  0  0  0  0  0  0  0  0  0
   -3.4944   -1.1919   -2.1445 H   0  0  0  0  0  0  0  0  0  0  0  0
   -4.3275   -1.6337   -0.0124 H   0  0  0  0  0  0  0  0  0  0  0  0
   -2.8322   -2.9270   -1.2445 H   0  0  0  0  0  0  0  0  0  0  0  0
   -1.7916   -2.7393    0.3228 H   0  0  0  0  0  0  0  0  0  0  0  0
   -0.6909    0.0000    0.0000 H   0  0  0  0  0  0  0  0  0  0  0  0
  1  2  1  0
  2  3  1  0
  2  4  1  0
  4  5  1  0
  5  6  1  0
  6  7  2  0
  7  8  1  0
  8  9  2  0
  9 10  1  0
  9 11  1  0
 11 12  1  0
 11 13  2  0
  4 14  1  0
 14 15  1  0
 15 16  1  0
 16 17  1  0
 17 18  1  0
 13  6  1  0
 18 15  1  0
  1 20  1  0
  1 21  1  0
  1 22  1  0
  2 23  1  0
  3 24  1  0
  3 25  1  0
  3 26  1  0
  5 27  1  0
  5 28  1  0
  7 29  1  0
  8 30  1  0
 13 31  1  0
 14 32  1  0
 14 33  1  0
 15 34  1  0
 16 35  1  0
 16 36  1  0
 17 37  1  0
 18 38  1  0
 18 39  1  0
 19 40  1  0
M  END
$$$$
