@<TRIPOS>MOLECULE
*****
 49 51 0 0 0
SMALL
GASTEIGER

@<TRIPOS>ATOM
      1 C          -0.1428    0.9310    1.4738 C.3     1  UNL1        0.1134
      2 C           0.8486    0.6809    0.3482 C.3     1  UNL1        0.0879
      3 O           0.8044    1.7079   -0.5656 O.3     1  UNL1       -0.2837
      4 P           1.9024    1.4073   -1.7906 P.3     1  UNL1        0.4819
      5 O           1.2278    1.8807   -3.2770 O.3     1  UNL1       -0.3022
      6 O           3.1451    2.2361   -1.5711 O.2     1  UNL1       -0.2269
      7 O           2.2622   -0.2420   -1.8053 O.3     1  UNL1       -0.2077
      8 P           3.9339   -0.4590   -1.8509 P.3     1  UNL1        0.3502
      9 O           4.7136    0.9488   -2.3411 O.3     1  UNL1       -0.3232
     10 O           4.2121   -1.5278   -2.8829 O.2     1  UNL1       -0.2576
     11 C           4.4958   -0.9753   -0.2110 C.3     1  UNL1        0.1511
     12 P           5.7702    0.1099    0.4570 P.3     1  UNL1        0.3394
     13 O           5.4042    0.5783    2.0570 O.3     1  UNL1       -0.3236
     14 O           7.2430   -0.7143    0.5277 O.3     1  UNL1       -0.3236
     15 O           5.8694    1.3346   -0.3961 O.2     1  UNL1       -0.2582
     16 O          -1.3966    1.0105    0.9321 O.3     1  UNL1       -0.3456
     17 C          -2.2477    0.2075    1.6812 C.3     1  UNL1        0.1667
     18 N          -3.4406   -0.1242    0.9610 N.ar    1  UNL1       -0.2855
     19 C          -4.3601   -0.9996    1.3943 C.ar    1  UNL1        0.1004
     20 N          -5.3701   -1.1198    0.5285 N.ar    1  UNL1       -0.2306
     21 C          -5.1209   -0.3039   -0.5117 C.ar    1  UNL1        0.1473
     22 C          -5.7391    0.0350   -1.6994 C.ar    1  UNL1        0.1472
     23 N          -6.9765   -0.5978   -1.9859 N.pl3   1  UNL1       -0.3413
     24 N          -5.1535    0.9290   -2.5119 N.ar    1  UNL1       -0.2188
     25 C          -3.9823    1.5312   -2.2461 C.ar    1  UNL1        0.1205
     26 N          -3.3751    1.2042   -1.0888 N.ar    1  UNL1       -0.2159
     27 C          -3.9212    0.3053   -0.2271 C.ar    1  UNL1        0.1674
     28 C          -1.3571   -1.0220    1.8503 C.3     1  UNL1        0.1285
     29 O          -1.8855   -1.9270    2.7397 O.3     1  UNL1       -0.3847
     30 C          -0.1023   -0.3300    2.3444 C.3     1  UNL1        0.1135
     31 O          -0.3090    0.0206    3.6699 O.3     1  UNL1       -0.3864
     32 H           0.0837    1.8277    2.0442 H       1  UNL1        0.0647
     33 H           1.8982    0.6090    0.7594 H       1  UNL1        0.0592
     34 H           0.6531   -0.2824   -0.1420 H       1  UNL1        0.0592
     35 H           1.9559    1.8654   -3.9483 H       1  UNL1        0.2220
     36 H           5.6212    0.7834   -2.6644 H       1  UNL1        0.2198
     37 H           3.6576   -1.0261    0.5046 H       1  UNL1        0.0513
     38 H           4.9010   -2.0181   -0.3008 H       1  UNL1        0.0513
     39 H           4.7276   -0.0749    2.3902 H       1  UNL1        0.2198
     40 H           7.2265   -1.6059    0.1312 H       1  UNL1        0.2198
     41 H          -2.4193    0.6709    2.6657 H       1  UNL1        0.0866
     42 H          -4.3611   -1.5820    2.3222 H       1  UNL1        0.1030
     43 H          -7.3835   -1.3594   -2.5719 H       1  UNL1        0.1438
     44 H          -7.7446   -0.1746   -1.4388 H       1  UNL1        0.1438
     45 H          -3.5785    2.2408   -2.9549 H       1  UNL1        0.1048
     46 H          -1.1017   -1.4375    0.8558 H       1  UNL1        0.0665
     47 H          -1.9367   -2.8003    2.2351 H       1  UNL1        0.2101
     48 H           0.8041   -0.9289    2.1721 H       1  UNL1        0.0647
     49 H           0.0444    0.8857    3.9381 H       1  UNL1        0.2100
@<TRIPOS>BOND
     1     1     2    1
     2     2     3    1
     3     3     4    1
     4     4     5    1
     5     4     6    2
     6     4     7    1
     7     7     8    1
     8     8     9    1
     9     8    10    2
    10     8    11    1
    11    11    12    1
    12    12    13    1
    13    12    14    1
    14    12    15    2
    15     1    16    1
    16    16    17    1
    17    17    18    1
    18    18    19   ar
    19    19    20   ar
    20    20    21   ar
    21    21    22   ar
    22    22    23    1
    23    22    24   ar
    24    24    25   ar
    25    25    26   ar
    26    26    27   ar
    27    17    28    1
    28    28    29    1
    29    28    30    1
    30    30    31    1
    31    30     1    1
    32    27    18   ar
    33    27    21   ar
    34     1    32    1
    35     2    33    1
    36     2    34    1
    37     5    35    1
    38     9    36    1
    39    11    37    1
    40    11    38    1
    41    13    39    1
    42    14    40    1
    43    17    41    1
    44    19    42    1
    45    23    43    1
    46    23    44    1
    47    25    45    1
    48    28    46    1
    49    29    47    1
    50    30    48    1
    51    31    49    1
