
     RDKit          3D

 55 58  0  0  0  0  0  0  0  0999 V2000
    6.3140    0.6418    0.3392 C   0  0  0  0  0  0  0  0  0  0  0  0
    5.4723   -0.5861    0.5880 C   0  0  0  0  0  0  0  0  0  0  0  0
    5.8811   -1.7444   -0.2865 C   0  0  0  0  0  0  0  0  0  0  0  0
    5.5878   -0.9292    2.0578 C   0  0  0  0  0  0  0  0  0  0  0  0
    4.0421   -0.2884    0.3215 C   0  0  0  0  0  0  0  0  0  0  0  0
    3.5766   -0.4984   -0.9601 C   0  0  0  0  0  0  0  0  0  0  0  0
    2.2487   -0.2257   -1.2219 C   0  0  0  0  0  0  0  0  0  0  0  0
    1.3917    0.2431   -0.2506 C   0  0  0  0  0  0  0  0  0  0  0  0
    0.0413    0.4935   -0.6214 N   0  0  0  0  0  0  0  0  0  0  0  0
   -0.9644   -0.4303   -0.6005 C   0  0  0  0  0  0  0  0  0  0  0  0
   -0.7755   -1.8158   -0.1873 C   0  0  0  0  0  0  0  0  0  0  0  0
   -1.7431   -2.6048   -0.1938 O   0  0  0  0  0  0  0  0  0  0  0  0
    0.4584   -2.2977    0.2192 O   0  0  0  0  0  0  0  0  0  0  0  0
   -2.1111    0.2004   -1.0271 C   0  0  0  0  0  0  0  0  0  0  0  0
   -3.3318   -0.3922   -1.1432 O   0  0  0  0  0  0  0  0  0  0  0  0
   -4.2964   -0.4680   -0.1708 C   0  0  0  0  0  0  0  0  0  0  0  0
   -4.1526    0.0653    1.0997 C   0  0  0  0  0  0  0  0  0  0  0  0
   -5.1545   -0.0388    2.0410 C   0  0  0  0  0  0  0  0  0  0  0  0
   -6.3459   -0.6847    1.7443 C   0  0  0  0  0  0  0  0  0  0  0  0
   -6.5021   -1.2204    0.4824 C   0  0  0  0  0  0  0  0  0  0  0  0
   -7.7874   -1.9067    0.1908 C   0  0  0  0  0  0  0  0  0  0  0  0
   -8.0568   -1.7658   -1.1566 F   0  0  0  0  0  0  0  0  0  0  0  0
   -7.5901   -3.2511    0.5014 F   0  0  0  0  0  0  0  0  0  0  0  0
   -8.8182   -1.3950    0.9572 F   0  0  0  0  0  0  0  0  0  0  0  0
   -5.4855   -1.1078   -0.4536 C   0  0  0  0  0  0  0  0  0  0  0  0
   -1.8185    1.5113   -1.3120 C   0  0  0  0  0  0  0  0  0  0  0  0
   -2.5326    2.6122   -1.7672 C   0  0  0  0  0  0  0  0  0  0  0  0
   -1.9292    3.8281   -1.9568 C   0  0  0  0  0  0  0  0  0  0  0  0
   -0.5932    3.9606   -1.6917 C   0  0  0  0  0  0  0  0  0  0  0  0
    0.2099    5.5030   -1.9237 Cl  0  0  0  0  0  0  0  0  0  0  0  0
    0.1317    2.9012   -1.2452 C   0  0  0  0  0  0  0  0  0  0  0  0
   -0.4669    1.6637   -1.0488 C   0  0  0  0  0  0  0  0  0  0  0  0
    1.8786    0.4424    1.0110 C   0  0  0  0  0  0  0  0  0  0  0  0
    3.1993    0.1800    1.3055 C   0  0  0  0  0  0  0  0  0  0  0  0
    7.3677    0.3353    0.2036 H   0  0  0  0  0  0  0  0  0  0  0  0
    5.9291    1.1590   -0.5473 H   0  0  0  0  0  0  0  0  0  0  0  0
    6.2244    1.2947    1.2371 H   0  0  0  0  0  0  0  0  0  0  0  0
    4.9937   -2.3174   -0.5553 H   0  0  0  0  0  0  0  0  0  0  0  0
    6.3964   -1.3938   -1.2159 H   0  0  0  0  0  0  0  0  0  0  0  0
    6.5457   -2.3901    0.3226 H   0  0  0  0  0  0  0  0  0  0  0  0
    5.6242    0.0257    2.6238 H   0  0  0  0  0  0  0  0  0  0  0  0
    6.5387   -1.4631    2.2215 H   0  0  0  0  0  0  0  0  0  0  0  0
    4.7195   -1.5040    2.4140 H   0  0  0  0  0  0  0  0  0  0  0  0
    4.2090   -0.8653   -1.7586 H   0  0  0  0  0  0  0  0  0  0  0  0
    1.9068   -0.3978   -2.2330 H   0  0  0  0  0  0  0  0  0  0  0  0
    0.5688   -3.0511    0.8857 H   0  0  0  0  0  0  0  0  0  0  0  0
   -3.2030    0.5637    1.2917 H   0  0  0  0  0  0  0  0  0  0  0  0
   -4.9880    0.3992    3.0253 H   0  0  0  0  0  0  0  0  0  0  0  0
   -7.1063   -0.7441    2.5119 H   0  0  0  0  0  0  0  0  0  0  0  0
   -5.6446   -1.5423   -1.4377 H   0  0  0  0  0  0  0  0  0  0  0  0
   -3.5949    2.4839   -1.9718 H   0  0  0  0  0  0  0  0  0  0  0  0
   -2.4753    4.6785   -2.3072 H   0  0  0  0  0  0  0  0  0  0  0  0
    1.1942    2.9844   -1.0285 H   0  0  0  0  0  0  0  0  0  0  0  0
    1.2310    0.8073    1.7865 H   0  0  0  0  0  0  0  0  0  0  0  0
    3.5850    0.3419    2.3206 H   0  0  0  0  0  0  0  0  0  0  0  0
  1  2  1  0
  2  3  1  0
  2  4  1  0
  2  5  1  0
  5  6  2  0
  6  7  1  0
  7  8  2  0
  8  9  1  0
  9 10  1  0
 10 11  1  0
 11 12  2  0
 11 13  1  0
 10 14  2  0
 14 15  1  0
 15 16  1  0
 16 17  2  0
 17 18  1  0
 18 19  2  0
 19 20  1  0
 20 21  1  0
 21 22  1  0
 21 23  1  0
 21 24  1  0
 20 25  2  0
 14 26  1  0
 26 27  2  0
 27 28  1  0
 28 29  2  0
 29 30  1  0
 29 31  1  0
 31 32  2  0
  8 33  1  0
 33 34  2  0
 34  5  1  0
 32  9  1  0
 25 16  1  0
 32 26  1  0
  1 35  1  0
  1 36  1  0
  1 37  1  0
  3 38  1  0
  3 39  1  0
  3 40  1  0
  4 41  1  0
  4 42  1  0
  4 43  1  0
  6 44  1  0
  7 45  1  0
 13 46  1  0
 17 47  1  0
 18 48  1  0
 19 49  1  0
 25 50  1  0
 27 51  1  0
 28 52  1  0
 31 53  1  0
 33 54  1  0
 34 55  1  0
M  END
$$$$
