@<TRIPOS>MOLECULE
*****
 55 58 0 0 0
SMALL
GASTEIGER

@<TRIPOS>ATOM
      1 C           6.3140    0.6418    0.3392 C.3     1  UNL1       -0.0560
      2 C           5.4723   -0.5861    0.5880 C.3     1  UNL1       -0.0127
      3 C           5.8811   -1.7444   -0.2865 C.3     1  UNL1       -0.0560
      4 C           5.5878   -0.9292    2.0578 C.3     1  UNL1       -0.0560
      5 C           4.0421   -0.2884    0.3215 C.ar    1  UNL1       -0.0418
      6 C           3.5766   -0.4984   -0.9601 C.ar    1  UNL1       -0.0561
      7 C           2.2487   -0.2257   -1.2219 C.ar    1  UNL1       -0.0375
      8 C           1.3917    0.2431   -0.2506 C.ar    1  UNL1        0.0475
      9 N           0.0413    0.4935   -0.6214 N.ar    1  UNL1       -0.3003
     10 C          -0.9644   -0.4303   -0.6005 C.ar    1  UNL1        0.1750
     11 C          -0.7755   -1.8158   -0.1873 C.2     1  UNL1        0.3575
     12 O          -1.7431   -2.6048   -0.1938 O.2     1  UNL1       -0.2433
     13 O           0.4584   -2.2977    0.2192 O.3     1  UNL1       -0.4760
     14 C          -2.1111    0.2004   -1.0271 C.ar    1  UNL1        0.1683
     15 O          -3.3318   -0.3922   -1.1432 O.3     1  UNL1       -0.4530
     16 C          -4.2964   -0.4680   -0.1708 C.ar    1  UNL1        0.1291
     17 C          -4.1526    0.0653    1.0997 C.ar    1  UNL1       -0.0193
     18 C          -5.1545   -0.0388    2.0410 C.ar    1  UNL1       -0.0578
     19 C          -6.3459   -0.6847    1.7443 C.ar    1  UNL1       -0.0499
     20 C          -6.5021   -1.2204    0.4824 C.ar    1  UNL1        0.0583
     21 C          -7.7874   -1.9067    0.1908 C.3     1  UNL1        0.4175
     22 F          -8.0568   -1.7658   -1.1566 F       1  UNL1       -0.1659
     23 F          -7.5901   -3.2511    0.5014 F       1  UNL1       -0.1659
     24 F          -8.8182   -1.3950    0.9572 F       1  UNL1       -0.1659
     25 C          -5.4855   -1.1078   -0.4536 C.ar    1  UNL1       -0.0077
     26 C          -1.8185    1.5113   -1.3120 C.ar    1  UNL1        0.0435
     27 C          -2.5326    2.6122   -1.7672 C.ar    1  UNL1       -0.0476
     28 C          -1.9292    3.8281   -1.9568 C.ar    1  UNL1       -0.0426
     29 C          -0.5932    3.9606   -1.6917 C.ar    1  UNL1        0.0430
     30 CL          0.2099    5.5030   -1.9237 Cl      1  UNL1       -0.0835
     31 C           0.1317    2.9012   -1.2452 C.ar    1  UNL1       -0.0188
     32 C          -0.4669    1.6637   -1.0488 C.ar    1  UNL1        0.0596
     33 C           1.8786    0.4424    1.0110 C.ar    1  UNL1       -0.0375
     34 C           3.1993    0.1800    1.3055 C.ar    1  UNL1       -0.0561
     35 H           7.3677    0.3353    0.2036 H       1  UNL1        0.0238
     36 H           5.9291    1.1590   -0.5473 H       1  UNL1        0.0238
     37 H           6.2244    1.2947    1.2371 H       1  UNL1        0.0238
     38 H           4.9937   -2.3174   -0.5553 H       1  UNL1        0.0238
     39 H           6.3964   -1.3938   -1.2159 H       1  UNL1        0.0238
     40 H           6.5457   -2.3901    0.3226 H       1  UNL1        0.0238
     41 H           5.6242    0.0257    2.6238 H       1  UNL1        0.0238
     42 H           6.5387   -1.4631    2.2215 H       1  UNL1        0.0238
     43 H           4.7195   -1.5040    2.4140 H       1  UNL1        0.0238
     44 H           4.2090   -0.8653   -1.7586 H       1  UNL1        0.0621
     45 H           1.9068   -0.3978   -2.2330 H       1  UNL1        0.0638
     46 H           0.5688   -3.0511    0.8857 H       1  UNL1        0.2955
     47 H          -3.2030    0.5637    1.2917 H       1  UNL1        0.0654
     48 H          -4.9880    0.3992    3.0253 H       1  UNL1        0.0619
     49 H          -7.1063   -0.7441    2.5119 H       1  UNL1        0.0623
     50 H          -5.6446   -1.5423   -1.4377 H       1  UNL1        0.0660
     51 H          -3.5949    2.4839   -1.9718 H       1  UNL1        0.0626
     52 H          -2.4753    4.6785   -2.3072 H       1  UNL1        0.0632
     53 H           1.1942    2.9844   -1.0285 H       1  UNL1        0.0653
     54 H           1.2310    0.8073    1.7865 H       1  UNL1        0.0638
     55 H           3.5850    0.3419    2.3206 H       1  UNL1        0.0621
@<TRIPOS>BOND
     1     1     2    1
     2     2     3    1
     3     2     4    1
     4     2     5    1
     5     5     6   ar
     6     6     7   ar
     7     7     8   ar
     8     8     9    1
     9     9    10   ar
    10    10    11    1
    11    11    12    2
    12    11    13    1
    13    10    14   ar
    14    14    15    1
    15    15    16    1
    16    16    17   ar
    17    17    18   ar
    18    18    19   ar
    19    19    20   ar
    20    20    21    1
    21    21    22    1
    22    21    23    1
    23    21    24    1
    24    20    25   ar
    25    14    26   ar
    26    26    27   ar
    27    27    28   ar
    28    28    29   ar
    29    29    30    1
    30    29    31   ar
    31    31    32   ar
    32     8    33   ar
    33    33    34   ar
    34    34     5   ar
    35    32     9   ar
    36    25    16   ar
    37    32    26   ar
    38     1    35    1
    39     1    36    1
    40     1    37    1
    41     3    38    1
    42     3    39    1
    43     3    40    1
    44     4    41    1
    45     4    42    1
    46     4    43    1
    47     6    44    1
    48     7    45    1
    49    13    46    1
    50    17    47    1
    51    18    48    1
    52    19    49    1
    53    25    50    1
    54    27    51    1
    55    28    52    1
    56    31    53    1
    57    33    54    1
    58    34    55    1
