@<TRIPOS>MOLECULE
*****
 61 65 0 0 0
SMALL
GASTEIGER

@<TRIPOS>ATOM
      1 C          10.1494   -0.5526    2.0702 C.1     1  UNL1       -0.1158
      2 C          10.0770    0.6013    1.5985 C.1     1  UNL1       -0.0647
      3 C           9.9732    2.0313    1.0173 C.3     1  UNL1        0.1513
      4 O           8.7384    2.0442    0.5484 O.3     1  UNL1       -0.4624
      5 C           7.5592    2.0661    0.0983 C.ar    1  UNL1        0.2344
      6 C           6.9462    0.7306    0.1799 C.ar    1  UNL1        0.0899
      7 N           5.7572    0.4620   -0.1920 N.ar    1  UNL1       -0.2459
      8 C           4.9454    1.4139   -0.7095 C.ar    1  UNL1        0.1172
      9 C           3.5817    1.0049   -1.0531 C.2     1  UNL1        0.1507
     10 F           2.6417    1.9205   -1.3895 F       1  UNL1       -0.2032
     11 C           3.2425   -0.2619   -1.0370 C.2     1  UNL1       -0.0171
     12 C           1.9728   -0.8820   -1.3211 C.ar    1  UNL1       -0.0217
     13 C           1.8111   -1.8195   -2.3190 C.ar    1  UNL1       -0.0518
     14 C           0.6237   -2.4894   -2.4058 C.ar    1  UNL1       -0.0255
     15 C          -0.4173   -2.2632   -1.5274 C.ar    1  UNL1        0.1289
     16 F          -1.5471   -2.9860   -1.6839 F       1  UNL1       -0.2051
     17 C          -0.2794   -1.3279   -0.5162 C.ar    1  UNL1        0.0158
     18 C          -1.3092   -1.1725    0.5369 C.3     1  UNL1        0.0935
     19 C          -0.9412   -2.4056    1.4942 C.3     1  UNL1       -0.0351
     20 N          -0.9230   -0.0838    1.4544 N.2     1  UNL1       -0.2521
     21 C          -1.4331    1.0581    1.4247 C.2     1  UNL1        0.1485
     22 N          -1.0910    2.1006    2.2738 N.pl3   1  UNL1       -0.3380
     23 S          -2.7083    1.3979    0.2069 S.3     1  UNL1       -0.0746
     24 C          -3.6055   -0.1954    0.0897 C.3     1  UNL1        0.1054
     25 C          -4.8736   -0.2073    0.8523 C.2     1  UNL1        0.2325
     26 O          -4.7737   -0.7462    2.0356 O.2     1  UNL1       -0.2741
     27 N          -6.1113    0.2613    0.4855 N.am    1  UNL1       -0.2975
     28 C          -7.3507    0.1402    1.2836 C.3     1  UNL1        0.0175
     29 C          -8.4334   -0.0575    0.2683 C.3     1  UNL1       -0.0044
     30 C          -7.7793    0.1878   -1.0771 C.3     1  UNL1        0.1180
     31 F          -8.6208    0.9406   -1.8591 F       1  UNL1       -0.2438
     32 C          -6.5279    0.9860   -0.6911 C.3     1  UNL1        0.0459
     33 C          -3.3714   -1.0469   -1.0758 C.3     1  UNL1       -0.0220
     34 C          -2.6965   -1.3605    0.2101 C.3     1  UNL1        0.0134
     35 C           0.9106   -0.6481   -0.4280 C.ar    1  UNL1       -0.0463
     36 C           5.4342    2.6583   -0.8244 C.ar    1  UNL1        0.0596
     37 N           6.7069    2.9641   -0.4258 N.ar    1  UNL1       -0.2178
     38 H          10.1919   -1.5219    2.4676 H       1  UNL1        0.1229
     39 H          10.2075    2.6790    1.8488 H       1  UNL1        0.0837
     40 H          10.7975    2.0608    0.2546 H       1  UNL1        0.0837
     41 H           7.5765   -0.0675    0.5866 H       1  UNL1        0.0884
     42 H           4.0978   -0.9417   -0.7442 H       1  UNL1        0.0653
     43 H           2.6094   -2.0481   -3.0544 H       1  UNL1        0.0624
     44 H           0.5461   -3.2270   -3.2110 H       1  UNL1        0.0646
     45 H          -1.0833   -3.3299    0.9764 H       1  UNL1        0.0256
     46 H          -1.7084   -2.2896    2.2834 H       1  UNL1        0.0256
     47 H           0.0345   -2.2069    1.9139 H       1  UNL1        0.0256
     48 H          -1.2837    2.1136    3.2918 H       1  UNL1        0.1442
     49 H          -0.5880    2.9436    1.8586 H       1  UNL1        0.1442
     50 H          -7.3219   -0.6862    1.9913 H       1  UNL1        0.0465
     51 H          -7.5451    1.1217    1.8078 H       1  UNL1        0.0465
     52 H          -8.8791   -1.0720    0.2836 H       1  UNL1        0.0309
     53 H          -9.2437    0.6858    0.3819 H       1  UNL1        0.0309
     54 H          -7.4945   -0.7833   -1.5259 H       1  UNL1        0.0667
     55 H          -6.9179    2.0020   -0.4274 H       1  UNL1        0.0493
     56 H          -5.8203    1.0594   -1.4936 H       1  UNL1        0.0493
     57 H          -2.8588   -0.6197   -1.9321 H       1  UNL1        0.0287
     58 H          -4.2629   -1.6806   -1.3780 H       1  UNL1        0.0287
     59 H          -3.2436   -2.2282    0.7686 H       1  UNL1        0.0346
     60 H           1.0963    0.1035    0.3418 H       1  UNL1        0.0628
     61 H           4.8161    3.4699   -1.2529 H       1  UNL1        0.0853
@<TRIPOS>BOND
     1     1     2    3
     2     2     3    1
     3     3     4    1
     4     4     5    1
     5     5     6   ar
     6     6     7   ar
     7     7     8   ar
     8     8     9    1
     9     9    10    1
    10     9    11    2
    11    11    12    1
    12    12    13   ar
    13    13    14   ar
    14    14    15   ar
    15    15    16    1
    16    15    17   ar
    17    17    18    1
    18    18    19    1
    19    18    20    1
    20    20    21    2
    21    21    22    1
    22    21    23    1
    23    23    24    1
    24    24    25    1
    25    25    26    2
    26    25    27   am
    27    27    28    1
    28    28    29    1
    29    29    30    1
    30    30    31    1
    31    30    32    1
    32    24    33    1
    33    33    34    1
    34    17    35   ar
    35     8    36   ar
    36    36    37   ar
    37    37     5   ar
    38    35    12   ar
    39    34    18    1
    40    34    24    1
    41    32    27    1
    42     1    38    1
    43     3    39    1
    44     3    40    1
    45     6    41    1
    46    11    42    1
    47    13    43    1
    48    14    44    1
    49    19    45    1
    50    19    46    1
    51    19    47    1
    52    22    48    1
    53    22    49    1
    54    28    50    1
    55    28    51    1
    56    29    52    1
    57    29    53    1
    58    30    54    1
    59    32    55    1
    60    32    56    1
    61    33    57    1
    62    33    58    1
    63    34    59    1
    64    35    60    1
    65    36    61    1
