
     RDKit          3D

 54 56  0  0  0  0  0  0  0  0999 V2000
   -5.3285   -0.4569    0.4966 C   0  0  0  0  0  0  0  0  0  0  0  0
   -5.3279   -1.6689   -0.2919 N   0  0  0  0  0  4  0  0  0  0  0  0
   -5.9642   -1.3486   -1.5599 C   0  0  0  0  0  0  0  0  0  0  0  0
   -6.1400   -2.7125    0.3211 C   0  0  0  0  0  0  0  0  0  0  0  0
   -4.0336   -2.1904   -0.5516 C   0  0  0  0  0  0  0  0  0  0  0  0
   -2.9283   -1.2312   -0.3678 C   0  0  0  0  0  0  0  0  0  0  0  0
   -2.2526   -1.0303    0.7948 C   0  0  0  0  0  0  0  0  0  0  0  0
   -1.2302   -0.1055    0.8627 C   0  0  0  0  0  0  0  0  0  0  0  0
   -0.8334    0.6589   -0.2151 C   0  0  0  0  0  0  0  0  0  0  0  0
    0.2402    1.6420   -0.1764 C   0  0  0  0  0  0  0  0  0  0  0  0
    0.5105    2.2785   -1.2262 O   0  0  0  0  0  0  0  0  0  0  0  0
    1.0202    1.9456    0.9700 N   0  0  0  0  0  0  0  0  0  0  0  0
    2.0483    2.9195    0.9188 C   0  0  0  0  0  0  0  0  0  0  0  0
    1.7986    4.2400    1.1970 C   0  0  0  0  0  0  0  0  0  0  0  0
    2.8222    5.1841    1.1416 C   0  0  0  0  0  0  0  0  0  0  0  0
    4.1059    4.8243    0.8087 C   0  0  0  0  0  0  0  0  0  0  0  0
    5.3909    6.0058    0.7386 Cl  0  0  0  0  0  0  0  0  0  0  0  0
    4.3586    3.4954    0.5285 C   0  0  0  0  0  0  0  0  0  0  0  0
    3.3407    2.5472    0.5819 C   0  0  0  0  0  0  0  0  0  0  0  0
    3.5745    1.1431    0.2928 C   0  0  0  0  0  0  0  0  0  0  0  0
    2.6180    0.2953    0.3504 O   0  0  0  0  0  0  0  0  0  0  0  0
    4.8730    0.6900   -0.0591 N   0  0  0  0  0  0  0  0  0  0  0  0
    5.0875   -0.6979   -0.3414 C   0  0  0  0  0  0  0  0  0  0  0  0
    6.3358   -1.1517   -0.6828 C   0  0  0  0  0  0  0  0  0  0  0  0
    6.5035   -2.4850   -0.9459 C   0  0  0  0  0  0  0  0  0  0  0  0
    5.4276   -3.3444   -0.8650 C   0  0  0  0  0  0  0  0  0  0  0  0
    5.6221   -5.0528   -1.1977 Cl  0  0  0  0  0  0  0  0  0  0  0  0
    4.1991   -2.8254   -0.5166 C   0  0  0  0  0  0  0  0  0  0  0  0
    4.0466   -1.5240   -0.2622 N   0  0  0  0  0  0  0  0  0  0  0  0
   -1.5374    0.4344   -1.3850 C   0  0  0  0  0  0  0  0  0  0  0  0
   -2.5611   -0.4848   -1.4717 C   0  0  0  0  0  0  0  0  0  0  0  0
   -4.4149    0.1381    0.3780 H   0  0  0  0  0  0  0  0  0  0  0  0
   -6.1815    0.2190    0.2352 H   0  0  0  0  0  0  0  0  0  0  0  0
   -5.5214   -0.7663    1.5528 H   0  0  0  0  0  0  0  0  0  0  0  0
   -7.0148   -1.0374   -1.2927 H   0  0  0  0  0  0  0  0  0  0  0  0
   -5.9609   -2.2565   -2.2034 H   0  0  0  0  0  0  0  0  0  0  0  0
   -5.4217   -0.5029   -2.0319 H   0  0  0  0  0  0  0  0  0  0  0  0
   -7.2156   -2.6215    0.0215 H   0  0  0  0  0  0  0  0  0  0  0  0
   -5.8159   -3.7133   -0.0370 H   0  0  0  0  0  0  0  0  0  0  0  0
   -6.0804   -2.5977    1.4148 H   0  0  0  0  0  0  0  0  0  0  0  0
   -4.0067   -2.6086   -1.5913 H   0  0  0  0  0  0  0  0  0  0  0  0
   -3.8468   -3.0579    0.1162 H   0  0  0  0  0  0  0  0  0  0  0  0
   -2.5406   -1.6151    1.6589 H   0  0  0  0  0  0  0  0  0  0  0  0
   -0.6935    0.0442    1.8130 H   0  0  0  0  0  0  0  0  0  0  0  0
    0.7917    1.4120    1.8454 H   0  0  0  0  0  0  0  0  0  0  0  0
    0.7977    4.5636    1.4639 H   0  0  0  0  0  0  0  0  0  0  0  0
    2.5848    6.2121    1.3673 H   0  0  0  0  0  0  0  0  0  0  0  0
    5.3639    3.2248    0.2697 H   0  0  0  0  0  0  0  0  0  0  0  0
    5.7041    1.3148   -0.1282 H   0  0  0  0  0  0  0  0  0  0  0  0
    7.1805   -0.4928   -0.7490 H   0  0  0  0  0  0  0  0  0  0  0  0
    7.4953   -2.8300   -1.2145 H   0  0  0  0  0  0  0  0  0  0  0  0
    3.3156   -3.4511   -0.4365 H   0  0  0  0  0  0  0  0  0  0  0  0
   -1.2485    1.0211   -2.2520 H   0  0  0  0  0  0  0  0  0  0  0  0
   -3.0571   -0.5924   -2.4334 H   0  0  0  0  0  0  0  0  0  0  0  0
  1  2  1  0
  2  3  1  0
  2  4  1  0
  2  5  1  0
  5  6  1  0
  6  7  2  0
  7  8  1  0
  8  9  2  0
  9 10  1  0
 10 11  2  0
 10 12  1  0
 12 13  1  0
 13 14  2  0
 14 15  1  0
 15 16  2  0
 16 17  1  0
 16 18  1  0
 18 19  2  0
 19 20  1  0
 20 21  2  0
 20 22  1  0
 22 23  1  0
 23 24  2  0
 24 25  1  0
 25 26  2  0
 26 27  1  0
 26 28  1  0
 28 29  2  0
  9 30  1  0
 30 31  2  0
 31  6  1  0
 19 13  1  0
 29 23  1  0
  1 32  1  0
  1 33  1  0
  1 34  1  0
  3 35  1  0
  3 36  1  0
  3 37  1  0
  4 38  1  0
  4 39  1  0
  4 40  1  0
  5 41  1  0
  5 42  1  0
  7 43  1  0
  8 44  1  0
 12 45  1  0
 14 46  1  0
 15 47  1  0
 18 48  1  0
 22 49  1  0
 24 50  1  0
 25 51  1  0
 28 52  1  0
 30 53  1  0
 31 54  1  0
M  CHG  1   2   1
M  END
$$$$
