@<TRIPOS>MOLECULE
*****
 54 56 0 0 0
SMALL
GASTEIGER

@<TRIPOS>ATOM
      1 C          -5.3285   -0.4569    0.4966 C.3     1  UNL1       -0.0415
      2 N          -5.3279   -1.6689   -0.2919 N.4     1  UNL1        0.2401
      3 C          -5.9642   -1.3486   -1.5599 C.3     1  UNL1       -0.0415
      4 C          -6.1400   -2.7125    0.3211 C.3     1  UNL1       -0.0415
      5 C          -4.0336   -2.1904   -0.5516 C.3     1  UNL1       -0.0049
      6 C          -2.9283   -1.2312   -0.3678 C.ar    1  UNL1       -0.0028
      7 C          -2.2526   -1.0303    0.7948 C.ar    1  UNL1       -0.0528
      8 C          -1.2302   -0.1055    0.8627 C.ar    1  UNL1       -0.0492
      9 C          -0.8334    0.6589   -0.2151 C.ar    1  UNL1        0.0370
     10 C           0.2402    1.6420   -0.1764 C.2     1  UNL1        0.2483
     11 O           0.5105    2.2785   -1.2262 O.2     1  UNL1       -0.2699
     12 N           1.0202    1.9456    0.9700 N.am    1  UNL1       -0.2808
     13 C           2.0483    2.9195    0.9188 C.ar    1  UNL1        0.0459
     14 C           1.7986    4.2400    1.1970 C.ar    1  UNL1       -0.0384
     15 C           2.8222    5.1841    1.1416 C.ar    1  UNL1       -0.0416
     16 C           4.1059    4.8243    0.8087 C.ar    1  UNL1        0.0418
     17 CL          5.3909    6.0058    0.7386 Cl      1  UNL1       -0.0835
     18 C           4.3586    3.4954    0.5285 C.ar    1  UNL1       -0.0295
     19 C           3.3407    2.5472    0.5819 C.ar    1  UNL1        0.0596
     20 C           3.5745    1.1431    0.2928 C.2     1  UNL1        0.2511
     21 O           2.6180    0.2953    0.3504 O.2     1  UNL1       -0.2697
     22 N           4.8730    0.6900   -0.0591 N.am    1  UNL1       -0.2663
     23 C           5.0875   -0.6979   -0.3414 C.ar    1  UNL1        0.1252
     24 C           6.3358   -1.1517   -0.6828 C.ar    1  UNL1       -0.0201
     25 C           6.5035   -2.4850   -0.9459 C.ar    1  UNL1       -0.0387
     26 C           5.4276   -3.3444   -0.8650 C.ar    1  UNL1        0.0592
     27 CL          5.6221   -5.0528   -1.1977 Cl      1  UNL1       -0.0820
     28 C           4.1991   -2.8254   -0.5166 C.ar    1  UNL1        0.0480
     29 N           4.0466   -1.5240   -0.2622 N.ar    1  UNL1       -0.2387
     30 C          -1.5374    0.4344   -1.3850 C.ar    1  UNL1       -0.0492
     31 C          -2.5611   -0.4848   -1.4717 C.ar    1  UNL1       -0.0528
     32 H          -4.4149    0.1381    0.3780 H       1  UNL1        0.0778
     33 H          -6.1815    0.2190    0.2352 H       1  UNL1        0.0778
     34 H          -5.5214   -0.7663    1.5528 H       1  UNL1        0.0778
     35 H          -7.0148   -1.0374   -1.2927 H       1  UNL1        0.0778
     36 H          -5.9609   -2.2565   -2.2034 H       1  UNL1        0.0778
     37 H          -5.4217   -0.5029   -2.0319 H       1  UNL1        0.0778
     38 H          -7.2156   -2.6215    0.0215 H       1  UNL1        0.0778
     39 H          -5.8159   -3.7133   -0.0370 H       1  UNL1        0.0778
     40 H          -6.0804   -2.5977    1.4148 H       1  UNL1        0.0778
     41 H          -4.0067   -2.6086   -1.5913 H       1  UNL1        0.0868
     42 H          -3.8468   -3.0579    0.1162 H       1  UNL1        0.0868
     43 H          -2.5406   -1.6151    1.6589 H       1  UNL1        0.0622
     44 H          -0.6935    0.0442    1.8130 H       1  UNL1        0.0625
     45 H           0.7917    1.4120    1.8454 H       1  UNL1        0.1552
     46 H           0.7977    4.5636    1.4639 H       1  UNL1        0.0637
     47 H           2.5848    6.2121    1.3673 H       1  UNL1        0.0633
     48 H           5.3639    3.2248    0.2697 H       1  UNL1        0.0640
     49 H           5.7041    1.3148   -0.1282 H       1  UNL1        0.1566
     50 H           7.1805   -0.4928   -0.7490 H       1  UNL1        0.0652
     51 H           7.4953   -2.8300   -1.2145 H       1  UNL1        0.0634
     52 H           3.3156   -3.4511   -0.4365 H       1  UNL1        0.0845
     53 H          -1.2485    1.0211   -2.2520 H       1  UNL1        0.0625
     54 H          -3.0571   -0.5924   -2.4334 H       1  UNL1        0.0622
@<TRIPOS>UNITY_ATOM_ATTR
2 1
charge 1
@<TRIPOS>BOND
     1     1     2    1
     2     2     3    1
     3     2     4    1
     4     2     5    1
     5     5     6    1
     6     6     7   ar
     7     7     8   ar
     8     8     9   ar
     9     9    10    1
    10    10    11    2
    11    10    12   am
    12    12    13    1
    13    13    14   ar
    14    14    15   ar
    15    15    16   ar
    16    16    17    1
    17    16    18   ar
    18    18    19   ar
    19    19    20    1
    20    20    21    2
    21    20    22   am
    22    22    23    1
    23    23    24   ar
    24    24    25   ar
    25    25    26   ar
    26    26    27    1
    27    26    28   ar
    28    28    29   ar
    29     9    30   ar
    30    30    31   ar
    31    31     6   ar
    32    19    13   ar
    33    29    23   ar
    34     1    32    1
    35     1    33    1
    36     1    34    1
    37     3    35    1
    38     3    36    1
    39     3    37    1
    40     4    38    1
    41     4    39    1
    42     4    40    1
    43     5    41    1
    44     5    42    1
    45     7    43    1
    46     8    44    1
    47    12    45    1
    48    14    46    1
    49    15    47    1
    50    18    48    1
    51    22    49    1
    52    24    50    1
    53    25    51    1
    54    28    52    1
    55    30    53    1
    56    31    54    1
