@<TRIPOS>MOLECULE
*****
 69 71 0 0 0
SMALL
GASTEIGER

@<TRIPOS>ATOM
      1 C           7.7949    0.5333    0.2305 C.3     1  UNL1       -0.0130
      2 N           7.0261   -0.3718   -0.6011 N.3     1  UNL1       -0.3069
      3 C           7.2609   -1.7500   -0.2588 C.3     1  UNL1       -0.0130
      4 C           5.6221   -0.1033   -0.5711 C.3     1  UNL1        0.0141
      5 C           4.9796   -0.4000    0.7548 C.3     1  UNL1        0.0275
      6 N           3.5586   -0.0847    0.6563 N.am    1  UNL1       -0.2987
      7 C           2.7256   -1.1627    0.2189 C.3     1  UNL1        0.0305
      8 C           1.4408   -1.3148    0.9640 C.3     1  UNL1        0.0308
      9 N           0.5893   -0.0912    0.8478 N.am    1  UNL1       -0.2955
     10 C          -0.4679   -0.1593   -0.0286 C.2     1  UNL1        0.2490
     11 O          -0.5628   -1.3449   -0.5983 O.2     1  UNL1       -0.2699
     12 C          -1.4925    0.7900   -0.4511 C.ar    1  UNL1        0.0657
     13 C          -1.4806    2.1020   -0.2731 C.ar    1  UNL1       -0.0370
     14 C          -2.4920    2.9133   -0.7513 C.ar    1  UNL1       -0.0023
     15 C          -2.7138    4.3681   -0.6934 C.3     1  UNL1       -0.0064
     16 C          -3.4952    4.7740    0.5288 C.3     1  UNL1       -0.0556
     17 C          -1.3689    5.0849   -0.6927 C.3     1  UNL1       -0.0556
     18 C          -3.4572    4.8727   -1.9125 C.3     1  UNL1       -0.0556
     19 S          -3.5539    1.6783   -1.5273 S.2     1  UNL1       -0.0771
     20 C          -2.6350    0.2834   -1.1788 C.ar    1  UNL1        0.0853
     21 N          -2.9436   -1.0231   -1.5285 N.am    1  UNL1       -0.2629
     22 C          -3.7128   -1.9012   -0.7245 C.2     1  UNL1        0.3085
     23 O          -4.1531   -1.4890    0.3747 O.2     1  UNL1       -0.2521
     24 N          -3.9729   -3.2349   -1.1768 N.am    1  UNL1       -0.2678
     25 C          -4.7274   -4.1492   -0.4314 C.ar    1  UNL1        0.0546
     26 C          -6.1015   -4.2357   -0.6144 C.ar    1  UNL1       -0.0389
     27 C          -6.9027   -5.1063    0.0769 C.ar    1  UNL1       -0.0585
     28 C          -6.2885   -5.9297    0.9975 C.ar    1  UNL1       -0.0419
     29 C          -4.9190   -5.8563    1.1924 C.ar    1  UNL1        0.0610
     30 CL         -4.1947   -6.9191    2.3671 Cl      1  UNL1       -0.0820
     31 C          -4.1217   -4.9752    0.4900 C.ar    1  UNL1        0.0804
     32 CL         -2.3743   -4.8908    0.7505 Cl      1  UNL1       -0.0801
     33 C           0.8662    1.0555    1.6490 C.3     1  UNL1        0.0233
     34 C           1.9021    1.8941    0.9550 C.3     1  UNL1        0.0399
     35 C           3.2545    1.2544    1.0144 C.2     1  UNL1        0.2171
     36 O           4.2355    1.9286    1.4112 O.2     1  UNL1       -0.2755
     37 H           7.7960    1.5458   -0.2177 H       1  UNL1        0.0391
     38 H           7.4215    0.5297    1.2738 H       1  UNL1        0.0391
     39 H           8.8595    0.1808    0.1624 H       1  UNL1        0.0391
     40 H           7.1370   -1.8536    0.8391 H       1  UNL1        0.0391
     41 H           6.5233   -2.3554   -0.8337 H       1  UNL1        0.0391
     42 H           8.3067   -2.0186   -0.5478 H       1  UNL1        0.0391
     43 H           5.1286   -0.7376   -1.3373 H       1  UNL1        0.0442
     44 H           5.4053    0.9570   -0.8567 H       1  UNL1        0.0442
     45 H           5.1373   -1.4758    0.9734 H       1  UNL1        0.0477
     46 H           5.4423    0.1654    1.5859 H       1  UNL1        0.0477
     47 H           2.4852   -1.1135   -0.8659 H       1  UNL1        0.0480
     48 H           3.2867   -2.1143    0.3583 H       1  UNL1        0.0480
     49 H           1.5402   -1.5623    2.0278 H       1  UNL1        0.0480
     50 H           0.8491   -2.1167    0.4855 H       1  UNL1        0.0480
     51 H          -0.6602    2.6794    0.2455 H       1  UNL1        0.0634
     52 H          -4.0226    5.7207    0.3081 H       1  UNL1        0.0238
     53 H          -2.7977    4.8678    1.3777 H       1  UNL1        0.0238
     54 H          -4.2648    3.9673    0.6949 H       1  UNL1        0.0238
     55 H          -1.4829    6.1781   -0.6913 H       1  UNL1        0.0238
     56 H          -0.8511    4.7393    0.2362 H       1  UNL1        0.0238
     57 H          -0.7895    4.7183   -1.5619 H       1  UNL1        0.0238
     58 H          -4.5588    4.8456   -1.7876 H       1  UNL1        0.0238
     59 H          -3.1740    4.3361   -2.8285 H       1  UNL1        0.0238
     60 H          -3.1773    5.9365   -2.0532 H       1  UNL1        0.0238
     61 H          -2.5925   -1.3956   -2.4407 H       1  UNL1        0.1569
     62 H          -3.5844   -3.5344   -2.0974 H       1  UNL1        0.1564
     63 H          -6.6003   -3.5846   -1.3449 H       1  UNL1        0.0637
     64 H          -7.9703   -5.1805   -0.0587 H       1  UNL1        0.0619
     65 H          -6.8604   -6.6402    1.5772 H       1  UNL1        0.0633
     66 H           0.0302    1.6480    1.9729 H       1  UNL1        0.0469
     67 H           1.3484    0.7001    2.6407 H       1  UNL1        0.0469
     68 H           1.9749    2.8950    1.4142 H       1  UNL1        0.0374
     69 H           1.5907    2.0327   -0.1165 H       1  UNL1        0.0374
@<TRIPOS>BOND
     1     1     2    1
     2     2     3    1
     3     2     4    1
     4     4     5    1
     5     5     6    1
     6     6     7    1
     7     7     8    1
     8     8     9    1
     9     9    10   am
    10    10    11    2
    11    10    12    1
    12    12    13   ar
    13    13    14   ar
    14    14    15    1
    15    15    16    1
    16    15    17    1
    17    15    18    1
    18    14    19   ar
    19    19    20   ar
    20    20    21    1
    21    21    22   am
    22    22    23    2
    23    22    24   am
    24    24    25    1
    25    25    26   ar
    26    26    27   ar
    27    27    28   ar
    28    28    29   ar
    29    29    30    1
    30    29    31   ar
    31    31    32    1
    32     9    33    1
    33    33    34    1
    34    34    35    1
    35    35    36    2
    36    35     6   am
    37    20    12   ar
    38    31    25   ar
    39     1    37    1
    40     1    38    1
    41     1    39    1
    42     3    40    1
    43     3    41    1
    44     3    42    1
    45     4    43    1
    46     4    44    1
    47     5    45    1
    48     5    46    1
    49     7    47    1
    50     7    48    1
    51     8    49    1
    52     8    50    1
    53    13    51    1
    54    16    52    1
    55    16    53    1
    56    16    54    1
    57    17    55    1
    58    17    56    1
    59    17    57    1
    60    18    58    1
    61    18    59    1
    62    18    60    1
    63    21    61    1
    64    24    62    1
    65    26    63    1
    66    27    64    1
    67    28    65    1
    68    33    66    1
    69    33    67    1
    70    34    68    1
    71    34    69    1
