@<TRIPOS>MOLECULE
*****
 59 62 0 0 0
SMALL
GASTEIGER

@<TRIPOS>ATOM
      1 C          -0.5960    3.3131   -1.4280 C.3     1  UNL1       -0.0045
      2 C          -1.0211    1.9131   -1.2077 C.ar    1  UNL1        0.1301
      3 N          -0.1823    0.9211   -1.6119 N.ar    1  UNL1       -0.2174
      4 C          -0.5697   -0.3534   -1.4405 C.ar    1  UNL1        0.1296
      5 N           0.2630   -1.4075   -1.8697 N.pl3   1  UNL1       -0.2785
      6 C           1.4319   -1.7302   -1.0620 C.ar    1  UNL1        0.1641
      7 N           2.0261   -2.4809   -0.1874 N.ar    1  UNL1       -0.2322
      8 C           3.2470   -2.1690    0.1566 C.ar    1  UNL1        0.0491
      9 C           3.9467   -1.1165   -0.3274 C.ar    1  UNL1        0.0953
     10 S           2.7694   -0.4269   -1.4382 S.2     1  UNL1       -0.0475
     11 C           5.2470   -0.6137   -0.0469 C.2     1  UNL1        0.2565
     12 O           5.5195    0.4539   -0.6933 O.2     1  UNL1       -0.2692
     13 N           6.2360   -1.1090    0.8112 N.am    1  UNL1       -0.2796
     14 C           7.2736   -0.1153    0.6234 C.ar    1  UNL1        0.0551
     15 C           8.2184   -0.1044   -0.3675 C.ar    1  UNL1       -0.0278
     16 C           8.1936   -1.2151   -1.3508 C.3     1  UNL1       -0.0379
     17 C           9.1059    0.9501   -0.3490 C.ar    1  UNL1       -0.0570
     18 C           9.0177    1.9266    0.6277 C.ar    1  UNL1       -0.0600
     19 C           8.0455    1.9091    1.6401 C.ar    1  UNL1       -0.0416
     20 C           7.1451    0.8448    1.6299 C.ar    1  UNL1        0.0624
     21 CL          5.9534    0.8710    2.8982 Cl      1  UNL1       -0.0816
     22 C          -1.7832   -0.6521   -0.8675 C.ar    1  UNL1        0.0185
     23 C          -2.6444    0.3781   -0.4522 C.ar    1  UNL1        0.1266
     24 N          -2.2314    1.6659   -0.6377 N.ar    1  UNL1       -0.2175
     25 N          -3.9047   -0.0330    0.0897 N.pl3   1  UNL1       -0.3126
     26 C          -4.6586    0.6093    1.1655 C.3     1  UNL1        0.0263
     27 C          -5.9473   -0.1502    1.3607 C.3     1  UNL1        0.0148
     28 N          -6.6433   -0.3760    0.1786 N.3     1  UNL1       -0.2972
     29 C          -7.9912   -0.7905    0.2631 C.3     1  UNL1        0.0222
     30 C          -8.9170    0.3115    0.7477 C.3     1  UNL1        0.0569
     31 O          -8.7751    1.3461   -0.2033 O.3     1  UNL1       -0.3937
     32 C          -5.9469   -0.8976   -0.9211 C.3     1  UNL1        0.0148
     33 C          -4.4787   -1.2041   -0.5699 C.3     1  UNL1        0.0263
     34 H           0.2133    3.3510   -2.2085 H       1  UNL1        0.0308
     35 H          -1.4163    3.9729   -1.8048 H       1  UNL1        0.0308
     36 H          -0.1430    3.7550   -0.5188 H       1  UNL1        0.0308
     37 H          -0.0245   -1.9004   -2.7524 H       1  UNL1        0.1555
     38 H           3.6536   -2.8649    0.8952 H       1  UNL1        0.0843
     39 H           5.9539   -1.9790    1.3003 H       1  UNL1        0.1552
     40 H           7.3008   -1.1688   -2.0049 H       1  UNL1        0.0278
     41 H           9.0618   -1.0952   -2.0331 H       1  UNL1        0.0278
     42 H           8.1715   -2.1767   -0.8227 H       1  UNL1        0.0278
     43 H           9.8606    0.9667   -1.1363 H       1  UNL1        0.0621
     44 H           9.7468    2.7400    0.5970 H       1  UNL1        0.0618
     45 H           8.0286    2.6934    2.3792 H       1  UNL1        0.0633
     46 H          -2.0961   -1.6896   -0.7166 H       1  UNL1        0.0686
     47 H          -4.9251    1.6290    0.8790 H       1  UNL1        0.0477
     48 H          -4.0549    0.6371    2.1033 H       1  UNL1        0.0477
     49 H          -6.5602    0.4457    2.0900 H       1  UNL1        0.0442
     50 H          -5.6995   -1.1363    1.8524 H       1  UNL1        0.0442
     51 H          -8.3889   -1.1271   -0.7451 H       1  UNL1        0.0449
     52 H          -8.0951   -1.6960    0.9085 H       1  UNL1        0.0449
     53 H          -8.6599    0.6778    1.7435 H       1  UNL1        0.0570
     54 H          -9.9658   -0.0133    0.6534 H       1  UNL1        0.0570
     55 H          -8.6108    0.9924   -1.1186 H       1  UNL1        0.2095
     56 H          -6.3496   -1.8458   -1.3104 H       1  UNL1        0.0442
     57 H          -5.9708   -0.1778   -1.7982 H       1  UNL1        0.0442
     58 H          -4.4103   -2.1252    0.0149 H       1  UNL1        0.0477
     59 H          -3.9692   -1.3332   -1.5435 H       1  UNL1        0.0477
@<TRIPOS>BOND
     1     1     2    1
     2     2     3   ar
     3     3     4   ar
     4     4     5    1
     5     5     6    1
     6     6     7   ar
     7     7     8   ar
     8     8     9   ar
     9     9    10   ar
    10     9    11    1
    11    11    12    2
    12    11    13   am
    13    13    14    1
    14    14    15   ar
    15    15    16    1
    16    15    17   ar
    17    17    18   ar
    18    18    19   ar
    19    19    20   ar
    20    20    21    1
    21     4    22   ar
    22    22    23   ar
    23    23    24   ar
    24    23    25    1
    25    25    26    1
    26    26    27    1
    27    27    28    1
    28    28    29    1
    29    29    30    1
    30    30    31    1
    31    28    32    1
    32    32    33    1
    33    24     2   ar
    34    33    25    1
    35    10     6   ar
    36    20    14   ar
    37     1    34    1
    38     1    35    1
    39     1    36    1
    40     5    37    1
    41     8    38    1
    42    13    39    1
    43    16    40    1
    44    16    41    1
    45    16    42    1
    46    17    43    1
    47    18    44    1
    48    19    45    1
    49    22    46    1
    50    26    47    1
    51    26    48    1
    52    27    49    1
    53    27    50    1
    54    29    51    1
    55    29    52    1
    56    30    53    1
    57    30    54    1
    58    31    55    1
    59    32    56    1
    60    32    57    1
    61    33    58    1
    62    33    59    1
