@<TRIPOS>MOLECULE
*****
 41 43 0 0 0
SMALL
GASTEIGER

@<TRIPOS>ATOM
      1 C           8.0552    1.4449    1.1503 C.1     1  UNL1       -0.1140
      2 C           6.9973    1.2823    0.8042 C.1     1  UNL1       -0.0563
      3 C           5.5381    1.0717    0.3490 C.3     1  UNL1        0.0293
      4 N           5.3689   -0.1416   -0.3807 N.4     1  UNL1        0.2402
      5 C           4.3714   -0.1023   -1.3661 C.3     1  UNL1        0.0085
      6 C           2.9911   -0.3867   -0.9124 C.ar    1  UNL1        0.0623
      7 C           1.9451    0.4881   -0.7385 C.ar    1  UNL1       -0.0281
      8 C           0.8048   -0.3220   -0.4693 C.ar    1  UNL1        0.0036
      9 C          -0.4751   -0.0891   -0.3138 C.ar    1  UNL1       -0.0108
     10 C          -1.5308   -1.0653   -0.1478 C.ar    1  UNL1        0.1217
     11 O          -2.7596   -0.5913    0.0476 O.3     1  UNL1       -0.4874
     12 C          -3.1579    0.7765    0.1949 C.3     1  UNL1        0.1146
     13 C          -4.6280    0.7320    0.2278 C.ar    1  UNL1       -0.0104
     14 C          -5.4642    1.1792   -0.7141 C.ar    1  UNL1       -0.0554
     15 C          -6.8676    1.0580   -0.6375 C.ar    1  UNL1       -0.0614
     16 C          -7.4101    0.4702    0.4389 C.ar    1  UNL1       -0.0617
     17 C          -6.5524    0.0058    1.4291 C.ar    1  UNL1       -0.0614
     18 C          -5.2255    0.0877    1.4267 C.ar    1  UNL1       -0.0554
     19 C          -1.0742   -2.3640   -0.1881 C.ar    1  UNL1       -0.0180
     20 C           0.2327   -2.6325   -0.3366 C.ar    1  UNL1       -0.0343
     21 C           1.2362   -1.6764   -0.4802 C.ar    1  UNL1        0.0470
     22 N           2.4889   -1.6134   -0.7288 N.ar    1  UNL1       -0.3538
     23 H           9.1301    1.6002    1.5180 H       1  UNL1        0.1230
     24 H           5.4440    1.9357   -0.4210 H       1  UNL1        0.0959
     25 H           4.8642    1.3079    1.1108 H       1  UNL1        0.0959
     26 H           5.3371   -1.0435    0.1642 H       1  UNL1        0.2027
     27 H           6.3001   -0.2262   -0.9774 H       1  UNL1        0.2027
     28 H           4.6096   -0.8331   -2.2308 H       1  UNL1        0.0881
     29 H           4.3476    0.9395   -1.8333 H       1  UNL1        0.0881
     30 H           1.9153    1.5682   -0.8336 H       1  UNL1        0.0643
     31 H          -0.8980    0.9686   -0.3558 H       1  UNL1        0.0661
     32 H          -2.7197    1.1612    1.1294 H       1  UNL1        0.0748
     33 H          -2.7875    1.4416   -0.5920 H       1  UNL1        0.0748
     34 H          -5.0021    1.6853   -1.6048 H       1  UNL1        0.0621
     35 H          -7.3705    1.5072   -1.4891 H       1  UNL1        0.0618
     36 H          -8.4561    0.3774    0.6750 H       1  UNL1        0.0618
     37 H          -7.0514   -0.4671    2.3155 H       1  UNL1        0.0618
     38 H          -4.5498   -0.2599    2.1229 H       1  UNL1        0.0621
     39 H          -1.8351   -3.1596   -0.1100 H       1  UNL1        0.0655
     40 H           0.6631   -3.6687   -0.3592 H       1  UNL1        0.0639
     41 H           3.1749   -2.4466   -0.7063 H       1  UNL1        0.1658
@<TRIPOS>UNITY_ATOM_ATTR
4 1
charge 1
@<TRIPOS>BOND
     1     1     2    3
     2     2     3    1
     3     3     4    1
     4     4     5    1
     5     5     6    1
     6     6     7   ar
     7     7     8   ar
     8     8     9   ar
     9     9    10   ar
    10    10    11    1
    11    11    12    1
    12    12    13    1
    13    13    14   ar
    14    14    15   ar
    15    15    16   ar
    16    16    17   ar
    17    17    18   ar
    18    10    19   ar
    19    19    20   ar
    20    20    21   ar
    21    21    22   ar
    22    22     6   ar
    23    21     8   ar
    24    18    13   ar
    25     1    23    1
    26     3    24    1
    27     3    25    1
    28     4    26    1
    29     4    27    1
    30     5    28    1
    31     5    29    1
    32     7    30    1
    33     9    31    1
    34    12    32    1
    35    12    33    1
    36    14    34    1
    37    15    35    1
    38    16    36    1
    39    17    37    1
    40    18    38    1
    41    19    39    1
    42    20    40    1
    43    22    41    1
