
     RDKit          3D

 41 43  0  0  0  0  0  0  0  0999 V2000
    8.0552    1.4449    1.1503 C   0  0  0  0  0  0  0  0  0  0  0  0
    6.9973    1.2823    0.8042 C   0  0  0  0  0  0  0  0  0  0  0  0
    5.5381    1.0717    0.3490 C   0  0  0  0  0  0  0  0  0  0  0  0
    5.3689   -0.1416   -0.3807 N   0  0  0  0  0  4  0  0  0  0  0  0
    4.3714   -0.1023   -1.3661 C   0  0  0  0  0  0  0  0  0  0  0  0
    2.9911   -0.3867   -0.9124 C   0  0  0  0  0  0  0  0  0  0  0  0
    1.9451    0.4881   -0.7385 C   0  0  0  0  0  0  0  0  0  0  0  0
    0.8048   -0.3220   -0.4693 C   0  0  0  0  0  0  0  0  0  0  0  0
   -0.4751   -0.0891   -0.3138 C   0  0  0  0  0  0  0  0  0  0  0  0
   -1.5308   -1.0653   -0.1478 C   0  0  0  0  0  0  0  0  0  0  0  0
   -2.7596   -0.5913    0.0476 O   0  0  0  0  0  0  0  0  0  0  0  0
   -3.1579    0.7765    0.1949 C   0  0  0  0  0  0  0  0  0  0  0  0
   -4.6280    0.7320    0.2278 C   0  0  0  0  0  0  0  0  0  0  0  0
   -5.4642    1.1792   -0.7141 C   0  0  0  0  0  0  0  0  0  0  0  0
   -6.8676    1.0580   -0.6375 C   0  0  0  0  0  0  0  0  0  0  0  0
   -7.4101    0.4702    0.4389 C   0  0  0  0  0  0  0  0  0  0  0  0
   -6.5524    0.0058    1.4291 C   0  0  0  0  0  0  0  0  0  0  0  0
   -5.2255    0.0877    1.4267 C   0  0  0  0  0  0  0  0  0  0  0  0
   -1.0742   -2.3640   -0.1881 C   0  0  0  0  0  0  0  0  0  0  0  0
    0.2327   -2.6325   -0.3366 C   0  0  0  0  0  0  0  0  0  0  0  0
    1.2362   -1.6764   -0.4802 C   0  0  0  0  0  0  0  0  0  0  0  0
    2.4889   -1.6134   -0.7288 N   0  0  0  0  0  0  0  0  0  0  0  0
    9.1301    1.6002    1.5180 H   0  0  0  0  0  0  0  0  0  0  0  0
    5.4440    1.9357   -0.4210 H   0  0  0  0  0  0  0  0  0  0  0  0
    4.8642    1.3079    1.1108 H   0  0  0  0  0  0  0  0  0  0  0  0
    5.3371   -1.0435    0.1642 H   0  0  0  0  0  0  0  0  0  0  0  0
    6.3001   -0.2262   -0.9774 H   0  0  0  0  0  0  0  0  0  0  0  0
    4.6096   -0.8331   -2.2308 H   0  0  0  0  0  0  0  0  0  0  0  0
    4.3476    0.9395   -1.8333 H   0  0  0  0  0  0  0  0  0  0  0  0
    1.9153    1.5682   -0.8336 H   0  0  0  0  0  0  0  0  0  0  0  0
   -0.8980    0.9686   -0.3558 H   0  0  0  0  0  0  0  0  0  0  0  0
   -2.7197    1.1612    1.1294 H   0  0  0  0  0  0  0  0  0  0  0  0
   -2.7875    1.4416   -0.5920 H   0  0  0  0  0  0  0  0  0  0  0  0
   -5.0021    1.6853   -1.6048 H   0  0  0  0  0  0  0  0  0  0  0  0
   -7.3705    1.5072   -1.4891 H   0  0  0  0  0  0  0  0  0  0  0  0
   -8.4561    0.3774    0.6750 H   0  0  0  0  0  0  0  0  0  0  0  0
   -7.0514   -0.4671    2.3155 H   0  0  0  0  0  0  0  0  0  0  0  0
   -4.5498   -0.2599    2.1229 H   0  0  0  0  0  0  0  0  0  0  0  0
   -1.8351   -3.1596   -0.1100 H   0  0  0  0  0  0  0  0  0  0  0  0
    0.6631   -3.6687   -0.3592 H   0  0  0  0  0  0  0  0  0  0  0  0
    3.1749   -2.4466   -0.7063 H   0  0  0  0  0  0  0  0  0  0  0  0
  1  2  3  0
  2  3  1  0
  3  4  1  0
  4  5  1  0
  5  6  1  0
  6  7  2  0
  7  8  1  0
  8  9  2  0
  9 10  1  0
 10 11  1  0
 11 12  1  0
 12 13  1  0
 13 14  2  0
 14 15  1  0
 15 16  2  0
 16 17  1  0
 17 18  2  0
 10 19  2  0
 19 20  1  0
 20 21  2  0
 21 22  1  0
 22  6  1  0
 21  8  1  0
 18 13  1  0
  1 23  1  0
  3 24  1  0
  3 25  1  0
  4 26  1  0
  4 27  1  0
  5 28  1  0
  5 29  1  0
  7 30  1  0
  9 31  1  0
 12 32  1  0
 12 33  1  0
 14 34  1  0
 15 35  1  0
 16 36  1  0
 17 37  1  0
 18 38  1  0
 19 39  1  0
 20 40  1  0
 22 41  1  0
M  CHG  1   4   1
M  END
$$$$
