@<TRIPOS>MOLECULE
*****
 40 42 0 0 0
SMALL
GASTEIGER

@<TRIPOS>ATOM
      1 C          -2.2202   -2.1202    1.3434 C.3     1  UNL1       -0.0475
      2 C          -1.8716   -1.5274   -0.0107 C.3     1  UNL1        0.0334
      3 C          -3.0000   -0.7317   -0.5648 C.3     1  UNL1       -0.0103
      4 C          -3.0907    0.5937    0.0773 C.ar    1  UNL1       -0.0414
      5 C          -4.2785    1.2636    0.2083 C.ar    1  UNL1       -0.0582
      6 C          -4.3081    2.4973    0.8153 C.ar    1  UNL1       -0.0615
      7 C          -3.1584    3.0789    1.2986 C.ar    1  UNL1       -0.0614
      8 C          -1.9650    2.4123    1.1701 C.ar    1  UNL1       -0.0570
      9 C          -1.9294    1.1573    0.5536 C.ar    1  UNL1       -0.0284
     10 C          -0.6193    0.4926    0.4458 C.3     1  UNL1        0.0461
     11 N          -0.6302   -0.8572    0.0964 N.3     1  UNL1       -0.1692
     12 S           0.5806   -1.3957   -0.9653 S.O2    1  UNL1        0.0614
     13 O           0.3812   -2.8662   -1.2083 O.2     1  UNL1       -0.1528
     14 O           0.4753   -0.7163   -2.3100 O.2     1  UNL1       -0.1528
     15 C           2.1914   -1.1915   -0.3142 C.ar    1  UNL1        0.1063
     16 C           2.8235   -2.1661    0.4381 C.ar    1  UNL1       -0.0353
     17 C           4.1103   -1.9395    0.9284 C.ar    1  UNL1       -0.0591
     18 C           4.7931   -0.7681    0.6936 C.ar    1  UNL1       -0.0477
     19 C           4.1692    0.2042   -0.0538 C.ar    1  UNL1        0.0607
     20 C           4.8704    1.4397   -0.3102 C.2     1  UNL1        0.3369
     21 O           6.0139    1.6178    0.1368 O.2     1  UNL1       -0.2451
     22 O           4.2766    2.4326   -1.0535 O.3     1  UNL1       -0.4771
     23 C           2.8906   -0.0278   -0.5378 C.ar    1  UNL1       -0.0214
     24 H          -1.3632   -2.7967    1.6220 H       1  UNL1        0.0245
     25 H          -2.1943   -1.2916    2.0730 H       1  UNL1        0.0245
     26 H          -3.1672   -2.6639    1.3353 H       1  UNL1        0.0245
     27 H          -1.7298   -2.4162   -0.6944 H       1  UNL1        0.0480
     28 H          -3.9553   -1.2743   -0.3013 H       1  UNL1        0.0329
     29 H          -2.9776   -0.6498   -1.6699 H       1  UNL1        0.0329
     30 H          -5.1828    0.8257   -0.1620 H       1  UNL1        0.0620
     31 H          -5.2335    3.0489    0.9321 H       1  UNL1        0.0618
     32 H          -3.1575    4.0466    1.7787 H       1  UNL1        0.0618
     33 H          -1.0506    2.8676    1.5509 H       1  UNL1        0.0621
     34 H          -0.0038    1.1228   -0.2595 H       1  UNL1        0.0493
     35 H          -0.1238    0.6092    1.4543 H       1  UNL1        0.0493
     36 H           2.3137   -3.0917    0.6374 H       1  UNL1        0.0637
     37 H           4.6045   -2.7133    1.5220 H       1  UNL1        0.0618
     38 H           5.7936   -0.6473    1.1009 H       1  UNL1        0.0626
     39 H           4.5161    3.4052   -0.9198 H       1  UNL1        0.2954
     40 H           2.4068    0.7364   -1.1221 H       1  UNL1        0.0645
@<TRIPOS>BOND
     1     1     2    1
     2     2     3    1
     3     3     4    1
     4     4     5   ar
     5     5     6   ar
     6     6     7   ar
     7     7     8   ar
     8     8     9   ar
     9     9    10    1
    10    10    11    1
    11    11    12    1
    12    12    13    2
    13    12    14    2
    14    12    15    1
    15    15    16   ar
    16    16    17   ar
    17    17    18   ar
    18    18    19   ar
    19    19    20    1
    20    20    21    2
    21    20    22    1
    22    19    23   ar
    23    11     2    1
    24    23    15   ar
    25     9     4   ar
    26     1    24    1
    27     1    25    1
    28     1    26    1
    29     2    27    1
    30     3    28    1
    31     3    29    1
    32     5    30    1
    33     6    31    1
    34     7    32    1
    35     8    33    1
    36    10    34    1
    37    10    35    1
    38    16    36    1
    39    17    37    1
    40    18    38    1
    41    22    39    1
    42    23    40    1
