
     RDKit          3D

 66 70  0  0  0  0  0  0  0  0999 V2000
   -5.6850    1.5791    3.0540 C   0  0  0  0  0  0  0  0  0  0  0  0
   -4.5226    1.5975    2.1371 C   0  0  0  0  0  0  0  0  0  0  0  0
   -3.2293    1.8072    2.5955 C   0  0  0  0  0  0  0  0  0  0  0  0
   -2.1989    1.7753    1.7083 C   0  0  0  0  0  0  0  0  0  0  0  0
   -2.3673    1.5374    0.3247 C   0  0  0  0  0  0  0  0  0  0  0  0
   -1.1644    1.3932   -0.4965 C   0  0  0  0  0  0  0  0  0  0  0  0
   -1.0305    1.8352   -1.6401 O   0  0  0  0  0  0  0  0  0  0  0  0
   -0.1249    0.6914    0.1204 N   0  0  0  0  0  0  0  0  0  0  0  0
    1.1708    0.3282   -0.2343 C   0  0  0  0  0  0  0  0  0  0  0  0
    1.5083   -0.6924   -1.0721 C   0  0  0  0  0  0  0  0  0  0  0  0
    2.7939   -1.1378   -1.2216 C   0  0  0  0  0  0  0  0  0  0  0  0
    3.8743   -0.5606   -0.5083 C   0  0  0  0  0  0  0  0  0  0  0  0
    5.1911   -1.1585   -0.7048 C   0  0  0  0  0  0  0  0  0  0  0  0
    6.0399   -0.7788   -1.7173 N   0  0  0  0  0  0  0  0  0  0  0  0
    6.6651    0.4507   -1.8879 C   0  0  0  0  0  0  0  0  0  0  0  0
    7.9404    0.6004   -1.0555 C   0  0  0  0  0  0  0  0  0  0  0  0
    8.0187   -0.3508    0.0173 N   0  0  0  0  0  0  0  0  0  0  0  0
    9.3616   -0.2177    0.6072 C   0  0  0  0  0  0  0  0  0  0  0  0
    7.9084   -1.7080   -0.4558 C   0  0  0  0  0  0  0  0  0  0  0  0
    7.1314   -1.8120   -1.7514 C   0  0  0  0  0  0  0  0  0  0  0  0
    3.5548    0.4727    0.3348 C   0  0  0  0  0  0  0  0  0  0  0  0
    4.5680    1.0778    1.2264 C   0  0  0  0  0  0  0  0  0  0  0  0
    3.9076    2.0631    2.0131 F   0  0  0  0  0  0  0  0  0  0  0  0
    4.9424    0.0480    2.1036 F   0  0  0  0  0  0  0  0  0  0  0  0
    5.6067    1.7236    0.6720 F   0  0  0  0  0  0  0  0  0  0  0  0
    2.2395    0.9088    0.4673 C   0  0  0  0  0  0  0  0  0  0  0  0
   -3.6483    1.3376   -0.1019 C   0  0  0  0  0  0  0  0  0  0  0  0
   -4.7106    1.3588    0.7630 C   0  0  0  0  0  0  0  0  0  0  0  0
   -6.0869    1.0344    0.4267 C   0  0  0  0  0  0  0  0  0  0  0  0
   -7.2332    0.7484    0.1504 C   0  0  0  0  0  0  0  0  0  0  0  0
   -8.5937    0.4345   -0.1768 C   0  0  0  0  0  0  0  0  0  0  0  0
   -9.6566    1.3005   -0.1495 C   0  0  0  0  0  0  0  0  0  0  0  0
  -10.7870    0.6778   -0.4912 N   0  0  0  0  0  0  0  0  0  0  0  0
  -10.4534   -0.6008   -0.7414 C   0  0  0  0  0  0  0  0  0  0  0  0
  -11.2220   -1.6758   -1.1184 C   0  0  0  0  0  0  0  0  0  0  0  0
  -10.5596   -2.8992   -1.2848 C   0  0  0  0  0  0  0  0  0  0  0  0
   -9.2060   -3.0232   -1.0836 C   0  0  0  0  0  0  0  0  0  0  0  0
   -8.5321   -1.9024   -0.7146 N   0  0  0  0  0  0  0  0  0  0  0  0
   -9.1327   -0.7556   -0.5537 N   0  0  0  0  0  0  0  0  0  0  0  0
   -5.8190    0.5245    3.4662 H   0  0  0  0  0  0  0  0  0  0  0  0
   -6.6128    1.7668    2.4748 H   0  0  0  0  0  0  0  0  0  0  0  0
   -5.6305    2.3042    3.8652 H   0  0  0  0  0  0  0  0  0  0  0  0
   -3.1187    1.9945    3.6574 H   0  0  0  0  0  0  0  0  0  0  0  0
   -1.1898    1.9250    2.0221 H   0  0  0  0  0  0  0  0  0  0  0  0
   -0.3581    0.3194    1.1449 H   0  0  0  0  0  0  0  0  0  0  0  0
    0.6776   -1.1488   -1.6308 H   0  0  0  0  0  0  0  0  0  0  0  0
    3.0555   -1.9404   -1.8831 H   0  0  0  0  0  0  0  0  0  0  0  0
    5.0302   -2.3008   -0.8146 H   0  0  0  0  0  0  0  0  0  0  0  0
    5.7016   -1.1442    0.3284 H   0  0  0  0  0  0  0  0  0  0  0  0
    7.0381    0.4685   -2.9810 H   0  0  0  0  0  0  0  0  0  0  0  0
    5.9952    1.3033   -1.8381 H   0  0  0  0  0  0  0  0  0  0  0  0
    7.9675    1.6136   -0.6063 H   0  0  0  0  0  0  0  0  0  0  0  0
    8.8192    0.4206   -1.7057 H   0  0  0  0  0  0  0  0  0  0  0  0
    9.3451   -0.6733    1.6420 H   0  0  0  0  0  0  0  0  0  0  0  0
   10.0604   -0.8027   -0.0265 H   0  0  0  0  0  0  0  0  0  0  0  0
    9.6634    0.8317    0.6951 H   0  0  0  0  0  0  0  0  0  0  0  0
    8.9012   -2.1692   -0.6214 H   0  0  0  0  0  0  0  0  0  0  0  0
    7.4206   -2.3518    0.3296 H   0  0  0  0  0  0  0  0  0  0  0  0
    6.6706   -2.7955   -1.8175 H   0  0  0  0  0  0  0  0  0  0  0  0
    7.7315   -1.5945   -2.6362 H   0  0  0  0  0  0  0  0  0  0  0  0
    2.0133    1.7188    1.1342 H   0  0  0  0  0  0  0  0  0  0  0  0
   -3.8696    1.1521   -1.1552 H   0  0  0  0  0  0  0  0  0  0  0  0
   -9.6499    2.3586    0.1147 H   0  0  0  0  0  0  0  0  0  0  0  0
  -12.2680   -1.6139   -1.2808 H   0  0  0  0  0  0  0  0  0  0  0  0
  -11.1694   -3.7282   -1.5657 H   0  0  0  0  0  0  0  0  0  0  0  0
   -8.6826   -3.9462   -1.1988 H   0  0  0  0  0  0  0  0  0  0  0  0
  1  2  1  0
  2  3  2  0
  3  4  1  0
  4  5  2  0
  5  6  1  0
  6  7  2  0
  6  8  1  0
  8  9  1  0
  9 10  2  0
 10 11  1  0
 11 12  2  0
 12 13  1  0
 13 14  1  0
 14 15  1  0
 15 16  1  0
 16 17  1  0
 17 18  1  0
 17 19  1  0
 19 20  1  0
 12 21  1  0
 21 22  1  0
 22 23  1  0
 22 24  1  0
 22 25  1  0
 21 26  2  0
  5 27  1  0
 27 28  2  0
 28 29  1  0
 29 30  3  0
 30 31  1  0
 31 32  2  0
 32 33  1  0
 33 34  2  0
 34 35  1  0
 35 36  2  0
 36 37  1  0
 37 38  2  0
 38 39  1  0
 28  2  1  0
 39 31  1  0
 26  9  1  0
 39 34  1  0
 20 14  1  0
  1 40  1  0
  1 41  1  0
  1 42  1  0
  3 43  1  0
  4 44  1  0
  8 45  1  0
 10 46  1  0
 11 47  1  0
 13 48  1  0
 13 49  1  0
 15 50  1  0
 15 51  1  0
 16 52  1  0
 16 53  1  0
 18 54  1  0
 18 55  1  0
 18 56  1  0
 19 57  1  0
 19 58  1  0
 20 59  1  0
 20 60  1  0
 26 61  1  0
 27 62  1  0
 32 63  1  0
 35 64  1  0
 36 65  1  0
 37 66  1  0
M  END
$$$$
