@<TRIPOS>MOLECULE
*****
 66 70 0 0 0
SMALL
GASTEIGER

@<TRIPOS>ATOM
      1 C          -5.6850    1.5791    3.0540 C.3     1  UNL1       -0.0386
      2 C          -4.5226    1.5975    2.1371 C.ar    1  UNL1       -0.0350
      3 C          -3.2293    1.8072    2.5955 C.ar    1  UNL1       -0.0570
      4 C          -2.1989    1.7753    1.7083 C.ar    1  UNL1       -0.0493
      5 C          -2.3673    1.5374    0.3247 C.ar    1  UNL1        0.0382
      6 C          -1.1644    1.3932   -0.4965 C.2     1  UNL1        0.2483
      7 O          -1.0305    1.8352   -1.6401 O.2     1  UNL1       -0.2699
      8 N          -0.1249    0.6914    0.1204 N.am    1  UNL1       -0.2815
      9 C           1.1708    0.3282   -0.2343 C.ar    1  UNL1        0.0342
     10 C           1.5083   -0.6924   -1.0721 C.ar    1  UNL1       -0.0401
     11 C           2.7939   -1.1378   -1.2216 C.ar    1  UNL1       -0.0551
     12 C           3.8743   -0.5606   -0.5083 C.ar    1  UNL1       -0.0216
     13 C           5.1911   -1.1585   -0.7048 C.3     1  UNL1        0.0247
     14 N           6.0399   -0.7788   -1.7173 N.3     1  UNL1       -0.2957
     15 C           6.6651    0.4507   -1.8879 C.3     1  UNL1        0.0120
     16 C           7.9404    0.6004   -1.0555 C.3     1  UNL1        0.0114
     17 N           8.0187   -0.3508    0.0173 N.3     1  UNL1       -0.3029
     18 C           9.3616   -0.2177    0.6072 C.3     1  UNL1       -0.0127
     19 C           7.9084   -1.7080   -0.4558 C.3     1  UNL1        0.0114
     20 C           7.1314   -1.8120   -1.7514 C.3     1  UNL1        0.0120
     21 C           3.5548    0.4727    0.3348 C.ar    1  UNL1        0.0609
     22 C           4.5680    1.0778    1.2264 C.3     1  UNL1        0.4178
     23 F           3.9076    2.0631    2.0131 F       1  UNL1       -0.1659
     24 F           4.9424    0.0480    2.1036 F       1  UNL1       -0.1659
     25 F           5.6067    1.7236    0.6720 F       1  UNL1       -0.1659
     26 C           2.2395    0.9088    0.4673 C.ar    1  UNL1       -0.0285
     27 C          -3.6483    1.3376   -0.1019 C.ar    1  UNL1       -0.0339
     28 C          -4.7106    1.3588    0.7630 C.ar    1  UNL1        0.0289
     29 C          -6.0869    1.0344    0.4267 C.1     1  UNL1       -0.0592
     30 C          -7.2332    0.7484    0.1504 C.1     1  UNL1       -0.0395
     31 C          -8.5937    0.4345   -0.1768 C.ar    1  UNL1        0.1356
     32 C          -9.6566    1.3005   -0.1495 C.ar    1  UNL1        0.0639
     33 N         -10.7870    0.6778   -0.4912 N.ar    1  UNL1       -0.2334
     34 C         -10.4534   -0.6008   -0.7414 C.ar    1  UNL1        0.1554
     35 C         -11.2220   -1.6758   -1.1184 C.ar    1  UNL1       -0.0159
     36 C         -10.5596   -2.8992   -1.2848 C.ar    1  UNL1       -0.0384
     37 C          -9.2060   -3.0232   -1.0836 C.ar    1  UNL1        0.0485
     38 N          -8.5321   -1.9024   -0.7146 N.ar    1  UNL1       -0.1723
     39 N          -9.1327   -0.7556   -0.5537 N.ar    1  UNL1       -0.2049
     40 H          -5.8190    0.5245    3.4662 H       1  UNL1        0.0278
     41 H          -6.6128    1.7668    2.4748 H       1  UNL1        0.0278
     42 H          -5.6305    2.3042    3.8652 H       1  UNL1        0.0278
     43 H          -3.1187    1.9945    3.6574 H       1  UNL1        0.0621
     44 H          -1.1898    1.9250    2.0221 H       1  UNL1        0.0625
     45 H          -0.3581    0.3194    1.1449 H       1  UNL1        0.1551
     46 H           0.6776   -1.1488   -1.6308 H       1  UNL1        0.0636
     47 H           3.0555   -1.9404   -1.8831 H       1  UNL1        0.0621
     48 H           5.0302   -2.3008   -0.8146 H       1  UNL1        0.0476
     49 H           5.7016   -1.1442    0.3284 H       1  UNL1        0.0476
     50 H           7.0381    0.4685   -2.9810 H       1  UNL1        0.0439
     51 H           5.9952    1.3033   -1.8381 H       1  UNL1        0.0439
     52 H           7.9675    1.6136   -0.6063 H       1  UNL1        0.0439
     53 H           8.8192    0.4206   -1.7057 H       1  UNL1        0.0439
     54 H           9.3451   -0.6733    1.6420 H       1  UNL1        0.0391
     55 H          10.0604   -0.8027   -0.0265 H       1  UNL1        0.0391
     56 H           9.6634    0.8317    0.6951 H       1  UNL1        0.0391
     57 H           8.9012   -2.1692   -0.6214 H       1  UNL1        0.0439
     58 H           7.4206   -2.3518    0.3296 H       1  UNL1        0.0439
     59 H           6.6706   -2.7955   -1.8175 H       1  UNL1        0.0439
     60 H           7.7315   -1.5945   -2.6362 H       1  UNL1        0.0439
     61 H           2.0133    1.7188    1.1342 H       1  UNL1        0.0642
     62 H          -3.8696    1.1521   -1.1552 H       1  UNL1        0.0637
     63 H          -9.6499    2.3586    0.1147 H       1  UNL1        0.0859
     64 H         -12.2680   -1.6139   -1.2808 H       1  UNL1        0.0655
     65 H         -11.1694   -3.7282   -1.5657 H       1  UNL1        0.0634
     66 H          -8.6826   -3.9462   -1.1988 H       1  UNL1        0.0847
@<TRIPOS>BOND
     1     1     2    1
     2     2     3   ar
     3     3     4   ar
     4     4     5   ar
     5     5     6    1
     6     6     7    2
     7     6     8   am
     8     8     9    1
     9     9    10   ar
    10    10    11   ar
    11    11    12   ar
    12    12    13    1
    13    13    14    1
    14    14    15    1
    15    15    16    1
    16    16    17    1
    17    17    18    1
    18    17    19    1
    19    19    20    1
    20    12    21   ar
    21    21    22    1
    22    22    23    1
    23    22    24    1
    24    22    25    1
    25    21    26   ar
    26     5    27   ar
    27    27    28   ar
    28    28    29    1
    29    29    30    3
    30    30    31    1
    31    31    32   ar
    32    32    33   ar
    33    33    34   ar
    34    34    35   ar
    35    35    36   ar
    36    36    37   ar
    37    37    38   ar
    38    38    39   ar
    39    28     2   ar
    40    39    31   ar
    41    26     9   ar
    42    39    34   ar
    43    20    14    1
    44     1    40    1
    45     1    41    1
    46     1    42    1
    47     3    43    1
    48     4    44    1
    49     8    45    1
    50    10    46    1
    51    11    47    1
    52    13    48    1
    53    13    49    1
    54    15    50    1
    55    15    51    1
    56    16    52    1
    57    16    53    1
    58    18    54    1
    59    18    55    1
    60    18    56    1
    61    19    57    1
    62    19    58    1
    63    20    59    1
    64    20    60    1
    65    26    61    1
    66    27    62    1
    67    32    63    1
    68    35    64    1
    69    36    65    1
    70    37    66    1
