
     RDKit          3D

 57 61  0  0  0  0  0  0  0  0999 V2000
    5.7052   -1.8915    1.0956 C   0  0  0  0  0  0  0  0  0  0  0  0
    4.3871   -1.5643    0.5299 C   0  0  0  0  0  0  0  0  0  0  0  0
    3.5697   -2.5826    0.0585 C   0  0  0  0  0  0  0  0  0  0  0  0
    2.3320   -2.3079   -0.4759 C   0  0  0  0  0  0  0  0  0  0  0  0
    1.8786   -1.0061   -0.5528 C   0  0  0  0  0  0  0  0  0  0  0  0
    0.5446   -0.7307   -1.1305 C   0  0  0  0  0  0  0  0  0  0  0  0
   -0.5173   -0.7500   -0.0762 C   0  0  2  0  0  0  0  0  0  0  0  0
   -0.5714   -2.1033    0.5996 C   0  0  0  0  0  0  0  0  0  0  0  0
   -0.9679   -3.1183   -0.2487 O   0  0  0  0  0  0  0  0  0  0  0  0
   -2.0390   -2.8108   -1.0500 C   0  0  0  0  0  0  0  0  0  0  0  0
   -2.7729   -1.5805   -0.6270 C   0  0  0  0  0  0  0  0  0  0  0  0
   -1.8332   -0.4769   -0.5955 N   0  0  0  0  0  0  0  0  0  0  0  0
   -2.2234    0.8117   -1.0649 C   0  0  0  0  0  0  0  0  0  0  0  0
   -1.4440    1.7962   -1.0568 O   0  0  0  0  0  0  0  0  0  0  0  0
   -3.5762    0.9983   -1.5742 C   0  0  0  0  0  0  0  0  0  0  0  0
   -3.8697    0.8064   -2.9095 C   0  0  0  0  0  0  0  0  0  0  0  0
   -5.1487    0.9817   -3.3969 C   0  0  0  0  0  0  0  0  0  0  0  0
   -6.1898    1.3569   -2.5689 C   0  0  0  0  0  0  0  0  0  0  0  0
   -5.9035    1.5504   -1.2332 C   0  0  0  0  0  0  0  0  0  0  0  0
   -4.6258    1.3750   -0.7476 C   0  0  0  0  0  0  0  0  0  0  0  0
   -4.3352    1.5760    0.6315 N   0  0  0  0  0  0  0  0  0  0  0  0
   -3.2898    1.1269    1.3064 N   0  0  0  0  0  0  0  0  0  0  0  0
   -3.3743    1.5312    2.5979 C   0  0  0  0  0  0  0  0  0  0  0  0
   -4.5476    2.2668    2.6874 C   0  0  0  0  0  0  0  0  0  0  0  0
   -5.1024    2.2665    1.4569 N   0  0  0  0  0  0  0  0  0  0  0  0
    2.7057   -0.0071   -0.0789 C   0  0  0  0  0  0  0  0  0  0  0  0
    3.9652   -0.2633    0.4672 C   0  0  0  0  0  0  0  0  0  0  0  0
    4.8016    0.8275    0.9543 C   0  0  0  0  0  0  0  0  0  0  0  0
    4.3514    2.1044    0.8763 N   0  0  0  0  0  0  0  0  0  0  0  0
    5.0524    3.1613    1.2986 C   0  0  0  0  0  0  0  0  0  0  0  0
    6.3040    2.9771    1.8479 C   0  0  0  0  0  0  0  0  0  0  0  0
    6.7601    1.6756    1.9261 C   0  0  0  0  0  0  0  0  0  0  0  0
    6.0070    0.6418    1.4825 N   0  0  0  0  0  0  0  0  0  0  0  0
    5.8205   -1.6183    2.1611 H   0  0  0  0  0  0  0  0  0  0  0  0
    6.5349   -1.4505    0.5079 H   0  0  0  0  0  0  0  0  0  0  0  0
    5.8458   -3.0123    1.0582 H   0  0  0  0  0  0  0  0  0  0  0  0
    3.8902   -3.6266    0.1007 H   0  0  0  0  0  0  0  0  0  0  0  0
    1.7164   -3.1209   -0.8358 H   0  0  0  0  0  0  0  0  0  0  0  0
    0.3223   -1.4329   -1.9566 H   0  0  0  0  0  0  0  0  0  0  0  0
    0.5768    0.3166   -1.5479 H   0  0  0  0  0  0  0  0  0  0  0  0
   -0.2304   -0.0203    0.7127 H   0  0  0  0  0  0  0  0  0  0  0  0
   -1.3039   -2.0603    1.4536 H   0  0  0  0  0  0  0  0  0  0  0  0
    0.3980   -2.3767    1.0468 H   0  0  0  0  0  0  0  0  0  0  0  0
   -1.7376   -2.6930   -2.1274 H   0  0  0  0  0  0  0  0  0  0  0  0
   -2.7794   -3.6569   -1.0555 H   0  0  0  0  0  0  0  0  0  0  0  0
   -3.5677   -1.3894   -1.3952 H   0  0  0  0  0  0  0  0  0  0  0  0
   -3.2626   -1.7366    0.3626 H   0  0  0  0  0  0  0  0  0  0  0  0
   -3.0401    0.5087   -3.5627 H   0  0  0  0  0  0  0  0  0  0  0  0
   -5.3659    0.8280   -4.4464 H   0  0  0  0  0  0  0  0  0  0  0  0
   -7.1945    1.4957   -2.9462 H   0  0  0  0  0  0  0  0  0  0  0  0
   -6.7082    1.8453   -0.5673 H   0  0  0  0  0  0  0  0  0  0  0  0
   -2.6831    1.3339    3.4084 H   0  0  0  0  0  0  0  0  0  0  0  0
   -4.9572    2.7503    3.5480 H   0  0  0  0  0  0  0  0  0  0  0  0
    2.3885    1.0196   -0.1213 H   0  0  0  0  0  0  0  0  0  0  0  0
    4.6461    4.1748    1.2145 H   0  0  0  0  0  0  0  0  0  0  0  0
    6.9194    3.7785    2.2061 H   0  0  0  0  0  0  0  0  0  0  0  0
    7.7388    1.5049    2.3530 H   0  0  0  0  0  0  0  0  0  0  0  0
  1  2  1  0
  2  3  2  0
  3  4  1  0
  4  5  2  0
  5  6  1  0
  6  7  1  0
  7  8  1  0
  8  9  1  0
  9 10  1  0
 10 11  1  0
 11 12  1  0
 12 13  1  0
 13 14  2  0
 13 15  1  0
 15 16  2  0
 16 17  1  0
 17 18  2  0
 18 19  1  0
 19 20  2  0
 20 21  1  0
 21 22  1  0
 22 23  2  0
 23 24  1  0
 24 25  2  0
  5 26  1  0
 26 27  2  0
 27 28  1  0
 28 29  2  0
 29 30  1  0
 30 31  2  0
 31 32  1  0
 32 33  2  0
 27  2  1  0
 33 28  1  0
 12  7  1  0
 20 15  1  0
 25 21  1  0
  1 34  1  0
  1 35  1  0
  1 36  1  0
  3 37  1  0
  4 38  1  0
  6 39  1  0
  6 40  1  0
  7 41  1  1
  8 42  1  0
  8 43  1  0
 10 44  1  0
 10 45  1  0
 11 46  1  0
 11 47  1  0
 16 48  1  0
 17 49  1  0
 18 50  1  0
 19 51  1  0
 23 52  1  0
 24 53  1  0
 26 54  1  0
 30 55  1  0
 31 56  1  0
 32 57  1  0
M  END
$$$$
