@<TRIPOS>MOLECULE
*****
 57 61 0 0 0
SMALL
GASTEIGER

@<TRIPOS>ATOM
      1 C           5.7052   -1.8915    1.0956 C.3     1  UNL1       -0.0390
      2 C           4.3871   -1.5643    0.5299 C.ar    1  UNL1       -0.0397
      3 C           3.5697   -2.5826    0.0585 C.ar    1  UNL1       -0.0579
      4 C           2.3320   -2.3079   -0.4759 C.ar    1  UNL1       -0.0582
      5 C           1.8786   -1.0061   -0.5528 C.ar    1  UNL1       -0.0448
      6 C           0.5446   -0.7307   -1.1305 C.3     1  UNL1       -0.0068
      7 C          -0.5173   -0.7500   -0.0762 C.3     1  UNL1        0.0537
      8 C          -0.5714   -2.1033    0.5996 C.3     1  UNL1        0.0666
      9 O          -0.9679   -3.1183   -0.2487 O.3     1  UNL1       -0.3764
     10 C          -2.0390   -2.8108   -1.0500 C.3     1  UNL1        0.0635
     11 C          -2.7729   -1.5805   -0.6270 C.3     1  UNL1        0.0388
     12 N          -1.8332   -0.4769   -0.5955 N.am    1  UNL1       -0.2897
     13 C          -2.2234    0.8117   -1.0649 C.2     1  UNL1        0.2491
     14 O          -1.4440    1.7962   -1.0568 O.2     1  UNL1       -0.2699
     15 C          -3.5762    0.9983   -1.5742 C.ar    1  UNL1        0.0640
     16 C          -3.8697    0.8064   -2.9095 C.ar    1  UNL1       -0.0475
     17 C          -5.1487    0.9817   -3.3969 C.ar    1  UNL1       -0.0609
     18 C          -6.1898    1.3569   -2.5689 C.ar    1  UNL1       -0.0597
     19 C          -5.9035    1.5504   -1.2332 C.ar    1  UNL1       -0.0338
     20 C          -4.6258    1.3750   -0.7476 C.ar    1  UNL1        0.0982
     21 N          -4.3352    1.5760    0.6315 N.ar    1  UNL1       -0.1496
     22 N          -3.2898    1.1269    1.3064 N.ar    1  UNL1       -0.1556
     23 C          -3.3743    1.5312    2.5979 C.ar    1  UNL1        0.0697
     24 C          -4.5476    2.2668    2.6874 C.ar    1  UNL1        0.0697
     25 N          -5.1024    2.2665    1.4569 N.ar    1  UNL1       -0.1556
     26 C           2.7057   -0.0071   -0.0789 C.ar    1  UNL1       -0.0476
     27 C           3.9652   -0.2633    0.4672 C.ar    1  UNL1        0.0223
     28 C           4.8016    0.8275    0.9543 C.ar    1  UNL1        0.1599
     29 N           4.3514    2.1044    0.8763 N.ar    1  UNL1       -0.2356
     30 C           5.0524    3.1613    1.2986 C.ar    1  UNL1        0.0314
     31 C           6.3040    2.9771    1.8479 C.ar    1  UNL1       -0.0254
     32 C           6.7601    1.6756    1.9261 C.ar    1  UNL1        0.0314
     33 N           6.0070    0.6418    1.4825 N.ar    1  UNL1       -0.2356
     34 H           5.8205   -1.6183    2.1611 H       1  UNL1        0.0278
     35 H           6.5349   -1.4505    0.5079 H       1  UNL1        0.0278
     36 H           5.8458   -3.0123    1.0582 H       1  UNL1        0.0278
     37 H           3.8902   -3.6266    0.1007 H       1  UNL1        0.0620
     38 H           1.7164   -3.1209   -0.8358 H       1  UNL1        0.0620
     39 H           0.3223   -1.4329   -1.9566 H       1  UNL1        0.0332
     40 H           0.5768    0.3166   -1.5479 H       1  UNL1        0.0332
     41 H          -0.2304   -0.0203    0.7127 H       1  UNL1        0.0526
     42 H          -1.3039   -2.0603    1.4536 H       1  UNL1        0.0578
     43 H           0.3980   -2.3767    1.0468 H       1  UNL1        0.0578
     44 H          -1.7376   -2.6930   -2.1274 H       1  UNL1        0.0575
     45 H          -2.7794   -3.6569   -1.0555 H       1  UNL1        0.0575
     46 H          -3.5677   -1.3894   -1.3952 H       1  UNL1        0.0487
     47 H          -3.2626   -1.7366    0.3626 H       1  UNL1        0.0487
     48 H          -3.0401    0.5087   -3.5627 H       1  UNL1        0.0626
     49 H          -5.3659    0.8280   -4.4464 H       1  UNL1        0.0618
     50 H          -7.1945    1.4957   -2.9462 H       1  UNL1        0.0618
     51 H          -6.7082    1.8453   -0.5673 H       1  UNL1        0.0639
     52 H          -2.6831    1.3339    3.4084 H       1  UNL1        0.0864
     53 H          -4.9572    2.7503    3.5480 H       1  UNL1        0.0864
     54 H           2.3885    1.0196   -0.1213 H       1  UNL1        0.0627
     55 H           4.6461    4.1748    1.2145 H       1  UNL1        0.0831
     56 H           6.9194    3.7785    2.2061 H       1  UNL1        0.0648
     57 H           7.7388    1.5049    2.3530 H       1  UNL1        0.0831
@<TRIPOS>BOND
     1     1     2    1
     2     2     3   ar
     3     3     4   ar
     4     4     5   ar
     5     5     6    1
     6     6     7    1
     7     7     8    1
     8     8     9    1
     9     9    10    1
    10    10    11    1
    11    11    12    1
    12    12    13   am
    13    13    14    2
    14    13    15    1
    15    15    16   ar
    16    16    17   ar
    17    17    18   ar
    18    18    19   ar
    19    19    20   ar
    20    20    21    1
    21    21    22   ar
    22    22    23   ar
    23    23    24   ar
    24    24    25   ar
    25     5    26   ar
    26    26    27   ar
    27    27    28    1
    28    28    29   ar
    29    29    30   ar
    30    30    31   ar
    31    31    32   ar
    32    32    33   ar
    33    27     2   ar
    34    33    28   ar
    35    12     7    1
    36    20    15   ar
    37    25    21   ar
    38     1    34    1
    39     1    35    1
    40     1    36    1
    41     3    37    1
    42     4    38    1
    43     6    39    1
    44     6    40    1
    45     7    41    1
    46     8    42    1
    47     8    43    1
    48    10    44    1
    49    10    45    1
    50    11    46    1
    51    11    47    1
    52    16    48    1
    53    17    49    1
    54    18    50    1
    55    19    51    1
    56    23    52    1
    57    24    53    1
    58    26    54    1
    59    30    55    1
    60    31    56    1
    61    32    57    1
