@<TRIPOS>MOLECULE
*****
 56 60 0 0 0
SMALL
GASTEIGER

@<TRIPOS>ATOM
      1 C          -0.9092    1.6830    1.7559 C.3     1  UNL1       -0.0351
      2 C          -0.3031    0.7874    0.6711 C.3     1  UNL1        0.0935
      3 C           0.7692   -0.0623    1.2604 C.ar    1  UNL1        0.0158
      4 C           2.0588    0.0450    0.7254 C.ar    1  UNL1       -0.0463
      5 C           3.1313   -0.6696    1.1672 C.ar    1  UNL1       -0.0217
      6 C           4.4639   -0.6159    0.6509 C.2     1  UNL1       -0.0172
      7 C           4.9416    0.2425   -0.2049 C.2     1  UNL1        0.1492
      8 F           4.1618    1.2125   -0.7081 F       1  UNL1       -0.2032
      9 C           6.3510    0.1885   -0.6337 C.ar    1  UNL1        0.0990
     10 C           6.8189    1.0605   -1.5846 C.ar    1  UNL1       -0.0321
     11 C           8.1612    0.9982   -1.9542 C.ar    1  UNL1       -0.0398
     12 C           8.9732    0.0608   -1.3514 C.ar    1  UNL1        0.0591
     13 CL         10.6650   -0.0229   -1.8206 Cl      1  UNL1       -0.0820
     14 C           8.4674   -0.8118   -0.3869 C.ar    1  UNL1        0.0466
     15 N           7.1774   -0.7118   -0.0673 N.ar    1  UNL1       -0.2512
     16 C           2.8768   -1.5505    2.2189 C.ar    1  UNL1       -0.0518
     17 C           1.6149   -1.6672    2.7526 C.ar    1  UNL1       -0.0255
     18 C           0.5480   -0.9331    2.2884 C.ar    1  UNL1        0.1289
     19 F          -0.6772   -1.0300    2.8233 F       1  UNL1       -0.2051
     20 N           0.2730    1.5994   -0.3491 N.2     1  UNL1       -0.2521
     21 C          -0.3256    2.3043   -1.2253 C.2     1  UNL1        0.1485
     22 N           0.2587    3.0974   -2.2206 N.pl3   1  UNL1       -0.3380
     23 S          -2.1407    2.2009   -1.1231 S.3     1  UNL1       -0.0746
     24 C          -2.4698    0.5148   -0.5703 C.3     1  UNL1        0.1055
     25 C          -3.8367    0.1862   -0.2138 C.2     1  UNL1        0.2341
     26 O          -4.1174    0.2319    1.0450 O.2     1  UNL1       -0.2739
     27 N          -4.8740   -0.1756   -1.1023 N.am    1  UNL1       -0.2843
     28 C          -6.1538   -0.4786   -0.5719 C.ar    1  UNL1        0.0334
     29 C          -7.1325    0.4569   -0.3561 C.ar    1  UNL1       -0.0405
     30 C          -8.3739    0.1736    0.1662 C.ar    1  UNL1       -0.0600
     31 C          -8.6861   -1.1216    0.5034 C.ar    1  UNL1       -0.0616
     32 C          -7.7191   -2.0891    0.2973 C.ar    1  UNL1       -0.0600
     33 C          -6.4789   -1.7976   -0.2251 C.ar    1  UNL1       -0.0405
     34 C          -1.5506   -0.5292   -1.2260 C.3     1  UNL1       -0.0220
     35 C          -1.3893   -0.1114    0.1920 C.3     1  UNL1        0.0135
     36 H          -1.6952    1.1888    2.3231 H       1  UNL1        0.0256
     37 H          -0.0880    2.1291    2.3805 H       1  UNL1        0.0256
     38 H          -1.3567    2.5498    1.2337 H       1  UNL1        0.0256
     39 H           2.1960    0.7377   -0.0891 H       1  UNL1        0.0628
     40 H           5.1854   -1.3767    0.9983 H       1  UNL1        0.0653
     41 H           6.1304    1.7798   -2.0295 H       1  UNL1        0.0640
     42 H           8.5529    1.6696   -2.7024 H       1  UNL1        0.0633
     43 H           9.1511   -1.5438    0.0722 H       1  UNL1        0.0844
     44 H           3.6710   -2.1490    2.6185 H       1  UNL1        0.0624
     45 H           1.4152   -2.3557    3.5723 H       1  UNL1        0.0646
     46 H           0.9230    2.7931   -2.9494 H       1  UNL1        0.1442
     47 H          -0.0237    4.1285   -2.2160 H       1  UNL1        0.1442
     48 H          -4.6879   -0.2109   -2.1099 H       1  UNL1        0.1548
     49 H          -6.8809    1.4929   -0.6261 H       1  UNL1        0.0636
     50 H          -9.1181    0.9350    0.3240 H       1  UNL1        0.0618
     51 H          -9.6584   -1.4093    0.9190 H       1  UNL1        0.0618
     52 H          -7.9803   -3.1151    0.5693 H       1  UNL1        0.0618
     53 H          -5.7374   -2.5551   -0.3801 H       1  UNL1        0.0636
     54 H          -2.0430   -1.4951   -1.4615 H       1  UNL1        0.0287
     55 H          -0.8266   -0.1996   -1.9845 H       1  UNL1        0.0287
     56 H          -1.7031   -0.8898    0.9151 H       1  UNL1        0.0346
@<TRIPOS>BOND
     1     2     1    1
     2     2     3    1
     3     3     4   ar
     4     4     5   ar
     5     5     6    1
     6     6     7    2
     7     7     8    1
     8     7     9    1
     9     9    10   ar
    10    10    11   ar
    11    11    12   ar
    12    12    13    1
    13    12    14   ar
    14    14    15   ar
    15     5    16   ar
    16    16    17   ar
    17    17    18   ar
    18    18    19    1
    19     2    20    1
    20    20    21    2
    21    21    22    1
    22    21    23    1
    23    23    24    1
    24    24    25    1
    25    25    26    2
    26    25    27   am
    27    27    28    1
    28    28    29   ar
    29    29    30   ar
    30    30    31   ar
    31    31    32   ar
    32    32    33   ar
    33    24    34    1
    34    34    35    1
    35    35     2    1
    36    18     3   ar
    37    35    24    1
    38    15     9   ar
    39    33    28   ar
    40     1    36    1
    41     1    37    1
    42     1    38    1
    43     4    39    1
    44     6    40    1
    45    10    41    1
    46    11    42    1
    47    14    43    1
    48    16    44    1
    49    17    45    1
    50    22    46    1
    51    22    47    1
    52    27    48    1
    53    29    49    1
    54    30    50    1
    55    31    51    1
    56    32    52    1
    57    33    53    1
    58    34    54    1
    59    34    55    1
    60    35    56    1
