
     RDKit          3D

 34 35  0  0  0  0  0  0  0  0999 V2000
    6.0915    0.7848    0.1637 C   0  0  0  0  0  0  0  0  0  0  0  0
    5.1956   -0.6929    0.4720 S   0  0  0  0  0  0  0  0  0  0  0  0
    5.6935   -1.7592   -0.4671 O   0  0  0  0  0  0  0  0  0  0  0  0
    5.4533   -1.1971    1.8630 O   0  0  0  0  0  0  0  0  0  0  0  0
    3.4495   -0.4859    0.2671 C   0  0  0  0  0  0  0  0  0  0  0  0
    2.5509   -0.7091    1.3075 C   0  0  0  0  0  0  0  0  0  0  0  0
    1.1923   -0.5389    1.1163 C   0  0  0  0  0  0  0  0  0  0  0  0
    0.1973   -0.8629    2.5359 Cl  0  0  0  0  0  0  0  0  0  0  0  0
    0.7044   -0.1446   -0.1106 C   0  0  0  0  0  0  0  0  0  0  0  0
    1.5881    0.0785   -1.1465 C   0  0  0  0  0  0  0  0  0  0  0  0
    2.9447   -0.0915   -0.9554 C   0  0  0  0  0  0  0  0  0  0  0  0
    4.0030    0.2136   -2.3277 Cl  0  0  0  0  0  0  0  0  0  0  0  0
   -0.7465   -0.0141   -0.1363 C   0  0  0  0  0  0  0  0  0  0  0  0
   -1.5262    1.0879    0.1429 C   0  0  0  0  0  0  0  0  0  0  0  0
   -0.6359    2.5103    0.5853 Cl  0  0  0  0  0  0  0  0  0  0  0  0
   -2.8958    0.9635    0.0482 C   0  0  0  0  0  0  0  0  0  0  0  0
   -3.5301   -0.1960   -0.3085 C   0  0  0  0  0  0  0  0  0  0  0  0
   -2.7383   -1.3049   -0.5891 C   0  0  0  0  0  0  0  0  0  0  0  0
   -3.5559   -2.7988   -1.0488 Cl  0  0  0  0  0  0  0  0  0  0  0  0
   -1.3566   -1.2157   -0.5040 C   0  0  0  0  0  0  0  0  0  0  0  0
   -5.2656   -0.2860   -0.4092 S   0  0  0  0  0  0  0  0  0  0  0  0
   -5.9483    1.2977    0.0110 C   0  0  0  0  0  0  0  0  0  0  0  0
   -5.8041   -1.3303    0.5311 O   0  0  0  0  0  0  0  0  0  0  0  0
   -5.6570   -0.6231   -1.8373 O   0  0  0  0  0  0  0  0  0  0  0  0
    6.2880    1.3837    1.0869 H   0  0  0  0  0  0  0  0  0  0  0  0
    5.5787    1.4420   -0.5601 H   0  0  0  0  0  0  0  0  0  0  0  0
    7.1122    0.4931   -0.1998 H   0  0  0  0  0  0  0  0  0  0  0  0
    3.0300   -1.0185    2.2419 H   0  0  0  0  0  0  0  0  0  0  0  0
    1.1245    0.3856   -2.0772 H   0  0  0  0  0  0  0  0  0  0  0  0
   -3.4527    1.8833    0.2853 H   0  0  0  0  0  0  0  0  0  0  0  0
   -0.8433   -2.1521   -0.7477 H   0  0  0  0  0  0  0  0  0  0  0  0
   -5.4166    2.0963   -0.5567 H   0  0  0  0  0  0  0  0  0  0  0  0
   -7.0343    1.3353   -0.2070 H   0  0  0  0  0  0  0  0  0  0  0  0
   -5.7904    1.4661    1.1085 H   0  0  0  0  0  0  0  0  0  0  0  0
  1  2  1  0
  2  3  2  0
  2  4  2  0
  2  5  1  0
  5  6  2  0
  6  7  1  0
  7  8  1  0
  7  9  2  0
  9 10  1  0
 10 11  2  0
 11 12  1  0
  9 13  1  0
 13 14  2  0
 14 15  1  0
 14 16  1  0
 16 17  2  0
 17 18  1  0
 18 19  1  0
 18 20  2  0
 17 21  1  0
 21 22  1  0
 21 23  2  0
 21 24  2  0
 11  5  1  0
 20 13  1  0
  1 25  1  0
  1 26  1  0
  1 27  1  0
  6 28  1  0
 10 29  1  0
 16 30  1  0
 20 31  1  0
 22 32  1  0
 22 33  1  0
 22 34  1  0
M  END
$$$$
