
     RDKit          3D

 36 38  0  0  0  0  0  0  0  0999 V2000
   -5.9889    1.6085   -1.5448 C   0  0  0  0  0  0  0  0  0  0  0  0
   -4.5680    1.4922   -1.5287 O   0  0  0  0  0  0  0  0  0  0  0  0
   -4.0167    0.7110   -0.5096 C   0  0  0  0  0  0  0  0  0  0  0  0
   -4.8153    0.0870    0.4299 C   0  0  0  0  0  0  0  0  0  0  0  0
   -4.1919   -0.6654    1.4021 C   0  0  0  0  0  0  0  0  0  0  0  0
   -2.8178   -0.7863    1.4292 C   0  0  0  0  0  0  0  0  0  0  0  0
   -2.2916   -1.5584    2.4384 O   0  0  0  0  0  0  0  0  0  0  0  0
   -1.9952   -0.1873    0.5217 C   0  0  0  0  0  0  0  0  0  0  0  0
   -2.6472    0.5580   -0.4378 C   0  0  0  0  0  0  0  0  0  0  0  0
   -0.5468   -0.2932    0.5207 C   0  0  0  0  0  0  0  0  0  0  0  0
    0.2662    0.2900   -0.3642 N   0  0  0  0  0  0  0  0  0  0  0  0
    1.5560    0.0098   -0.1092 C   0  0  0  0  0  0  0  0  0  0  0  0
    1.5599   -0.8023    1.0079 C   0  0  0  0  0  0  0  0  0  0  0  0
    0.2707   -0.9553    1.3488 N   0  0  0  0  0  0  0  0  0  0  0  0
    2.7633   -1.2583    1.5134 C   0  0  0  0  0  0  0  0  0  0  0  0
    3.9683   -0.9022    0.9013 C   0  0  0  0  0  0  0  0  0  0  0  0
    3.8984   -0.0884   -0.2114 C   0  0  0  0  0  0  0  0  0  0  0  0
    2.7321    0.3792   -0.7367 C   0  0  0  0  0  0  0  0  0  0  0  0
    5.1982    0.2394   -0.7941 C   0  0  0  0  0  0  0  0  0  0  0  0
    6.3539   -0.5907   -0.7569 N   0  0  0  0  0  0  0  0  0  0  0  0
    5.3754    1.3621   -1.4073 N   0  0  0  0  0  4  0  0  0  0  0  0
   -6.3507    2.1322   -0.6401 H   0  0  0  0  0  0  0  0  0  0  0  0
   -6.4551    0.5911   -1.5695 H   0  0  0  0  0  0  0  0  0  0  0  0
   -6.3126    2.1889   -2.4392 H   0  0  0  0  0  0  0  0  0  0  0  0
   -5.8711    0.2120    0.3649 H   0  0  0  0  0  0  0  0  0  0  0  0
   -4.8172   -1.1513    2.1339 H   0  0  0  0  0  0  0  0  0  0  0  0
   -2.3220   -2.5739    2.4621 H   0  0  0  0  0  0  0  0  0  0  0  0
   -2.0556    1.0703   -1.2027 H   0  0  0  0  0  0  0  0  0  0  0  0
    0.0095   -1.5262    2.1609 H   0  0  0  0  0  0  0  0  0  0  0  0
    2.7698   -1.8858    2.3760 H   0  0  0  0  0  0  0  0  0  0  0  0
    4.9188   -1.2719    1.3138 H   0  0  0  0  0  0  0  0  0  0  0  0
    2.7160    1.0199   -1.6165 H   0  0  0  0  0  0  0  0  0  0  0  0
    6.6945   -1.0472    0.1294 H   0  0  0  0  0  0  0  0  0  0  0  0
    6.9703   -0.8329   -1.5650 H   0  0  0  0  0  0  0  0  0  0  0  0
    4.6700    2.1371   -1.5629 H   0  0  0  0  0  0  0  0  0  0  0  0
    5.3724    2.2881   -1.8648 H   0  0  0  0  0  0  0  0  0  0  0  0
  1  2  1  0
  2  3  1  0
  3  4  2  0
  4  5  1  0
  5  6  2  0
  6  7  1  0
  6  8  1  0
  8  9  2  0
  8 10  1  0
 10 11  2  0
 11 12  1  0
 12 13  2  0
 13 14  1  0
 13 15  1  0
 15 16  2  0
 16 17  1  0
 17 18  2  0
 17 19  1  0
 19 20  1  0
 19 21  2  0
  9  3  1  0
 14 10  1  0
 18 12  1  0
  1 22  1  0
  1 23  1  0
  1 24  1  0
  4 25  1  0
  5 26  1  0
  7 27  1  0
  9 28  1  0
 14 29  1  0
 15 30  1  0
 16 31  1  0
 18 32  1  0
 20 33  1  0
 20 34  1  0
 21 35  1  0
 21 36  1  0
M  CHG  1  21   1
M  END
$$$$
