
     RDKit          3D

 39 42  0  0  0  0  0  0  0  0999 V2000
   -2.9139    2.6199   -0.8260 C   0  0  0  0  0  0  0  0  0  0  0  0
   -3.3539    1.5144    0.1108 C   0  0  0  0  0  0  0  0  0  0  0  0
   -4.6531    0.9053   -0.3606 C   0  0  0  0  0  0  0  0  0  0  0  0
   -2.3066    0.5158    0.1291 N   0  0  0  0  0  0  0  0  0  0  0  0
   -1.0233    0.7293   -0.1597 N   0  0  0  0  0  0  0  0  0  0  0  0
   -0.3223   -0.4385   -0.0399 C   0  0  0  0  0  0  0  0  0  0  0  0
   -1.2613   -1.3445    0.3346 C   0  0  0  0  0  0  0  0  0  0  0  0
   -1.0280   -2.6785    0.5863 C   0  0  0  0  0  0  0  0  0  0  0  0
    0.2515   -3.2860    0.4927 N   0  0  0  0  0  0  0  0  0  0  0  0
   -2.0683   -3.4581    0.9570 N   0  0  0  0  0  0  0  0  0  0  0  0
   -3.3048   -2.8880    1.0658 C   0  0  0  0  0  0  0  0  0  0  0  0
   -3.5273   -1.5639    0.8152 N   0  0  0  0  0  0  0  0  0  0  0  0
   -2.5105   -0.7915    0.4508 C   0  0  0  0  0  0  0  0  0  0  0  0
    1.0969   -0.3957   -0.3104 C   0  0  0  0  0  0  0  0  0  0  0  0
    1.8290    0.6161    0.3256 C   0  0  0  0  0  0  0  0  0  0  0  0
    3.1920    0.8396    0.1894 C   0  0  0  0  0  0  0  0  0  0  0  0
    3.7971    1.8740    0.8729 C   0  0  0  0  0  0  0  0  0  0  0  0
    5.1540    1.9790    0.6439 C   0  0  0  0  0  0  0  0  0  0  0  0
    5.8623    1.1372   -0.1888 C   0  0  0  0  0  0  0  0  0  0  0  0
    5.1977    0.1338   -0.8340 N   0  0  0  0  0  0  0  0  0  0  0  0
    3.8742   -0.0175   -0.6496 C   0  0  0  0  0  0  0  0  0  0  0  0
    3.2160   -1.0348   -1.3074 C   0  0  0  0  0  0  0  0  0  0  0  0
    1.8601   -1.2010   -1.1276 C   0  0  0  0  0  0  0  0  0  0  0  0
   -3.3605    3.5959   -0.5442 H   0  0  0  0  0  0  0  0  0  0  0  0
   -1.8190    2.7346   -0.6959 H   0  0  0  0  0  0  0  0  0  0  0  0
   -3.2004    2.3128   -1.8559 H   0  0  0  0  0  0  0  0  0  0  0  0
   -3.5530    1.9607    1.1145 H   0  0  0  0  0  0  0  0  0  0  0  0
   -4.5340    0.1509   -1.1489 H   0  0  0  0  0  0  0  0  0  0  0  0
   -5.2919    1.7477   -0.7198 H   0  0  0  0  0  0  0  0  0  0  0  0
   -5.1797    0.4916    0.5212 H   0  0  0  0  0  0  0  0  0  0  0  0
    0.8109   -3.6771    1.3025 H   0  0  0  0  0  0  0  0  0  0  0  0
    0.9523   -3.7216    1.1389 H   0  0  0  0  0  0  0  0  0  0  0  0
   -4.1250   -3.5332    1.3644 H   0  0  0  0  0  0  0  0  0  0  0  0
    1.3061    1.3089    0.9971 H   0  0  0  0  0  0  0  0  0  0  0  0
    3.2444    2.5355    1.5264 H   0  0  0  0  0  0  0  0  0  0  0  0
    5.7086    2.7757    1.1500 H   0  0  0  0  0  0  0  0  0  0  0  0
    6.9307    1.2638   -0.3341 H   0  0  0  0  0  0  0  0  0  0  0  0
    3.7241   -1.7276   -1.9756 H   0  0  0  0  0  0  0  0  0  0  0  0
    1.3291   -1.9849   -1.6464 H   0  0  0  0  0  0  0  0  0  0  0  0
  1  2  1  0
  2  3  1  0
  2  4  1  0
  4  5  1  0
  5  6  2  0
  6  7  1  0
  7  8  2  0
  8  9  1  0
  8 10  1  0
 10 11  2  0
 11 12  1  0
 12 13  2  0
  6 14  1  0
 14 15  2  0
 15 16  1  0
 16 17  2  0
 17 18  1  0
 18 19  2  0
 19 20  1  0
 20 21  2  0
 21 22  1  0
 22 23  2  0
 13  4  1  0
 23 14  1  0
 13  7  1  0
 21 16  1  0
  1 24  1  0
  1 25  1  0
  1 26  1  0
  2 27  1  0
  3 28  1  0
  3 29  1  0
  3 30  1  0
  9 31  1  0
  9 32  1  0
 11 33  1  0
 15 34  1  0
 17 35  1  0
 18 36  1  0
 19 37  1  0
 22 38  1  0
 23 39  1  0
M  END
$$$$
