@<TRIPOS>MOLECULE
*****
 39 42 0 0 0
SMALL
GASTEIGER

@<TRIPOS>ATOM
      1 C          -2.9139    2.6199   -0.8260 C.3     1  UNL1       -0.0428
      2 C          -3.3539    1.5144    0.1108 C.3     1  UNL1        0.0493
      3 C          -4.6531    0.9053   -0.3606 C.3     1  UNL1       -0.0428
      4 N          -2.3066    0.5158    0.1291 N.ar    1  UNL1       -0.2431
      5 N          -1.0233    0.7293   -0.1597 N.ar    1  UNL1       -0.1684
      6 C          -0.3223   -0.4385   -0.0399 C.ar    1  UNL1        0.1053
      7 C          -1.2613   -1.3445    0.3346 C.ar    1  UNL1        0.0859
      8 C          -1.0280   -2.6785    0.5863 C.ar    1  UNL1        0.1308
      9 N           0.2515   -3.2860    0.4927 N.pl3   1  UNL1       -0.3425
     10 N          -2.0683   -3.4581    0.9570 N.ar    1  UNL1       -0.2204
     11 C          -3.3048   -2.8880    1.0658 C.ar    1  UNL1        0.1204
     12 N          -3.5273   -1.5639    0.8152 N.ar    1  UNL1       -0.2161
     13 C          -2.5105   -0.7915    0.4508 C.ar    1  UNL1        0.1641
     14 C           1.0969   -0.3957   -0.3104 C.ar    1  UNL1        0.0035
     15 C           1.8290    0.6161    0.3256 C.ar    1  UNL1       -0.0433
     16 C           3.1920    0.8396    0.1894 C.ar    1  UNL1        0.0010
     17 C           3.7971    1.8740    0.8729 C.ar    1  UNL1       -0.0511
     18 C           5.1540    1.9790    0.6439 C.ar    1  UNL1       -0.0430
     19 C           5.8623    1.1372   -0.1888 C.ar    1  UNL1        0.0283
     20 N           5.1977    0.1338   -0.8340 N.ar    1  UNL1       -0.2550
     21 C           3.8742   -0.0175   -0.6496 C.ar    1  UNL1        0.0710
     22 C           3.2160   -1.0348   -1.3074 C.ar    1  UNL1       -0.0351
     23 C           1.8601   -1.2010   -1.1276 C.ar    1  UNL1       -0.0504
     24 H          -3.3605    3.5959   -0.5442 H       1  UNL1        0.0250
     25 H          -1.8190    2.7346   -0.6959 H       1  UNL1        0.0250
     26 H          -3.2004    2.3128   -1.8559 H       1  UNL1        0.0250
     27 H          -3.5530    1.9607    1.1145 H       1  UNL1        0.0540
     28 H          -4.5340    0.1509   -1.1489 H       1  UNL1        0.0250
     29 H          -5.2919    1.7477   -0.7198 H       1  UNL1        0.0250
     30 H          -5.1797    0.4916    0.5212 H       1  UNL1        0.0250
     31 H           0.8109   -3.6771    1.3025 H       1  UNL1        0.1437
     32 H           0.9523   -3.7216    1.1389 H       1  UNL1        0.1437
     33 H          -4.1250   -3.5332    1.3644 H       1  UNL1        0.1048
     34 H           1.3061    1.3089    0.9971 H       1  UNL1        0.0631
     35 H           3.2444    2.5355    1.5264 H       1  UNL1        0.0625
     36 H           5.7086    2.7757    1.1500 H       1  UNL1        0.0633
     37 H           6.9307    1.2638   -0.3341 H       1  UNL1        0.0830
     38 H           3.7241   -1.7276   -1.9756 H       1  UNL1        0.0639
     39 H           1.3291   -1.9849   -1.6464 H       1  UNL1        0.0625
@<TRIPOS>BOND
     1     1     2    1
     2     2     3    1
     3     2     4    1
     4     4     5   ar
     5     5     6   ar
     6     6     7   ar
     7     7     8   ar
     8     8     9    1
     9     8    10   ar
    10    10    11   ar
    11    11    12   ar
    12    12    13   ar
    13     6    14    1
    14    14    15   ar
    15    15    16   ar
    16    16    17   ar
    17    17    18   ar
    18    18    19   ar
    19    19    20   ar
    20    20    21   ar
    21    21    22   ar
    22    22    23   ar
    23    13     4   ar
    24    23    14   ar
    25    13     7   ar
    26    21    16   ar
    27     1    24    1
    28     1    25    1
    29     1    26    1
    30     2    27    1
    31     3    28    1
    32     3    29    1
    33     3    30    1
    34     9    31    1
    35     9    32    1
    36    11    33    1
    37    15    34    1
    38    17    35    1
    39    18    36    1
    40    19    37    1
    41    22    38    1
    42    23    39    1
