@<TRIPOS>MOLECULE
*****
 61 63 0 0 0
SMALL
GASTEIGER

@<TRIPOS>ATOM
      1 C           4.5500    1.2913   -0.7129 C.3     1  UNL1       -0.0606
      2 C           3.8123    1.4497   -1.9927 C.3     1  UNL1       -0.0232
      3 C           4.4289    2.6489   -2.7401 C.3     1  UNL1       -0.0606
      4 C           2.3514    1.6900   -1.9266 C.3     1  UNL1        0.0500
      5 O           1.5415    0.7581   -1.3589 O.3     1  UNL1       -0.3779
      6 C           1.7025    0.4109   -0.0667 C.3     1  UNL1        0.0647
      7 C           0.5733   -0.6463    0.3257 C.3     1  UNL1        0.0494
      8 C          -0.6131   -0.0594   -0.2499 C.3     1  UNL1        0.0303
      9 N          -1.9154   -0.5848   -0.2065 N.pl3   1  UNL1       -0.3240
     10 C          -2.7708   -0.5261    0.9570 C.3     1  UNL1        0.0373
     11 C          -2.9107    0.8806    1.4525 C.ar    1  UNL1       -0.0302
     12 C          -3.9359    1.7143    0.9803 C.ar    1  UNL1       -0.0571
     13 C          -4.1349    3.0208    1.3801 C.ar    1  UNL1       -0.0615
     14 C          -3.2562    3.5185    2.3060 C.ar    1  UNL1       -0.0617
     15 C          -2.2176    2.7819    2.8308 C.ar    1  UNL1       -0.0615
     16 C          -2.0930    1.4892    2.3765 C.ar    1  UNL1       -0.0571
     17 C          -2.3470   -1.2556   -1.3999 C.ar    1  UNL1        0.0300
     18 C          -1.5351   -1.4121   -2.4851 C.ar    1  UNL1       -0.0407
     19 C          -1.8818   -2.0426   -3.6727 C.ar    1  UNL1       -0.0600
     20 C          -3.1495   -2.5704   -3.8055 C.ar    1  UNL1       -0.0616
     21 C          -4.0239   -2.4485   -2.7456 C.ar    1  UNL1       -0.0600
     22 C          -3.5886   -1.8075   -1.6110 C.ar    1  UNL1       -0.0407
     23 N           0.8295   -0.9304    1.6654 N.3     1  UNL1       -0.2957
     24 C           0.0502   -1.8407    2.3975 C.3     1  UNL1       -0.0007
     25 C           0.9668   -2.5632    3.3586 C.3     1  UNL1       -0.0390
     26 C           2.2619   -2.5943    2.6499 C.3     1  UNL1       -0.0390
     27 C           2.2199   -1.4535    1.6989 C.3     1  UNL1       -0.0007
     28 H           4.8661    0.2332   -0.4845 H       1  UNL1        0.0233
     29 H           5.5647    1.7984   -0.8495 H       1  UNL1        0.0233
     30 H           4.1104    1.8222    0.1436 H       1  UNL1        0.0233
     31 H           4.0007    0.5259   -2.6041 H       1  UNL1        0.0318
     32 H           4.1250    3.5512   -2.1641 H       1  UNL1        0.0233
     33 H           5.5195    2.5179   -2.6703 H       1  UNL1        0.0233
     34 H           4.0653    2.7256   -3.7722 H       1  UNL1        0.0233
     35 H           2.1171    2.7393   -1.5586 H       1  UNL1        0.0562
     36 H           2.0068    1.7598   -3.0162 H       1  UNL1        0.0562
     37 H           2.6592   -0.0039    0.1920 H       1  UNL1        0.0576
     38 H           1.4992    1.2814    0.5895 H       1  UNL1        0.0576
     39 H           0.9443   -1.5318   -0.2959 H       1  UNL1        0.0501
     40 H          -0.6799    1.0282    0.2343 H       1  UNL1        0.0480
     41 H          -0.3662    0.2879   -1.3000 H       1  UNL1        0.0480
     42 H          -3.8367   -0.7678    0.6187 H       1  UNL1        0.0513
     43 H          -2.5686   -1.2052    1.7619 H       1  UNL1        0.0513
     44 H          -4.6215    1.3052    0.2492 H       1  UNL1        0.0621
     45 H          -4.9501    3.5865    0.9631 H       1  UNL1        0.0618
     46 H          -3.4009    4.5459    2.6295 H       1  UNL1        0.0618
     47 H          -1.5398    3.1899    3.5549 H       1  UNL1        0.0618
     48 H          -1.2816    0.9204    2.7872 H       1  UNL1        0.0621
     49 H          -0.5150   -1.0792   -2.5559 H       1  UNL1        0.0636
     50 H          -1.2429   -2.1682   -4.5334 H       1  UNL1        0.0618
     51 H          -3.4610   -3.0682   -4.7088 H       1  UNL1        0.0618
     52 H          -5.0011   -2.8643   -2.8691 H       1  UNL1        0.0618
     53 H          -4.3524   -1.7799   -0.8591 H       1  UNL1        0.0636
     54 H          -0.4615   -2.6186    1.7928 H       1  UNL1        0.0427
     55 H          -0.6919   -1.3473    3.0999 H       1  UNL1        0.0427
     56 H           1.0250   -2.0218    4.3477 H       1  UNL1        0.0278
     57 H           0.6132   -3.6019    3.5611 H       1  UNL1        0.0278
     58 H           3.1340   -2.5194    3.3644 H       1  UNL1        0.0278
     59 H           2.3941   -3.5878    2.1745 H       1  UNL1        0.0278
     60 H           2.4932   -1.8847    0.7015 H       1  UNL1        0.0427
     61 H           2.9186   -0.6875    2.0707 H       1  UNL1        0.0427
@<TRIPOS>BOND
     1     1     2    1
     2     2     3    1
     3     2     4    1
     4     4     5    1
     5     5     6    1
     6     6     7    1
     7     7     8    1
     8     8     9    1
     9     9    10    1
    10    10    11    1
    11    11    12   ar
    12    12    13   ar
    13    13    14   ar
    14    14    15   ar
    15    15    16   ar
    16     9    17    1
    17    17    18   ar
    18    18    19   ar
    19    19    20   ar
    20    20    21   ar
    21    21    22   ar
    22     7    23    1
    23    23    24    1
    24    24    25    1
    25    25    26    1
    26    26    27    1
    27    16    11   ar
    28    22    17   ar
    29    27    23    1
    30     1    28    1
    31     1    29    1
    32     1    30    1
    33     2    31    1
    34     3    32    1
    35     3    33    1
    36     3    34    1
    37     4    35    1
    38     4    36    1
    39     6    37    1
    40     6    38    1
    41     7    39    1
    42     8    40    1
    43     8    41    1
    44    10    42    1
    45    10    43    1
    46    12    44    1
    47    13    45    1
    48    14    46    1
    49    15    47    1
    50    16    48    1
    51    18    49    1
    52    19    50    1
    53    20    51    1
    54    21    52    1
    55    22    53    1
    56    24    54    1
    57    24    55    1
    58    25    56    1
    59    25    57    1
    60    26    58    1
    61    26    59    1
    62    27    60    1
    63    27    61    1
