
     RDKit          3D

 61 64  0  0  0  0  0  0  0  0999 V2000
    2.9544    1.0783   -3.6430 C   0  0  0  0  0  0  0  0  0  0  0  0
    2.7583    0.8257   -2.2731 O   0  0  0  0  0  0  0  0  0  0  0  0
    3.8725    0.7891   -1.4145 C   0  0  0  0  0  0  0  0  0  0  0  0
    5.1375    1.0003   -1.9238 C   0  0  0  0  0  0  0  0  0  0  0  0
    6.2106    0.9583   -1.0580 C   0  0  0  0  0  0  0  0  0  0  0  0
    6.0478    0.7128    0.2889 C   0  0  0  0  0  0  0  0  0  0  0  0
    7.1667    0.6698    1.1871 N   0  0  0  0  0  0  0  0  0  0  0  0
    8.6074   -0.1646    0.8084 S   0  0  0  0  0  6  0  0  0  0  0  0
    8.3239   -1.9132    0.5784 C   0  0  0  0  0  0  0  0  0  0  0  0
    9.2437    0.3511   -0.4577 O   0  0  0  0  0  0  0  0  0  0  0  0
    9.5724   -0.0219    1.9497 O   0  0  0  0  0  0  0  0  0  0  0  0
    4.7765    0.5064    0.7669 C   0  0  0  0  0  0  0  0  0  0  0  0
    3.6888    0.5391   -0.0531 C   0  0  0  0  0  0  0  0  0  0  0  0
    2.3556    0.3235    0.4444 C   0  0  0  0  0  0  0  0  0  0  0  0
    1.3449    1.1598    0.0372 C   0  0  0  0  0  0  0  0  0  0  0  0
    0.0622    0.9538    0.5143 C   0  0  0  0  0  0  0  0  0  0  0  0
   -0.2479   -0.0642    1.3891 C   0  0  0  0  0  0  0  0  0  0  0  0
   -1.6567   -0.2287    1.8647 C   0  0  1  0  0  0  0  0  0  0  0  0
   -2.5450    0.9531    1.9603 C   0  0  0  0  0  0  0  0  0  0  0  0
   -2.6819    0.0788    0.7953 C   0  0  2  0  0  0  0  0  0  0  0  0
   -3.7366   -0.9092    0.6966 N   0  0  0  0  0  0  0  0  0  0  0  0
   -4.6941   -0.5727   -0.3402 C   0  0  0  0  0  0  0  0  0  0  0  0
   -5.7439   -1.6655   -0.3536 C   0  0  0  0  0  0  0  0  0  0  0  0
   -6.9114   -1.1794    0.5057 C   0  0  0  0  0  0  0  0  0  0  0  0
   -7.6318   -0.0944   -0.2309 C   0  0  0  0  0  0  0  0  0  0  0  0
   -8.4473   -0.7126   -1.2733 N   0  0  0  0  0  0  0  0  0  0  0  0
   -6.6431    0.8815   -0.7745 C   0  0  0  0  0  0  0  0  0  0  0  0
   -5.2799    0.7864   -0.1409 C   0  0  0  0  0  0  0  0  0  0  0  0
    0.7621   -0.8966    1.7935 C   0  0  0  0  0  0  0  0  0  0  0  0
    2.0508   -0.6931    1.3167 C   0  0  0  0  0  0  0  0  0  0  0  0
    1.9928    0.9072   -4.1836 H   0  0  0  0  0  0  0  0  0  0  0  0
    3.2399    2.1320   -3.8540 H   0  0  0  0  0  0  0  0  0  0  0  0
    3.7424    0.3970   -4.0777 H   0  0  0  0  0  0  0  0  0  0  0  0
    5.2703    1.1945   -2.9869 H   0  0  0  0  0  0  0  0  0  0  0  0
    7.2108    1.1209   -1.4348 H   0  0  0  0  0  0  0  0  0  0  0  0
    7.0621    1.1757    2.0921 H   0  0  0  0  0  0  0  0  0  0  0  0
    9.3496   -2.3798    0.5109 H   0  0  0  0  0  0  0  0  0  0  0  0
    7.7257   -2.0993   -0.3343 H   0  0  0  0  0  0  0  0  0  0  0  0
    7.8528   -2.3490    1.4664 H   0  0  0  0  0  0  0  0  0  0  0  0
    4.6716    0.3153    1.8277 H   0  0  0  0  0  0  0  0  0  0  0  0
    1.5337    1.9925   -0.6622 H   0  0  0  0  0  0  0  0  0  0  0  0
   -0.7181    1.6258    0.1792 H   0  0  0  0  0  0  0  0  0  0  0  0
   -1.8148   -1.0569    2.5537 H   0  0  0  0  0  0  0  0  0  0  0  0
   -3.2805    0.9663    2.7967 H   0  0  0  0  0  0  0  0  0  0  0  0
   -2.0559    1.9439    1.8237 H   0  0  0  0  0  0  0  0  0  0  0  0
   -2.3542    0.4634   -0.1860 H   0  0  0  0  0  0  0  0  0  0  0  0
   -3.2913   -1.8293    0.4839 H   0  0  0  0  0  0  0  0  0  0  0  0
   -4.1880   -0.5892   -1.3340 H   0  0  0  0  0  0  0  0  0  0  0  0
   -5.3861   -2.6049    0.1160 H   0  0  0  0  0  0  0  0  0  0  0  0
   -6.0708   -1.9183   -1.3783 H   0  0  0  0  0  0  0  0  0  0  0  0
   -7.5472   -2.0660    0.7069 H   0  0  0  0  0  0  0  0  0  0  0  0
   -6.4827   -0.7797    1.4330 H   0  0  0  0  0  0  0  0  0  0  0  0
   -8.3667    0.3784    0.4763 H   0  0  0  0  0  0  0  0  0  0  0  0
   -8.7619   -1.6320   -0.8755 H   0  0  0  0  0  0  0  0  0  0  0  0
   -7.8769   -0.9508   -2.1138 H   0  0  0  0  0  0  0  0  0  0  0  0
   -6.5296    0.7361   -1.8624 H   0  0  0  0  0  0  0  0  0  0  0  0
   -7.0541    1.9105   -0.6309 H   0  0  0  0  0  0  0  0  0  0  0  0
   -4.6313    1.5272   -0.6664 H   0  0  0  0  0  0  0  0  0  0  0  0
   -5.2885    1.1054    0.9261 H   0  0  0  0  0  0  0  0  0  0  0  0
    0.5338   -1.6953    2.4761 H   0  0  0  0  0  0  0  0  0  0  0  0
    2.7967   -1.3934    1.6825 H   0  0  0  0  0  0  0  0  0  0  0  0
  1  2  1  0
  2  3  1  0
  3  4  2  0
  4  5  1  0
  5  6  2  0
  6  7  1  0
  7  8  1  0
  8  9  1  0
  8 10  2  0
  8 11  2  0
  6 12  1  0
 12 13  2  0
 13 14  1  0
 14 15  2  0
 15 16  1  0
 16 17  2  0
 17 18  1  0
 18 19  1  0
 19 20  1  0
 20 21  1  0
 21 22  1  0
 22 23  1  0
 23 24  1  0
 24 25  1  0
 25 26  1  0
 25 27  1  0
 27 28  1  0
 17 29  1  0
 29 30  2  0
 13  3  1  0
 30 14  1  0
 20 18  1  0
 28 22  1  0
  1 31  1  0
  1 32  1  0
  1 33  1  0
  4 34  1  0
  5 35  1  0
  7 36  1  0
  9 37  1  0
  9 38  1  0
  9 39  1  0
 12 40  1  0
 15 41  1  0
 16 42  1  0
 18 43  1  1
 19 44  1  0
 19 45  1  0
 20 46  1  6
 21 47  1  0
 22 48  1  0
 23 49  1  0
 23 50  1  0
 24 51  1  0
 24 52  1  0
 25 53  1  0
 26 54  1  0
 26 55  1  0
 27 56  1  0
 27 57  1  0
 28 58  1  0
 28 59  1  0
 29 60  1  0
 30 61  1  0
M  END
$$$$
