@<TRIPOS>MOLECULE
*****
 61 64 0 0 0
SMALL
GASTEIGER

@<TRIPOS>ATOM
      1 C           2.9544    1.0783   -3.6430 C.3     1  UNL1        0.0788
      2 O           2.7583    0.8257   -2.2731 O.3     1  UNL1       -0.4945
      3 C           3.8725    0.7891   -1.4145 C.ar    1  UNL1        0.1279
      4 C           5.1375    1.0003   -1.9238 C.ar    1  UNL1       -0.0176
      5 C           6.2106    0.9583   -1.0580 C.ar    1  UNL1       -0.0358
      6 C           6.0478    0.7128    0.2889 C.ar    1  UNL1        0.0485
      7 N           7.1667    0.6698    1.1871 N.pl3   1  UNL1       -0.2209
      8 S           8.6074   -0.1646    0.8084 S.O2    1  UNL1        0.0403
      9 C           8.3239   -1.9132    0.5784 C.3     1  UNL1        0.0736
     10 O           9.2437    0.3511   -0.4577 O.2     1  UNL1       -0.1555
     11 O           9.5724   -0.0219    1.9497 O.2     1  UNL1       -0.1555
     12 C           4.7765    0.5064    0.7669 C.ar    1  UNL1       -0.0281
     13 C           3.6888    0.5391   -0.0531 C.ar    1  UNL1        0.0256
     14 C           2.3556    0.3235    0.4444 C.ar    1  UNL1       -0.0143
     15 C           1.3449    1.1598    0.0372 C.ar    1  UNL1       -0.0536
     16 C           0.0622    0.9538    0.5143 C.ar    1  UNL1       -0.0577
     17 C          -0.2479   -0.0642    1.3891 C.ar    1  UNL1       -0.0427
     18 C          -1.6567   -0.2287    1.8647 C.3     1  UNL1        0.0010
     19 C          -2.5450    0.9531    1.9603 C.3     1  UNL1       -0.0287
     20 C          -2.6819    0.0788    0.7953 C.3     1  UNL1        0.0153
     21 N          -3.7366   -0.9092    0.6966 N.3     1  UNL1       -0.3099
     22 C          -4.6941   -0.5727   -0.3402 C.3     1  UNL1        0.0080
     23 C          -5.7439   -1.6655   -0.3536 C.3     1  UNL1       -0.0361
     24 C          -6.9114   -1.1794    0.5057 C.3     1  UNL1       -0.0363
     25 C          -7.6318   -0.0944   -0.2309 C.3     1  UNL1        0.0049
     26 N          -8.4473   -0.7126   -1.2733 N.3     1  UNL1       -0.3272
     27 C          -6.6431    0.8815   -0.7745 C.3     1  UNL1       -0.0363
     28 C          -5.2799    0.7864   -0.1409 C.3     1  UNL1       -0.0361
     29 C           0.7621   -0.8966    1.7935 C.ar    1  UNL1       -0.0577
     30 C           2.0508   -0.6931    1.3167 C.ar    1  UNL1       -0.0536
     31 H           1.9928    0.9072   -4.1836 H       1  UNL1        0.0660
     32 H           3.2399    2.1320   -3.8540 H       1  UNL1        0.0660
     33 H           3.7424    0.3970   -4.0777 H       1  UNL1        0.0660
     34 H           5.2703    1.1945   -2.9869 H       1  UNL1        0.0655
     35 H           7.2108    1.1209   -1.4348 H       1  UNL1        0.0638
     36 H           7.0621    1.1757    2.0921 H       1  UNL1        0.1733
     37 H           9.3496   -2.3798    0.5109 H       1  UNL1        0.0482
     38 H           7.7257   -2.0993   -0.3343 H       1  UNL1        0.0482
     39 H           7.8528   -2.3490    1.4664 H       1  UNL1        0.0482
     40 H           4.6716    0.3153    1.8277 H       1  UNL1        0.0644
     41 H           1.5337    1.9925   -0.6622 H       1  UNL1        0.0624
     42 H          -0.7181    1.6258    0.1792 H       1  UNL1        0.0621
     43 H          -1.8148   -1.0569    2.5537 H       1  UNL1        0.0364
     44 H          -3.2805    0.9663    2.7967 H       1  UNL1        0.0287
     45 H          -2.0559    1.9439    1.8237 H       1  UNL1        0.0287
     46 H          -2.3542    0.4634   -0.1860 H       1  UNL1        0.0466
     47 H          -3.2913   -1.8293    0.4839 H       1  UNL1        0.1225
     48 H          -4.1880   -0.5892   -1.3340 H       1  UNL1        0.0460
     49 H          -5.3861   -2.6049    0.1160 H       1  UNL1        0.0281
     50 H          -6.0708   -1.9183   -1.3783 H       1  UNL1        0.0281
     51 H          -7.5472   -2.0660    0.7069 H       1  UNL1        0.0281
     52 H          -6.4827   -0.7797    1.4330 H       1  UNL1        0.0281
     53 H          -8.3667    0.3784    0.4763 H       1  UNL1        0.0458
     54 H          -8.7619   -1.6320   -0.8755 H       1  UNL1        0.1185
     55 H          -7.8769   -0.9508   -2.1138 H       1  UNL1        0.1185
     56 H          -6.5296    0.7361   -1.8624 H       1  UNL1        0.0281
     57 H          -7.0541    1.9105   -0.6309 H       1  UNL1        0.0281
     58 H          -4.6313    1.5272   -0.6664 H       1  UNL1        0.0281
     59 H          -5.2885    1.1054    0.9261 H       1  UNL1        0.0281
     60 H           0.5338   -1.6953    2.4761 H       1  UNL1        0.0621
     61 H           2.7967   -1.3934    1.6825 H       1  UNL1        0.0624
@<TRIPOS>BOND
     1     1     2    1
     2     2     3    1
     3     3     4   ar
     4     4     5   ar
     5     5     6   ar
     6     6     7    1
     7     7     8    1
     8     8     9    1
     9     8    10    2
    10     8    11    2
    11     6    12   ar
    12    12    13   ar
    13    13    14    1
    14    14    15   ar
    15    15    16   ar
    16    16    17   ar
    17    17    18    1
    18    18    19    1
    19    19    20    1
    20    20    21    1
    21    21    22    1
    22    22    23    1
    23    23    24    1
    24    24    25    1
    25    25    26    1
    26    25    27    1
    27    27    28    1
    28    17    29   ar
    29    29    30   ar
    30    13     3   ar
    31    30    14   ar
    32    20    18    1
    33    28    22    1
    34     1    31    1
    35     1    32    1
    36     1    33    1
    37     4    34    1
    38     5    35    1
    39     7    36    1
    40     9    37    1
    41     9    38    1
    42     9    39    1
    43    12    40    1
    44    15    41    1
    45    16    42    1
    46    18    43    1
    47    19    44    1
    48    19    45    1
    49    20    46    1
    50    21    47    1
    51    22    48    1
    52    23    49    1
    53    23    50    1
    54    24    51    1
    55    24    52    1
    56    25    53    1
    57    26    54    1
    58    26    55    1
    59    27    56    1
    60    27    57    1
    61    28    58    1
    62    28    59    1
    63    29    60    1
    64    30    61    1
