@<TRIPOS>MOLECULE
*****
 28 30 0 0 0
SMALL
GASTEIGER

@<TRIPOS>ATOM
      1 C          -1.3948    1.0651    0.1584 C.3     1  UNL1        0.0002
      2 C          -1.9275    0.2653    1.3003 C.3     1  UNL1       -0.0442
      3 C          -1.2816   -1.1046    1.0577 C.3     1  UNL1       -0.0442
      4 C          -0.6147   -0.9855   -0.2964 C.3     1  UNL1        0.0007
      5 C           0.5784   -0.1463   -0.1264 C.ar    1  UNL1       -0.0277
      6 C           1.9298   -0.3994   -0.1960 C.ar    1  UNL1        0.0586
      7 C           2.7440    0.7029    0.0353 C.ar    1  UNL1       -0.0498
      8 C           2.3305    1.9898    0.3199 C.ar    1  UNL1       -0.0609
      9 C           0.9653    2.1931    0.3788 C.ar    1  UNL1       -0.0580
     10 C           0.0993    1.1418    0.1591 C.ar    1  UNL1       -0.0388
     11 C           2.4661   -1.7279   -0.4909 C.3     1  UNL1        0.4177
     12 F           2.1047   -2.2697   -1.6935 F       1  UNL1       -0.1659
     13 F           2.2022   -2.6148    0.5430 F       1  UNL1       -0.1659
     14 F           3.8631   -1.6195   -0.5468 F       1  UNL1       -0.1659
     15 C          -1.5299    0.0244   -0.9675 C.3     1  UNL1        0.0185
     16 N          -2.8879   -0.4110   -1.0841 N.3     1  UNL1       -0.3262
     17 H          -1.8862    2.0002   -0.0442 H       1  UNL1        0.0364
     18 H          -1.7074    0.6423    2.3015 H       1  UNL1        0.0272
     19 H          -3.0101    0.1066    1.1138 H       1  UNL1        0.0272
     20 H          -2.0301   -1.9239    1.0582 H       1  UNL1        0.0272
     21 H          -0.5246   -1.3237    1.8470 H       1  UNL1        0.0272
     22 H          -0.4881   -1.9064   -0.8423 H       1  UNL1        0.0364
     23 H           3.8215    0.5187   -0.0163 H       1  UNL1        0.0623
     24 H           3.0821    2.7522    0.4779 H       1  UNL1        0.0618
     25 H           0.6153    3.1928    0.6002 H       1  UNL1        0.0620
     26 H          -1.1090    0.4424   -1.8987 H       1  UNL1        0.0470
     27 H          -3.4550    0.4659   -1.2738 H       1  UNL1        0.1185
     28 H          -2.9555   -1.0708   -1.8744 H       1  UNL1        0.1185
@<TRIPOS>BOND
     1     1     2    1
     2     2     3    1
     3     3     4    1
     4     4     5    1
     5     5     6   ar
     6     6     7   ar
     7     7     8   ar
     8     8     9   ar
     9     9    10   ar
    10     6    11    1
    11    11    12    1
    12    11    13    1
    13    11    14    1
    14     4    15    1
    15    15    16    1
    16    10     1    1
    17    15     1    1
    18    10     5   ar
    19     1    17    1
    20     2    18    1
    21     2    19    1
    22     3    20    1
    23     3    21    1
    24     4    22    1
    25     7    23    1
    26     8    24    1
    27     9    25    1
    28    15    26    1
    29    16    27    1
    30    16    28    1
