
     RDKit          3D

 28 30  0  0  0  0  0  0  0  0999 V2000
   -1.3948    1.0651    0.1584 C   0  0  1  0  0  0  0  0  0  0  0  0
   -1.9275    0.2653    1.3003 C   0  0  0  0  0  0  0  0  0  0  0  0
   -1.2816   -1.1046    1.0577 C   0  0  0  0  0  0  0  0  0  0  0  0
   -0.6147   -0.9855   -0.2964 C   0  0  2  0  0  0  0  0  0  0  0  0
    0.5784   -0.1463   -0.1264 C   0  0  0  0  0  0  0  0  0  0  0  0
    1.9298   -0.3994   -0.1960 C   0  0  0  0  0  0  0  0  0  0  0  0
    2.7440    0.7029    0.0353 C   0  0  0  0  0  0  0  0  0  0  0  0
    2.3305    1.9898    0.3199 C   0  0  0  0  0  0  0  0  0  0  0  0
    0.9653    2.1931    0.3788 C   0  0  0  0  0  0  0  0  0  0  0  0
    0.0993    1.1418    0.1591 C   0  0  0  0  0  0  0  0  0  0  0  0
    2.4661   -1.7279   -0.4909 C   0  0  0  0  0  0  0  0  0  0  0  0
    2.1047   -2.2697   -1.6935 F   0  0  0  0  0  0  0  0  0  0  0  0
    2.2022   -2.6148    0.5430 F   0  0  0  0  0  0  0  0  0  0  0  0
    3.8631   -1.6195   -0.5468 F   0  0  0  0  0  0  0  0  0  0  0  0
   -1.5299    0.0244   -0.9675 C   0  0  1  0  0  0  0  0  0  0  0  0
   -2.8879   -0.4110   -1.0841 N   0  0  0  0  0  0  0  0  0  0  0  0
   -1.8862    2.0002   -0.0442 H   0  0  0  0  0  0  0  0  0  0  0  0
   -1.7074    0.6423    2.3015 H   0  0  0  0  0  0  0  0  0  0  0  0
   -3.0101    0.1066    1.1138 H   0  0  0  0  0  0  0  0  0  0  0  0
   -2.0301   -1.9239    1.0582 H   0  0  0  0  0  0  0  0  0  0  0  0
   -0.5246   -1.3237    1.8470 H   0  0  0  0  0  0  0  0  0  0  0  0
   -0.4881   -1.9064   -0.8423 H   0  0  0  0  0  0  0  0  0  0  0  0
    3.8215    0.5187   -0.0163 H   0  0  0  0  0  0  0  0  0  0  0  0
    3.0821    2.7522    0.4779 H   0  0  0  0  0  0  0  0  0  0  0  0
    0.6153    3.1928    0.6002 H   0  0  0  0  0  0  0  0  0  0  0  0
   -1.1090    0.4424   -1.8987 H   0  0  0  0  0  0  0  0  0  0  0  0
   -3.4550    0.4659   -1.2738 H   0  0  0  0  0  0  0  0  0  0  0  0
   -2.9555   -1.0708   -1.8744 H   0  0  0  0  0  0  0  0  0  0  0  0
  1  2  1  0
  2  3  1  0
  3  4  1  0
  4  5  1  0
  5  6  2  0
  6  7  1  0
  7  8  2  0
  8  9  1  0
  9 10  2  0
  6 11  1  0
 11 12  1  0
 11 13  1  0
 11 14  1  0
  4 15  1  0
 15 16  1  0
 10  1  1  0
 15  1  1  0
 10  5  1  0
  1 17  1  6
  2 18  1  0
  2 19  1  0
  3 20  1  0
  3 21  1  0
  4 22  1  6
  7 23  1  0
  8 24  1  0
  9 25  1  0
 15 26  1  6
 16 27  1  0
 16 28  1  0
M  END
$$$$
