
     RDKit          3D

 30 32  0  0  0  0  0  0  0  0999 V2000
   -0.2849   -0.2614    1.9612 O   0  0  0  0  0  0  0  0  0  0  0  0
   -0.6682   -0.1822    0.7783 C   0  0  0  0  0  0  0  0  0  0  0  0
    0.2374   -0.0930   -0.2540 C   0  0  0  0  0  0  0  0  0  0  0  0
    1.6833   -0.0859   -0.0267 C   0  0  0  0  0  0  0  0  0  0  0  0
    2.1894   -1.0190    0.8701 C   0  0  0  0  0  0  0  0  0  0  0  0
    3.5584   -0.9935    1.0689 C   0  0  0  0  0  0  0  0  0  0  0  0
    4.3877   -0.1013    0.4233 C   0  0  0  0  0  0  0  0  0  0  0  0
    5.7529   -0.1475    0.6841 O   0  0  0  0  0  0  0  0  0  0  0  0
    3.8456    0.8098   -0.4601 C   0  0  0  0  0  0  0  0  0  0  0  0
    4.6686    1.7164   -1.1192 O   0  0  0  0  0  0  0  0  0  0  0  0
    2.4842    0.8153   -0.6847 C   0  0  0  0  0  0  0  0  0  0  0  0
   -0.2749   -0.0091   -1.5319 C   0  0  0  0  0  0  0  0  0  0  0  0
   -1.5548   -0.0100   -1.8065 O   0  0  0  0  0  0  0  0  0  0  0  0
   -2.4631   -0.0940   -0.8471 C   0  0  0  0  0  0  0  0  0  0  0  0
   -3.8188   -0.0937   -1.1567 C   0  0  0  0  0  0  0  0  0  0  0  0
   -4.7330   -0.1826   -0.1311 C   0  0  0  0  0  0  0  0  0  0  0  0
   -6.1178   -0.1866   -0.3872 O   0  0  0  0  0  0  0  0  0  0  0  0
   -4.3011   -0.2695    1.1700 C   0  0  0  0  0  0  0  0  0  0  0  0
   -2.9625   -0.2699    1.4768 C   0  0  0  0  0  0  0  0  0  0  0  0
   -2.0212   -0.1811    0.4584 C   0  0  0  0  0  0  0  0  0  0  0  0
    1.5307   -1.7087    1.3662 H   0  0  0  0  0  0  0  0  0  0  0  0
    3.9950   -1.7075    1.7630 H   0  0  0  0  0  0  0  0  0  0  0  0
    6.3806    0.4821    0.2058 H   0  0  0  0  0  0  0  0  0  0  0  0
    4.2989    2.2300   -1.9166 H   0  0  0  0  0  0  0  0  0  0  0  0
    2.0121    1.5222   -1.3784 H   0  0  0  0  0  0  0  0  0  0  0  0
    0.4648    0.0618   -2.3466 H   0  0  0  0  0  0  0  0  0  0  0  0
   -4.1281   -0.0245   -2.1851 H   0  0  0  0  0  0  0  0  0  0  0  0
   -6.5137    0.6602   -0.7765 H   0  0  0  0  0  0  0  0  0  0  0  0
   -5.0376   -0.3392    1.9708 H   0  0  0  0  0  0  0  0  0  0  0  0
   -2.6098   -0.3376    2.4947 H   0  0  0  0  0  0  0  0  0  0  0  0
  1  2  2  0
  2  3  1  0
  3  4  1  0
  4  5  2  0
  5  6  1  0
  6  7  2  0
  7  8  1  0
  7  9  1  0
  9 10  1  0
  9 11  2  0
  3 12  2  0
 12 13  1  0
 13 14  1  0
 14 15  2  0
 15 16  1  0
 16 17  1  0
 16 18  2  0
 18 19  1  0
 19 20  2  0
 20  2  1  0
 11  4  1  0
 20 14  1  0
  5 21  1  0
  6 22  1  0
  8 23  1  0
 10 24  1  0
 11 25  1  0
 12 26  1  0
 15 27  1  0
 17 28  1  0
 18 29  1  0
 19 30  1  0
M  END
$$$$
