@<TRIPOS>MOLECULE
*****
 30 32 0 0 0
SMALL
GASTEIGER

@<TRIPOS>ATOM
      1 O          -0.2849   -0.2614    1.9612 O.2     1  UNL1       -0.2864
      2 C          -0.6682   -0.1822    0.7783 C.ar    1  UNL1        0.2001
      3 C           0.2374   -0.0930   -0.2540 C.ar    1  UNL1        0.0644
      4 C           1.6833   -0.0859   -0.0267 C.ar    1  UNL1       -0.0076
      5 C           2.1894   -1.0190    0.8701 C.ar    1  UNL1       -0.0501
      6 C           3.5584   -0.9935    1.0689 C.ar    1  UNL1       -0.0160
      7 C           4.3877   -0.1013    0.4233 C.ar    1  UNL1        0.1582
      8 O           5.7529   -0.1475    0.6841 O.3     1  UNL1       -0.5033
      9 C           3.8456    0.8098   -0.4601 C.ar    1  UNL1        0.1588
     10 O           4.6686    1.7164   -1.1192 O.3     1  UNL1       -0.5033
     11 C           2.4842    0.8153   -0.6847 C.ar    1  UNL1       -0.0086
     12 C          -0.2749   -0.0091   -1.5319 C.ar    1  UNL1        0.1038
     13 O          -1.5548   -0.0100   -1.8065 O.2     1  UNL1       -0.4620
     14 C          -2.4631   -0.0940   -0.8471 C.ar    1  UNL1        0.1419
     15 C          -3.8188   -0.0937   -1.1567 C.ar    1  UNL1        0.0228
     16 C          -4.7330   -0.1826   -0.1311 C.ar    1  UNL1        0.1204
     17 O          -6.1178   -0.1866   -0.3872 O.3     1  UNL1       -0.5066
     18 C          -4.3011   -0.2695    1.1700 C.ar    1  UNL1       -0.0193
     19 C          -2.9625   -0.2699    1.4768 C.ar    1  UNL1       -0.0439
     20 C          -2.0212   -0.1811    0.4584 C.ar    1  UNL1        0.0648
     21 H           1.5307   -1.7087    1.3662 H       1  UNL1        0.0625
     22 H           3.9950   -1.7075    1.7630 H       1  UNL1        0.0655
     23 H           6.3806    0.4821    0.2058 H       1  UNL1        0.2923
     24 H           4.2989    2.2300   -1.9166 H       1  UNL1        0.2923
     25 H           2.0121    1.5222   -1.3784 H       1  UNL1        0.0661
     26 H           0.4648    0.0618   -2.3466 H       1  UNL1        0.1037
     27 H          -4.1281   -0.0245   -2.1851 H       1  UNL1        0.0691
     28 H          -6.5137    0.6602   -0.7765 H       1  UNL1        0.2921
     29 H          -5.0376   -0.3392    1.9708 H       1  UNL1        0.0654
     30 H          -2.6098   -0.3376    2.4947 H       1  UNL1        0.0627
@<TRIPOS>BOND
     1     1     2    2
     2     2     3   ar
     3     3     4    1
     4     4     5   ar
     5     5     6   ar
     6     6     7   ar
     7     7     8    1
     8     7     9   ar
     9     9    10    1
    10     9    11   ar
    11     3    12   ar
    12    12    13   ar
    13    13    14   ar
    14    14    15   ar
    15    15    16   ar
    16    16    17    1
    17    16    18   ar
    18    18    19   ar
    19    19    20   ar
    20    20     2   ar
    21    11     4   ar
    22    20    14   ar
    23     5    21    1
    24     6    22    1
    25     8    23    1
    26    10    24    1
    27    11    25    1
    28    12    26    1
    29    15    27    1
    30    17    28    1
    31    18    29    1
    32    19    30    1
