
     RDKit          3D

 69 74  0  0  0  0  0  0  0  0999 V2000
    0.8758    5.7806    0.2821 C   0  0  0  0  0  0  0  0  0  0  0  0
    1.3369    4.7876   -0.5456 C   0  0  0  0  0  0  0  0  0  0  0  0
    0.4342    3.9886   -1.2511 C   0  0  0  0  0  0  0  0  0  0  0  0
   -0.9183    4.1549   -1.1518 C   0  0  0  0  0  0  0  0  0  0  0  0
   -1.8434    3.3080   -1.8982 C   0  0  0  0  0  0  0  0  0  0  0  0
   -2.5824    2.3682   -1.0742 N   0  0  0  0  0  0  0  0  0  0  0  0
   -3.7420    2.7502   -0.4761 N   0  0  0  0  0  0  0  0  0  0  0  0
   -4.1692    1.7003    0.1862 N   0  0  0  0  0  0  0  0  0  0  0  0
   -3.3418    0.6969    0.0307 N   0  0  0  0  0  0  0  0  0  0  0  0
   -2.3482    1.1064   -0.7552 C   0  0  0  0  0  0  0  0  0  0  0  0
   -1.2173    0.2576   -1.1715 C   0  0  0  0  0  0  0  0  0  0  0  0
   -1.4095   -1.1683   -0.7873 C   0  0  0  0  0  0  0  0  0  0  0  0
   -1.1345   -2.2037   -1.6758 C   0  0  0  0  0  0  0  0  0  0  0  0
   -1.3106   -3.5281   -1.3453 C   0  0  0  0  0  0  0  0  0  0  0  0
   -1.7737   -3.8852   -0.1021 C   0  0  0  0  0  0  0  0  0  0  0  0
   -1.9725   -5.3266    0.2768 C   0  0  0  0  0  0  0  0  0  0  0  0
   -3.3080   -5.7020   -0.0797 N   0  0  0  0  0  0  0  0  0  0  0  0
   -4.3867   -5.6036    0.7007 C   0  0  0  0  0  0  0  0  0  0  0  0
   -5.4320   -6.0501    0.0169 N   0  0  0  0  0  0  0  0  0  0  0  0
   -5.0089   -6.4285   -1.1922 C   0  0  0  0  0  0  0  0  0  0  0  0
   -3.6892   -6.2053   -1.2336 N   0  0  0  0  0  0  0  0  0  0  0  0
   -2.0534   -2.8847    0.7952 C   0  0  0  0  0  0  0  0  0  0  0  0
   -1.8697   -1.5436    0.4458 C   0  0  0  0  0  0  0  0  0  0  0  0
    0.0935    0.7728   -0.8624 N   0  0  0  0  0  0  0  0  0  0  0  0
    1.0517   -0.1466   -1.4094 C   0  0  0  0  0  0  0  0  0  0  0  0
    2.4786    0.2850   -1.2564 C   0  0  0  0  0  0  0  0  0  0  0  0
    3.1015   -0.1666    0.0466 C   0  0  0  0  0  0  0  0  0  0  0  0
    2.3501    0.2336    1.1958 N   0  0  0  0  0  0  0  0  0  0  0  0
    3.0902    0.2610    2.4163 C   0  0  0  0  0  0  0  0  0  0  0  0
    4.2781    1.1841    2.4729 C   0  0  0  0  0  0  0  0  0  0  0  0
    5.1747   -0.0282    2.5708 C   0  0  0  0  0  0  0  0  0  0  0  0
    3.9654   -0.9322    2.6068 C   0  0  0  0  0  0  0  0  0  0  0  0
    1.5841    1.4470    0.9758 C   0  0  0  0  0  0  0  0  0  0  0  0
    0.2075    1.0041    0.5280 C   0  0  0  0  0  0  0  0  0  0  0  0
   -1.3774    5.1724   -0.3033 C   0  0  0  0  0  0  0  0  0  0  0  0
   -0.4901    5.9603    0.3921 C   0  0  0  0  0  0  0  0  0  0  0  0
    1.5760    6.3929    0.8231 H   0  0  0  0  0  0  0  0  0  0  0  0
    2.3878    4.6013   -0.6715 H   0  0  0  0  0  0  0  0  0  0  0  0
    0.8153    3.2190   -1.9024 H   0  0  0  0  0  0  0  0  0  0  0  0
   -2.5299    3.8825   -2.5592 H   0  0  0  0  0  0  0  0  0  0  0  0
   -1.2519    2.6608   -2.6072 H   0  0  0  0  0  0  0  0  0  0  0  0
   -1.3327    0.2388   -2.3285 H   0  0  0  0  0  0  0  0  0  0  0  0
   -0.7713   -1.9757   -2.6627 H   0  0  0  0  0  0  0  0  0  0  0  0
   -1.0949   -4.3306   -2.0411 H   0  0  0  0  0  0  0  0  0  0  0  0
   -1.2378   -5.9575   -0.2664 H   0  0  0  0  0  0  0  0  0  0  0  0
   -1.7570   -5.4402    1.3660 H   0  0  0  0  0  0  0  0  0  0  0  0
   -4.3882   -5.2266    1.7032 H   0  0  0  0  0  0  0  0  0  0  0  0
   -5.6154   -6.8436   -2.0039 H   0  0  0  0  0  0  0  0  0  0  0  0
   -2.4139   -3.1736    1.7616 H   0  0  0  0  0  0  0  0  0  0  0  0
   -2.1309   -0.8524    1.2428 H   0  0  0  0  0  0  0  0  0  0  0  0
    0.9466   -1.1276   -0.9596 H   0  0  0  0  0  0  0  0  0  0  0  0
    0.8473   -0.2319   -2.4959 H   0  0  0  0  0  0  0  0  0  0  0  0
    3.0512   -0.2674   -2.0630 H   0  0  0  0  0  0  0  0  0  0  0  0
    2.6397    1.3512   -1.4771 H   0  0  0  0  0  0  0  0  0  0  0  0
    3.2247   -1.2655   -0.0197 H   0  0  0  0  0  0  0  0  0  0  0  0
    4.1369    0.2516    0.0830 H   0  0  0  0  0  0  0  0  0  0  0  0
    2.3826    0.4273    3.2735 H   0  0  0  0  0  0  0  0  0  0  0  0
    4.4669    1.7876    1.5528 H   0  0  0  0  0  0  0  0  0  0  0  0
    4.2890    1.7844    3.4232 H   0  0  0  0  0  0  0  0  0  0  0  0
    5.7673   -0.0415    3.5275 H   0  0  0  0  0  0  0  0  0  0  0  0
    5.8465   -0.1981    1.7077 H   0  0  0  0  0  0  0  0  0  0  0  0
    3.7972   -1.4114    3.6021 H   0  0  0  0  0  0  0  0  0  0  0  0
    3.9460   -1.7134    1.8351 H   0  0  0  0  0  0  0  0  0  0  0  0
    1.4880    1.9347    1.9682 H   0  0  0  0  0  0  0  0  0  0  0  0
    2.0740    2.1515    0.3094 H   0  0  0  0  0  0  0  0  0  0  0  0
   -0.0256    0.1124    1.1688 H   0  0  0  0  0  0  0  0  0  0  0  0
   -0.4995    1.8058    0.8156 H   0  0  0  0  0  0  0  0  0  0  0  0
   -2.4368    5.2983   -0.2290 H   0  0  0  0  0  0  0  0  0  0  0  0
   -0.8411    6.7402    1.0423 H   0  0  0  0  0  0  0  0  0  0  0  0
  1  2  2  0
  2  3  1  0
  3  4  2  0
  4  5  1  0
  5  6  1  0
  6  7  1  0
  7  8  2  0
  8  9  1  0
  9 10  2  0
 10 11  1  0
 11 12  1  0
 12 13  2  0
 13 14  1  0
 14 15  2  0
 15 16  1  0
 16 17  1  0
 17 18  1  0
 18 19  2  0
 19 20  1  0
 20 21  2  0
 15 22  1  0
 22 23  2  0
 11 24  1  0
 24 25  1  0
 25 26  1  0
 26 27  1  0
 27 28  1  0
 28 29  1  0
 29 30  1  0
 30 31  1  0
 31 32  1  0
 28 33  1  0
 33 34  1  0
  4 35  1  0
 35 36  2  0
 36  1  1  0
 10  6  1  0
 23 12  1  0
 34 24  1  0
 21 17  1  0
 32 29  1  0
  1 37  1  0
  2 38  1  0
  3 39  1  0
  5 40  1  0
  5 41  1  0
 11 42  1  0
 13 43  1  0
 14 44  1  0
 16 45  1  0
 16 46  1  0
 18 47  1  0
 20 48  1  0
 22 49  1  0
 23 50  1  0
 25 51  1  0
 25 52  1  0
 26 53  1  0
 26 54  1  0
 27 55  1  0
 27 56  1  0
 29 57  1  0
 30 58  1  0
 30 59  1  0
 31 60  1  0
 31 61  1  0
 32 62  1  0
 32 63  1  0
 33 64  1  0
 33 65  1  0
 34 66  1  0
 34 67  1  0
 35 68  1  0
 36 69  1  0
M  END
$$$$
