@<TRIPOS>MOLECULE
*****
 69 74 0 0 0
SMALL
GASTEIGER

@<TRIPOS>ATOM
      1 C           0.8758    5.7806    0.2821 C.ar    1  UNL1       -0.0617
      2 C           1.3369    4.7876   -0.5456 C.ar    1  UNL1       -0.0614
      3 C           0.4342    3.9886   -1.2511 C.ar    1  UNL1       -0.0568
      4 C          -0.9183    4.1549   -1.1518 C.ar    1  UNL1       -0.0260
      5 C          -1.8434    3.3080   -1.8982 C.3     1  UNL1        0.0702
      6 N          -2.5824    2.3682   -1.0742 N.ar    1  UNL1       -0.2230
      7 N          -3.7420    2.7502   -0.4761 N.ar    1  UNL1       -0.0435
      8 N          -4.1692    1.7003    0.1862 N.ar    1  UNL1       -0.0230
      9 N          -3.3418    0.6969    0.0307 N.ar    1  UNL1       -0.1114
     10 C          -2.3482    1.1064   -0.7552 C.ar    1  UNL1        0.1732
     11 C          -1.2173    0.2576   -1.1715 C.3     1  UNL1        0.0976
     12 C          -1.4095   -1.1683   -0.7873 C.ar    1  UNL1       -0.0228
     13 C          -1.1345   -2.2037   -1.6758 C.ar    1  UNL1       -0.0563
     14 C          -1.3106   -3.5281   -1.3453 C.ar    1  UNL1       -0.0565
     15 C          -1.7737   -3.8852   -0.1021 C.ar    1  UNL1       -0.0261
     16 C          -1.9725   -5.3266    0.2768 C.3     1  UNL1        0.0682
     17 N          -3.3080   -5.7020   -0.0797 N.ar    1  UNL1       -0.2477
     18 C          -4.3867   -5.6036    0.7007 C.ar    1  UNL1        0.1146
     19 N          -5.4320   -6.0501    0.0169 N.ar    1  UNL1       -0.2228
     20 C          -5.0089   -6.4285   -1.1922 C.ar    1  UNL1        0.1380
     21 N          -3.6892   -6.2053   -1.2336 N.ar    1  UNL1       -0.1581
     22 C          -2.0534   -2.8847    0.7952 C.ar    1  UNL1       -0.0565
     23 C          -1.8697   -1.5436    0.4458 C.ar    1  UNL1       -0.0563
     24 N           0.0935    0.7728   -0.8624 N.3     1  UNL1       -0.2878
     25 C           1.0517   -0.1466   -1.4094 C.3     1  UNL1        0.0011
     26 C           2.4786    0.2850   -1.2564 C.3     1  UNL1       -0.0273
     27 C           3.1015   -0.1666    0.0466 C.3     1  UNL1        0.0004
     28 N           2.3501    0.2336    1.1958 N.3     1  UNL1       -0.2981
     29 C           3.0902    0.2610    2.4163 C.3     1  UNL1        0.0105
     30 C           4.2781    1.1841    2.4729 C.3     1  UNL1       -0.0373
     31 C           5.1747   -0.0282    2.5708 C.3     1  UNL1       -0.0502
     32 C           3.9654   -0.9322    2.6068 C.3     1  UNL1       -0.0373
     33 C           1.5841    1.4470    0.9758 C.3     1  UNL1        0.0120
     34 C           0.2075    1.0041    0.5280 C.3     1  UNL1        0.0126
     35 C          -1.3774    5.1724   -0.3033 C.ar    1  UNL1       -0.0568
     36 C          -0.4901    5.9603    0.3921 C.ar    1  UNL1       -0.0614
     37 H           1.5760    6.3929    0.8231 H       1  UNL1        0.0618
     38 H           2.3878    4.6013   -0.6715 H       1  UNL1        0.0618
     39 H           0.8153    3.2190   -1.9024 H       1  UNL1        0.0621
     40 H          -2.5299    3.8825   -2.5592 H       1  UNL1        0.0560
     41 H          -1.2519    2.6608   -2.6072 H       1  UNL1        0.0560
     42 H          -1.3327    0.2388   -2.3285 H       1  UNL1        0.0594
     43 H          -0.7713   -1.9757   -2.6627 H       1  UNL1        0.0621
     44 H          -1.0949   -4.3306   -2.0411 H       1  UNL1        0.0621
     45 H          -1.2378   -5.9575   -0.2664 H       1  UNL1        0.0559
     46 H          -1.7570   -5.4402    1.3660 H       1  UNL1        0.0559
     47 H          -4.3882   -5.2266    1.7032 H       1  UNL1        0.1044
     48 H          -5.6154   -6.8436   -2.0039 H       1  UNL1        0.1065
     49 H          -2.4139   -3.1736    1.7616 H       1  UNL1        0.0621
     50 H          -2.1309   -0.8524    1.2428 H       1  UNL1        0.0621
     51 H           0.9466   -1.1276   -0.9596 H       1  UNL1        0.0427
     52 H           0.8473   -0.2319   -2.4959 H       1  UNL1        0.0427
     53 H           3.0512   -0.2674   -2.0630 H       1  UNL1        0.0290
     54 H           2.6397    1.3512   -1.4771 H       1  UNL1        0.0290
     55 H           3.2247   -1.2655   -0.0197 H       1  UNL1        0.0427
     56 H           4.1369    0.2516    0.0830 H       1  UNL1        0.0427
     57 H           2.3826    0.4273    3.2735 H       1  UNL1        0.0462
     58 H           4.4669    1.7876    1.5528 H       1  UNL1        0.0280
     59 H           4.2890    1.7844    3.4232 H       1  UNL1        0.0280
     60 H           5.7673   -0.0415    3.5275 H       1  UNL1        0.0266
     61 H           5.8465   -0.1981    1.7077 H       1  UNL1        0.0266
     62 H           3.7972   -1.4114    3.6021 H       1  UNL1        0.0280
     63 H           3.9460   -1.7134    1.8351 H       1  UNL1        0.0280
     64 H           1.4880    1.9347    1.9682 H       1  UNL1        0.0439
     65 H           2.0740    2.1515    0.3094 H       1  UNL1        0.0439
     66 H          -0.0256    0.1124    1.1688 H       1  UNL1        0.0439
     67 H          -0.4995    1.8058    0.8156 H       1  UNL1        0.0439
     68 H          -2.4368    5.2983   -0.2290 H       1  UNL1        0.0621
     69 H          -0.8411    6.7402    1.0423 H       1  UNL1        0.0618
@<TRIPOS>BOND
     1     1     2   ar
     2     2     3   ar
     3     3     4   ar
     4     4     5    1
     5     5     6    1
     6     6     7   ar
     7     7     8   ar
     8     8     9   ar
     9     9    10   ar
    10    10    11    1
    11    11    12    1
    12    12    13   ar
    13    13    14   ar
    14    14    15   ar
    15    15    16    1
    16    16    17    1
    17    17    18   ar
    18    18    19   ar
    19    19    20   ar
    20    20    21   ar
    21    15    22   ar
    22    22    23   ar
    23    11    24    1
    24    24    25    1
    25    25    26    1
    26    26    27    1
    27    27    28    1
    28    28    29    1
    29    29    30    1
    30    30    31    1
    31    31    32    1
    32    28    33    1
    33    33    34    1
    34     4    35   ar
    35    35    36   ar
    36    36     1   ar
    37    10     6   ar
    38    23    12   ar
    39    34    24    1
    40    21    17   ar
    41    32    29    1
    42     1    37    1
    43     2    38    1
    44     3    39    1
    45     5    40    1
    46     5    41    1
    47    11    42    1
    48    13    43    1
    49    14    44    1
    50    16    45    1
    51    16    46    1
    52    18    47    1
    53    20    48    1
    54    22    49    1
    55    23    50    1
    56    25    51    1
    57    25    52    1
    58    26    53    1
    59    26    54    1
    60    27    55    1
    61    27    56    1
    62    29    57    1
    63    30    58    1
    64    30    59    1
    65    31    60    1
    66    31    61    1
    67    32    62    1
    68    32    63    1
    69    33    64    1
    70    33    65    1
    71    34    66    1
    72    34    67    1
    73    35    68    1
    74    36    69    1
