
     RDKit          3D

 57 59  0  0  0  0  0  0  0  0999 V2000
   -4.2797   -0.9494    1.7654 C   0  0  0  0  0  0  0  0  0  0  0  0
   -4.0214    0.1257    0.7742 C   0  0  1  0  0  0  0  0  0  0  0  0
   -3.3260   -0.2942   -0.4682 C   0  0  0  0  0  0  0  0  0  0  0  0
   -1.9410   -0.8996   -0.1896 C   0  0  1  0  0  0  0  0  0  0  0  0
   -1.4164   -1.2510   -1.5427 C   0  0  0  0  0  0  0  0  0  0  0  0
    0.1549   -1.9890   -1.6323 S   0  0  0  0  0  6  0  0  0  0  0  0
    0.1644   -3.4044   -1.1027 O   0  0  0  0  0  0  0  0  0  0  0  0
    0.4601   -2.1568   -3.1219 O   0  0  0  0  0  0  0  0  0  0  0  0
    1.4353   -1.0642   -0.9900 N   0  0  0  0  0  0  0  0  0  0  0  0
    2.0882   -1.6412    0.1503 C   0  0  0  0  0  0  0  0  0  0  0  0
    3.0227   -0.6089    0.7862 C   0  0  0  0  0  0  0  0  0  0  0  0
    4.0197   -0.2862   -0.2156 N   0  0  0  0  0  0  0  0  0  0  0  0
    5.1519    0.4746    0.1695 C   0  0  0  0  0  0  0  0  0  0  0  0
    6.2057    0.7482   -0.6519 C   0  0  0  0  0  0  0  0  0  0  0  0
    7.3156    1.5010   -0.2701 C   0  0  0  0  0  0  0  0  0  0  0  0
    7.3667    2.0041    1.0051 C   0  0  0  0  0  0  0  0  0  0  0  0
    8.4360    2.7482    1.4239 F   0  0  0  0  0  0  0  0  0  0  0  0
    6.3099    1.7358    1.8458 C   0  0  0  0  0  0  0  0  0  0  0  0
    5.2242    0.9975    1.4667 C   0  0  0  0  0  0  0  0  0  0  0  0
    3.8165   -0.7514   -1.5577 C   0  0  0  0  0  0  0  0  0  0  0  0
    2.3626   -0.5385   -1.9265 C   0  0  0  0  0  0  0  0  0  0  0  0
   -1.1392    0.0311    0.5578 N   0  0  0  0  0  0  0  0  0  0  0  0
   -0.8146    1.2275   -0.0071 O   0  0  0  0  0  0  0  0  0  0  0  0
   -0.6506   -0.2114    1.8703 C   0  0  0  0  0  0  0  0  0  0  0  0
   -0.9251   -1.3098    2.4393 O   0  0  0  0  0  0  0  0  0  0  0  0
   -5.3149    0.7620    0.3581 C   0  0  0  0  0  0  0  0  0  0  0  0
   -6.2752    0.0563   -0.2653 N   0  0  0  0  0  0  0  0  0  0  0  0
   -7.4435    0.6014   -0.6490 C   0  0  0  0  0  0  0  0  0  0  0  0
   -7.7012    1.9351   -0.4097 C   0  0  0  0  0  0  0  0  0  0  0  0
   -8.8773    2.5184   -0.7867 F   0  0  0  0  0  0  0  0  0  0  0  0
   -6.7161    2.6587    0.2297 C   0  0  0  0  0  0  0  0  0  0  0  0
   -5.5654    2.0635    0.5921 N   0  0  0  0  0  0  0  0  0  0  0  0
   -3.6859   -1.8526    1.6713 H   0  0  0  0  0  0  0  0  0  0  0  0
   -4.2320   -0.5072    2.8000 H   0  0  0  0  0  0  0  0  0  0  0  0
   -5.3590   -1.2613    1.6603 H   0  0  0  0  0  0  0  0  0  0  0  0
   -3.4035    0.9176    1.2634 H   0  0  0  0  0  0  0  0  0  0  0  0
   -3.8697   -1.0056   -1.0907 H   0  0  0  0  0  0  0  0  0  0  0  0
   -3.1261    0.6127   -1.0765 H   0  0  0  0  0  0  0  0  0  0  0  0
   -2.1057   -1.8295    0.3846 H   0  0  0  0  0  0  0  0  0  0  0  0
   -1.3803   -0.3334   -2.2094 H   0  0  0  0  0  0  0  0  0  0  0  0
   -2.1383   -1.9204   -2.0867 H   0  0  0  0  0  0  0  0  0  0  0  0
    2.6641   -2.5409   -0.1677 H   0  0  0  0  0  0  0  0  0  0  0  0
    1.3907   -1.9589    0.9419 H   0  0  0  0  0  0  0  0  0  0  0  0
    2.3844    0.2758    1.0093 H   0  0  0  0  0  0  0  0  0  0  0  0
    3.4465   -1.0582    1.6879 H   0  0  0  0  0  0  0  0  0  0  0  0
    6.2090    0.3637   -1.6782 H   0  0  0  0  0  0  0  0  0  0  0  0
    8.1391    1.6992   -0.9542 H   0  0  0  0  0  0  0  0  0  0  0  0
    6.3762    2.1453    2.8474 H   0  0  0  0  0  0  0  0  0  0  0  0
    4.3925    0.7900    2.1380 H   0  0  0  0  0  0  0  0  0  0  0  0
    4.4370   -0.2430   -2.3230 H   0  0  0  0  0  0  0  0  0  0  0  0
    3.9768   -1.8514   -1.5565 H   0  0  0  0  0  0  0  0  0  0  0  0
    2.2224   -1.0781   -2.9065 H   0  0  0  0  0  0  0  0  0  0  0  0
    2.1775    0.5514   -2.1276 H   0  0  0  0  0  0  0  0  0  0  0  0
   -0.4568    1.0137   -0.9039 H   0  0  0  0  0  0  0  0  0  0  0  0
   -0.0572    0.4949    2.4049 H   0  0  0  0  0  0  0  0  0  0  0  0
   -8.2114    0.0238   -1.1511 H   0  0  0  0  0  0  0  0  0  0  0  0
   -6.9171    3.7192    0.4218 H   0  0  0  0  0  0  0  0  0  0  0  0
  1  2  1  0
  2  3  1  0
  3  4  1  0
  4  5  1  0
  5  6  1  0
  6  7  2  0
  6  8  2  0
  6  9  1  0
  9 10  1  0
 10 11  1  0
 11 12  1  0
 12 13  1  0
 13 14  2  0
 14 15  1  0
 15 16  2  0
 16 17  1  0
 16 18  1  0
 18 19  2  0
 12 20  1  0
 20 21  1  0
  4 22  1  0
 22 23  1  0
 22 24  1  0
 24 25  2  0
  2 26  1  0
 26 27  2  0
 27 28  1  0
 28 29  2  0
 29 30  1  0
 29 31  1  0
 31 32  2  0
 21  9  1  0
 32 26  1  0
 19 13  1  0
  1 33  1  0
  1 34  1  0
  1 35  1  0
  2 36  1  1
  3 37  1  0
  3 38  1  0
  4 39  1  1
  5 40  1  0
  5 41  1  0
 10 42  1  0
 10 43  1  0
 11 44  1  0
 11 45  1  0
 14 46  1  0
 15 47  1  0
 18 48  1  0
 19 49  1  0
 20 50  1  0
 20 51  1  0
 21 52  1  0
 21 53  1  0
 23 54  1  0
 24 55  1  0
 28 56  1  0
 31 57  1  0
M  END
$$$$
