@<TRIPOS>MOLECULE
*****
 57 59 0 0 0
SMALL
GASTEIGER

@<TRIPOS>ATOM
      1 C          -4.2797   -0.9494    1.7654 C.3     1  UNL1       -0.0554
      2 C          -4.0214    0.1257    0.7742 C.3     1  UNL1        0.0179
      3 C          -3.3260   -0.2942   -0.4682 C.3     1  UNL1       -0.0209
      4 C          -1.9410   -0.8996   -0.1896 C.3     1  UNL1        0.0740
      5 C          -1.4164   -1.2510   -1.5427 C.3     1  UNL1        0.1028
      6 S           0.1549   -1.9890   -1.6323 S.O2    1  UNL1        0.0337
      7 O           0.1644   -3.4044   -1.1027 O.2     1  UNL1       -0.1580
      8 O           0.4601   -2.1568   -3.1219 O.2     1  UNL1       -0.1580
      9 N           1.4353   -1.0642   -0.9900 N.3     1  UNL1       -0.1781
     10 C           2.0882   -1.6412    0.1503 C.3     1  UNL1        0.0359
     11 C           3.0227   -0.6089    0.7862 C.3     1  UNL1        0.0266
     12 N           4.0197   -0.2862   -0.2156 N.pl3   1  UNL1       -0.3273
     13 C           5.1519    0.4746    0.1695 C.ar    1  UNL1        0.0299
     14 C           6.2057    0.7482   -0.6519 C.ar    1  UNL1       -0.0379
     15 C           7.3156    1.5010   -0.2701 C.ar    1  UNL1       -0.0247
     16 C           7.3667    2.0041    1.0051 C.ar    1  UNL1        0.1235
     17 F           8.4360    2.7482    1.4239 F       1  UNL1       -0.2055
     18 C           6.3099    1.7358    1.8458 C.ar    1  UNL1       -0.0247
     19 C           5.2242    0.9975    1.4667 C.ar    1  UNL1       -0.0379
     20 C           3.8165   -0.7514   -1.5577 C.3     1  UNL1        0.0266
     21 C           2.3626   -0.5385   -1.9265 C.3     1  UNL1        0.0359
     22 N          -1.1392    0.0311    0.5578 N.am    1  UNL1       -0.1817
     23 O          -0.8146    1.2275   -0.0071 O.3     1  UNL1       -0.2924
     24 C          -0.6506   -0.2114    1.8703 C.2     1  UNL1        0.2253
     25 O          -0.9251   -1.3098    2.4393 O.2     1  UNL1       -0.2772
     26 C          -5.3149    0.7620    0.3581 C.ar    1  UNL1        0.1320
     27 N          -6.2752    0.0563   -0.2653 N.ar    1  UNL1       -0.2372
     28 C          -7.4435    0.6014   -0.6490 C.ar    1  UNL1        0.0663
     29 C          -7.7012    1.9351   -0.4097 C.ar    1  UNL1        0.1594
     30 F          -8.8773    2.5184   -0.7867 F       1  UNL1       -0.2023
     31 C          -6.7161    2.6587    0.2297 C.ar    1  UNL1        0.0663
     32 N          -5.5654    2.0635    0.5921 N.ar    1  UNL1       -0.2372
     33 H          -3.6859   -1.8526    1.6713 H       1  UNL1        0.0236
     34 H          -4.2320   -0.5072    2.8000 H       1  UNL1        0.0236
     35 H          -5.3590   -1.2613    1.6603 H       1  UNL1        0.0236
     36 H          -3.4035    0.9176    1.2634 H       1  UNL1        0.0377
     37 H          -3.8697   -1.0056   -1.0907 H       1  UNL1        0.0291
     38 H          -3.1261    0.6127   -1.0765 H       1  UNL1        0.0291
     39 H          -2.1057   -1.8295    0.3846 H       1  UNL1        0.0542
     40 H          -1.3803   -0.3334   -2.2094 H       1  UNL1        0.0535
     41 H          -2.1383   -1.9204   -2.0867 H       1  UNL1        0.0535
     42 H           2.6641   -2.5409   -0.1677 H       1  UNL1        0.0459
     43 H           1.3907   -1.9589    0.9419 H       1  UNL1        0.0459
     44 H           2.3844    0.2758    1.0093 H       1  UNL1        0.0477
     45 H           3.4465   -1.0582    1.6879 H       1  UNL1        0.0477
     46 H           6.2090    0.3637   -1.6782 H       1  UNL1        0.0637
     47 H           8.1391    1.6992   -0.9542 H       1  UNL1        0.0647
     48 H           6.3762    2.1453    2.8474 H       1  UNL1        0.0647
     49 H           4.3925    0.7900    2.1380 H       1  UNL1        0.0637
     50 H           4.4370   -0.2430   -2.3230 H       1  UNL1        0.0477
     51 H           3.9768   -1.8514   -1.5565 H       1  UNL1        0.0477
     52 H           2.2224   -1.0781   -2.9065 H       1  UNL1        0.0459
     53 H           2.1775    0.5514   -2.1276 H       1  UNL1        0.0459
     54 H          -0.4568    1.0137   -0.9039 H       1  UNL1        0.2417
     55 H          -0.0572    0.4949    2.4049 H       1  UNL1        0.1274
     56 H          -8.2114    0.0238   -1.1511 H       1  UNL1        0.0860
     57 H          -6.9171    3.7192    0.4218 H       1  UNL1        0.0860
@<TRIPOS>BOND
     1     1     2    1
     2     2     3    1
     3     3     4    1
     4     4     5    1
     5     5     6    1
     6     6     7    2
     7     6     8    2
     8     6     9    1
     9     9    10    1
    10    10    11    1
    11    11    12    1
    12    12    13    1
    13    13    14   ar
    14    14    15   ar
    15    15    16   ar
    16    16    17    1
    17    16    18   ar
    18    18    19   ar
    19    12    20    1
    20    20    21    1
    21     4    22    1
    22    22    23    1
    23    22    24   am
    24    24    25    2
    25     2    26    1
    26    26    27   ar
    27    27    28   ar
    28    28    29   ar
    29    29    30    1
    30    29    31   ar
    31    31    32   ar
    32    21     9    1
    33    32    26   ar
    34    19    13   ar
    35     1    33    1
    36     1    34    1
    37     1    35    1
    38     2    36    1
    39     3    37    1
    40     3    38    1
    41     4    39    1
    42     5    40    1
    43     5    41    1
    44    10    42    1
    45    10    43    1
    46    11    44    1
    47    11    45    1
    48    14    46    1
    49    15    47    1
    50    18    48    1
    51    19    49    1
    52    20    50    1
    53    20    51    1
    54    21    52    1
    55    21    53    1
    56    23    54    1
    57    24    55    1
    58    28    56    1
    59    31    57    1
