@<TRIPOS>MOLECULE
*****
 22 21 0 0 0
SMALL
GASTEIGER

@<TRIPOS>ATOM
      1 CA         -0.7484   -0.1569   -0.2369 C.3     1  MET1        0.1208
      2 CB          0.1673   -0.1948    0.9409 C.3     1  MET1       -0.0151
      3 CG          1.2971   -1.1770    0.7847 C.3     1  MET1       -0.0044
      4 SD          2.2633   -0.7067   -0.6698 S.3     1  MET1       -0.1641
      5 CE          3.0988    0.8639   -0.4621 C.3     1  MET1       -0.0181
      6 N          -1.7812    0.8419    0.0775 N.am    1  MET1       -0.3050
      7 C          -2.0872    2.0812   -0.5775 C.2     0  UNK0        0.2006
      8 O          -1.4704    2.5010   -1.5713 O.2     0  UNK0       -0.2795
      9 C          -1.3639   -1.4461   -0.5733 C.2     1  MET1        0.3253
     10 O          -2.7595   -1.5556   -0.5445 O.3     1  MET1       -0.4793
     11 OXT        -0.8236   -2.5557   -0.9087 O.2     1  MET1       -0.2489
     12 HA         -0.2124    0.2426   -1.1201 H       1  MET1        0.0614
     13 HB1         0.6154    0.8015    1.1043 H       1  MET1        0.0296
     14 HB2        -0.3943   -0.4153    1.8835 H       1  MET1        0.0296
     15 HG1         0.8927   -2.1918    0.6225 H       1  MET1        0.0377
     16 HG2         1.9206   -1.2452    1.6951 H       1  MET1        0.0377
     17 HE1         4.0547    0.8292    0.0615 H       1  MET1        0.0340
     18 HE2         2.4716    1.6302    0.0261 H       1  MET1        0.0340
     19 HE3         3.2988    1.2625   -1.4902 H       1  MET1        0.0340
     20 H          -2.2790    0.4618    0.9127 H       1  MET1        0.1492
     21 H          -2.9134    2.5774   -0.0860 H       0  UNK0        0.1251
     22 H          -3.2468   -2.4481   -0.4723 H       1  MET1        0.2951
@<TRIPOS>BOND
     1     1     2    1
     2     2     3    1
     3     3     4    1
     4     4     5    1
     5     1     6    1
     6     6     7   am
     7     7     8    2
     8     1     9    1
     9     9    10    1
    10     9    11    2
    11     1    12    1
    12     2    13    1
    13     2    14    1
    14     3    15    1
    15     3    16    1
    16     5    17    1
    17     5    18    1
    18     5    19    1
    19     6    20    1
    20     7    21    1
    21    10    22    1
