@<TRIPOS>MOLECULE
*****
 63 67 0 0 0
SMALL
GASTEIGER

@<TRIPOS>ATOM
      1 C           2.0725   -1.8420    2.3988 C.3     1  UNL1        0.0790
      2 O           1.2746   -1.4740    1.3209 O.3     1  UNL1       -0.4914
      3 C           1.7075   -0.5360    0.4031 C.ar    1  UNL1        0.1623
      4 C           2.9445    0.0424    0.5469 C.ar    1  UNL1       -0.0038
      5 C           3.4336    0.9821   -0.3304 C.ar    1  UNL1        0.0441
      6 C           4.6750    1.5591   -0.1729 C.ar    1  UNL1        0.1340
      7 N           5.4766    1.2009    0.9211 N.pl3   1  UNL1       -0.2988
      8 C           6.5083    0.2523    0.7758 C.ar    1  UNL1        0.0339
      9 C           6.8651   -0.2139   -0.4593 C.ar    1  UNL1       -0.0390
     10 C           7.9008   -1.1481   -0.5370 C.ar    1  UNL1       -0.0402
     11 C           8.5455   -1.5870    0.6054 C.ar    1  UNL1        0.0594
     12 CL          9.8396   -2.7545    0.4297 Cl      1  UNL1       -0.0820
     13 C           8.1831   -1.1142    1.8550 C.ar    1  UNL1        0.0610
     14 CL          9.0166   -1.6866    3.2882 Cl      1  UNL1       -0.0820
     15 C           7.1503   -0.1819    1.9388 C.ar    1  UNL1       -0.0207
     16 N           5.0988    2.4691   -1.0579 N.ar    1  UNL1       -0.2200
     17 C           4.3495    2.8535   -2.1156 C.ar    1  UNL1        0.1187
     18 N           3.1467    2.3067   -2.2786 N.ar    1  UNL1       -0.2352
     19 C           2.6742    1.3798   -1.4077 C.ar    1  UNL1        0.0797
     20 C           1.4120    0.7943   -1.5599 C.ar    1  UNL1        0.0098
     21 C           0.9228   -0.1381   -0.6917 C.ar    1  UNL1        0.1640
     22 O          -0.2974   -0.7101   -0.8221 O.3     1  UNL1       -0.4870
     23 C          -1.3106   -0.5030   -1.7336 C.3     1  UNL1        0.1022
     24 C          -1.9423    0.8692   -1.6930 C.3     1  UNL1        0.0304
     25 N          -2.4979    1.0878   -0.3829 N.3     1  UNL1       -0.3099
     26 C          -3.6310    0.2543   -0.1551 C.3     1  UNL1        0.0106
     27 C          -4.7394    0.5160   -1.1699 C.3     1  UNL1       -0.0218
     28 C          -6.0344   -0.0806   -0.6457 C.3     1  UNL1        0.0119
     29 C          -6.7501    0.9884    0.1421 C.3     1  UNL1       -0.0359
     30 C          -6.5567    0.5917    1.5972 C.3     1  UNL1       -0.0359
     31 C          -5.3785   -0.4020    1.4700 C.3     1  UNL1        0.0119
     32 C          -4.1678    0.4638    1.2737 C.3     1  UNL1       -0.0218
     33 N          -5.7160   -1.1409    0.2665 N.3     1  UNL1       -0.2994
     34 C          -6.7656   -2.0803    0.4642 C.3     1  UNL1       -0.0122
     35 H           3.0075   -2.3636    2.0787 H       1  UNL1        0.0660
     36 H           1.4880   -2.4913    3.1058 H       1  UNL1        0.0660
     37 H           2.4010   -0.9539    2.9727 H       1  UNL1        0.0660
     38 H           3.5621   -0.2599    1.3961 H       1  UNL1        0.0663
     39 H           5.2792    1.6669    1.8490 H       1  UNL1        0.1536
     40 H           6.3693    0.1233   -1.3536 H       1  UNL1        0.0636
     41 H           8.1550   -1.4922   -1.5347 H       1  UNL1        0.0633
     42 H           6.8549    0.1966    2.9055 H       1  UNL1        0.0651
     43 H           4.7606    3.5951   -2.8011 H       1  UNL1        0.1048
     44 H           0.8787    1.1423   -2.4369 H       1  UNL1        0.0677
     45 H          -2.1194   -1.2461   -1.5807 H       1  UNL1        0.0709
     46 H          -0.9465   -0.7247   -2.7847 H       1  UNL1        0.0709
     47 H          -2.7583    0.8457   -2.4731 H       1  UNL1        0.0457
     48 H          -1.2955    1.6946   -2.0010 H       1  UNL1        0.0457
     49 H          -1.7889    0.9241    0.3736 H       1  UNL1        0.1223
     50 H          -3.4398   -0.8370   -0.1984 H       1  UNL1        0.0461
     51 H          -4.4551   -0.1220   -2.0622 H       1  UNL1        0.0295
     52 H          -4.8319    1.5746   -1.4418 H       1  UNL1        0.0295
     53 H          -6.6855   -0.3925   -1.4935 H       1  UNL1        0.0463
     54 H          -6.2796    1.9996   -0.0362 H       1  UNL1        0.0281
     55 H          -7.7973    1.1007   -0.1379 H       1  UNL1        0.0281
     56 H          -7.4199    0.1176    2.0563 H       1  UNL1        0.0281
     57 H          -6.2581    1.4696    2.2017 H       1  UNL1        0.0281
     58 H          -5.3354   -1.0928    2.3115 H       1  UNL1        0.0463
     59 H          -3.3402    0.0975    1.9290 H       1  UNL1        0.0295
     60 H          -4.3377    1.5337    1.4660 H       1  UNL1        0.0295
     61 H          -6.7620   -2.7673   -0.4331 H       1  UNL1        0.0391
     62 H          -6.5353   -2.7237    1.3358 H       1  UNL1        0.0391
     63 H          -7.7795   -1.6333    0.4918 H       1  UNL1        0.0391
@<TRIPOS>BOND
     1     1     2    1
     2     2     3    1
     3     3     4   ar
     4     4     5   ar
     5     5     6   ar
     6     6     7    1
     7     7     8    1
     8     8     9   ar
     9     9    10   ar
    10    10    11   ar
    11    11    12    1
    12    11    13   ar
    13    13    14    1
    14    13    15   ar
    15     6    16   ar
    16    16    17   ar
    17    17    18   ar
    18    18    19   ar
    19    19    20   ar
    20    20    21   ar
    21    21    22    1
    22    22    23    1
    23    23    24    1
    24    24    25    1
    25    25    26    1
    26    26    27    1
    27    27    28    1
    28    28    29    1
    29    29    30    1
    30    30    31    1
    31    31    32    1
    32    31    33    1
    33    33    34    1
    34    21     3   ar
    35    32    26    1
    36    19     5   ar
    37    33    28    1
    38    15     8   ar
    39     1    35    1
    40     1    36    1
    41     1    37    1
    42     4    38    1
    43     7    39    1
    44     9    40    1
    45    10    41    1
    46    15    42    1
    47    17    43    1
    48    20    44    1
    49    23    45    1
    50    23    46    1
    51    24    47    1
    52    24    48    1
    53    25    49    1
    54    26    50    1
    55    27    51    1
    56    27    52    1
    57    28    53    1
    58    29    54    1
    59    29    55    1
    60    30    56    1
    61    30    57    1
    62    31    58    1
    63    32    59    1
    64    32    60    1
    65    34    61    1
    66    34    62    1
    67    34    63    1
