@<TRIPOS>MOLECULE
*****
 43 44 0 0 0
SMALL
GASTEIGER

@<TRIPOS>ATOM
      1 N1          6.6505   -1.1278    0.1458 N.3     1  <1>        -0.3184
      2 C1          5.6161   -0.2535    0.7028 C.3     1  <1>         0.1037
      3 C2          4.2590   -0.6294    0.1684 C.3     1  <1>        -0.0191
      4 C3          3.2094    0.2484    0.7407 C.3     1  <1>         0.0259
      5 C4          1.8378   -0.1143    0.2298 C.2     1  <1>         0.2137
      6 O1          1.8409   -1.0850   -0.5829 O.2     1  <1>        -0.2758
      7 N2          0.6577    0.5702    0.6247 N.am    1  <1>        -0.3021
      8 C5         -0.6138    0.1378    0.0672 C.3     1  <1>         0.1243
      9 C6         -1.4788   -0.4473    1.1350 C.3     1  <1>         0.0032
     10 C7         -2.7930   -0.9174    0.6984 C.ar    1  <1>        -0.0201
     11 C8         -3.1245   -2.2563    0.4544 C.ar    1  <1>         0.0060
     12 N3         -4.4145   -2.3764    0.0467 N.ar    1  <1>        -0.3604
     13 C9         -4.9631   -1.1395    0.0110 C.ar    1  <1>         0.0467
     14 C10        -6.2339   -0.7116   -0.3286 C.ar    1  <1>        -0.0378
     15 C11        -6.5399    0.6510   -0.2721 C.ar    1  <1>        -0.0598
     16 C12        -5.5347    1.5058    0.1273 C.ar    1  <1>        -0.0611
     17 C13        -4.2671    1.0868    0.4669 C.ar    1  <1>        -0.0523
     18 C14        -3.9735   -0.2687    0.4070 C.ar    1  <1>         0.0029
     19 C15        -1.2419    1.1366   -0.7930 C.2     1  <1>         0.3256
     20 O2         -1.8902    2.0425   -1.6204 O.3     1  <1>        -0.4793
     21 O3         -0.4638    2.1508   -0.8134 O.2     1  <1>        -0.2489
     22 C16         6.0249    1.1333    0.3073 C.2     1  <1>         0.3217
     23 O4          7.0354    1.6484   -0.4871 O.3     1  <1>        -0.4795
     24 O5          5.4885    2.2309    0.6424 O.2     1  <1>        -0.2493
     25 H1          6.2401   -2.0902    0.1557 H       1  <1>         0.1190
     26 H2          6.7770   -0.8237   -0.8531 H       1  <1>         0.1190
     27 H3          5.6826   -0.3103    1.8034 H       1  <1>         0.0574
     28 H4          4.2963   -0.6018   -0.9474 H       1  <1>         0.0290
     29 H5          4.0662   -1.6708    0.5060 H       1  <1>         0.0290
     30 H6          3.1712    0.0668    1.8371 H       1  <1>         0.0359
     31 H7          3.4076    1.3127    0.5649 H       1  <1>         0.0359
     32 H8          0.7585    1.3609    1.3051 H       1  <1>         0.1495
     33 H9         -0.3518   -0.7320   -0.6130 H       1  <1>         0.0618
     34 H10        -0.8989   -1.3153    1.5613 H       1  <1>         0.0337
     35 H11        -1.6038    0.2934    1.9526 H       1  <1>         0.0337
     36 H12        -2.4437   -3.0886    0.5745 H       1  <1>         0.0810
     37 H13        -4.8512   -3.3042   -0.1856 H       1  <1>         0.1653
     38 H14        -6.9430   -1.4735   -0.6285 H       1  <1>         0.0638
     39 H15        -7.5341    0.9278   -0.5441 H       1  <1>         0.0618
     40 H16        -5.7899    2.5754    0.1677 H       1  <1>         0.0618
     41 H17        -3.5416    1.7987    0.7718 H       1  <1>         0.0624
     42 H18        -2.3336    1.7777   -2.4833 H       1  <1>         0.2951
     43 H19         6.8046    2.0818   -1.3789 H       1  <1>         0.2951
@<TRIPOS>BOND
     1     1     2    1
     2     2     3    1
     3     3     4    1
     4     4     5    1
     5     5     6    2
     6     5     7   am
     7     7     8    1
     8     8     9    1
     9     9    10    1
    10    10    11   ar
    11    11    12   ar
    12    12    13   ar
    13    13    14   ar
    14    14    15   ar
    15    15    16   ar
    16    16    17   ar
    17    17    18   ar
    18     8    19    1
    19    19    20    1
    20    19    21    2
    21     2    22    1
    22    22    23    1
    23    22    24    2
    24    18    10   ar
    25    18    13   ar
    26     1    25    1
    27     1    26    1
    28     2    27    1
    29     3    28    1
    30     3    29    1
    31     4    30    1
    32     4    31    1
    33     7    32    1
    34     8    33    1
    35     9    34    1
    36     9    35    1
    37    11    36    1
    38    12    37    1
    39    14    38    1
    40    15    39    1
    41    16    40    1
    42    17    41    1
    43    20    42    1
    44    23    43    1
