
     RDKit          3D

 43 44  0  0  0  0  0  0  0  0999 V2000
    6.6505   -1.1278    0.1458 N   0  0  0  0  0  0  0  0  0  0  0  0
    5.6161   -0.2535    0.7028 C   0  0  2  0  0  0  0  0  0  0  0  0
    4.2590   -0.6294    0.1684 C   0  0  0  0  0  0  0  0  0  0  0  0
    3.2094    0.2484    0.7407 C   0  0  0  0  0  0  0  0  0  0  0  0
    1.8378   -0.1143    0.2298 C   0  0  0  0  0  0  0  0  0  0  0  0
    1.8409   -1.0850   -0.5829 O   0  0  0  0  0  0  0  0  0  0  0  0
    0.6577    0.5702    0.6247 N   0  0  0  0  0  0  0  0  0  0  0  0
   -0.6138    0.1378    0.0672 C   0  0  1  0  0  0  0  0  0  0  0  0
   -1.4788   -0.4473    1.1350 C   0  0  0  0  0  0  0  0  0  0  0  0
   -2.7930   -0.9174    0.6984 C   0  0  0  0  0  0  0  0  0  0  0  0
   -3.1245   -2.2563    0.4544 C   0  0  0  0  0  0  0  0  0  0  0  0
   -4.4145   -2.3764    0.0467 N   0  0  0  0  0  0  0  0  0  0  0  0
   -4.9631   -1.1395    0.0110 C   0  0  0  0  0  0  0  0  0  0  0  0
   -6.2339   -0.7116   -0.3286 C   0  0  0  0  0  0  0  0  0  0  0  0
   -6.5399    0.6510   -0.2721 C   0  0  0  0  0  0  0  0  0  0  0  0
   -5.5347    1.5058    0.1273 C   0  0  0  0  0  0  0  0  0  0  0  0
   -4.2671    1.0868    0.4669 C   0  0  0  0  0  0  0  0  0  0  0  0
   -3.9735   -0.2687    0.4070 C   0  0  0  0  0  0  0  0  0  0  0  0
   -1.2419    1.1366   -0.7930 C   0  0  0  0  0  0  0  0  0  0  0  0
   -1.8902    2.0425   -1.6204 O   0  0  0  0  0  0  0  0  0  0  0  0
   -0.4638    2.1508   -0.8134 O   0  0  0  0  0  0  0  0  0  0  0  0
    6.0249    1.1333    0.3073 C   0  0  0  0  0  0  0  0  0  0  0  0
    7.0354    1.6484   -0.4871 O   0  0  0  0  0  0  0  0  0  0  0  0
    5.4885    2.2309    0.6424 O   0  0  0  0  0  0  0  0  0  0  0  0
    6.2401   -2.0902    0.1557 H   0  0  0  0  0  0  0  0  0  0  0  0
    6.7770   -0.8237   -0.8531 H   0  0  0  0  0  0  0  0  0  0  0  0
    5.6826   -0.3103    1.8034 H   0  0  0  0  0  0  0  0  0  0  0  0
    4.2963   -0.6018   -0.9474 H   0  0  0  0  0  0  0  0  0  0  0  0
    4.0662   -1.6708    0.5060 H   0  0  0  0  0  0  0  0  0  0  0  0
    3.1712    0.0668    1.8371 H   0  0  0  0  0  0  0  0  0  0  0  0
    3.4076    1.3127    0.5649 H   0  0  0  0  0  0  0  0  0  0  0  0
    0.7585    1.3609    1.3051 H   0  0  0  0  0  0  0  0  0  0  0  0
   -0.3518   -0.7320   -0.6130 H   0  0  0  0  0  0  0  0  0  0  0  0
   -0.8989   -1.3153    1.5613 H   0  0  0  0  0  0  0  0  0  0  0  0
   -1.6038    0.2934    1.9526 H   0  0  0  0  0  0  0  0  0  0  0  0
   -2.4437   -3.0886    0.5745 H   0  0  0  0  0  0  0  0  0  0  0  0
   -4.8512   -3.3042   -0.1856 H   0  0  0  0  0  0  0  0  0  0  0  0
   -6.9430   -1.4735   -0.6285 H   0  0  0  0  0  0  0  0  0  0  0  0
   -7.5341    0.9278   -0.5441 H   0  0  0  0  0  0  0  0  0  0  0  0
   -5.7899    2.5754    0.1677 H   0  0  0  0  0  0  0  0  0  0  0  0
   -3.5416    1.7987    0.7718 H   0  0  0  0  0  0  0  0  0  0  0  0
   -2.3336    1.7777   -2.4833 H   0  0  0  0  0  0  0  0  0  0  0  0
    6.8046    2.0818   -1.3789 H   0  0  0  0  0  0  0  0  0  0  0  0
  1  2  1  0
  2  3  1  0
  3  4  1  0
  4  5  1  0
  5  6  2  0
  5  7  1  0
  7  8  1  0
  8  9  1  0
  9 10  1  0
 10 11  2  0
 11 12  1  0
 12 13  1  0
 13 14  2  0
 14 15  1  0
 15 16  2  0
 16 17  1  0
 17 18  2  0
  8 19  1  0
 19 20  1  0
 19 21  2  0
  2 22  1  0
 22 23  1  0
 22 24  2  0
 18 10  1  0
 18 13  1  0
  1 25  1  0
  1 26  1  0
  2 27  1  1
  3 28  1  0
  3 29  1  0
  4 30  1  0
  4 31  1  0
  7 32  1  0
  8 33  1  6
  9 34  1  0
  9 35  1  0
 11 36  1  0
 12 37  1  0
 14 38  1  0
 15 39  1  0
 16 40  1  0
 17 41  1  0
 20 42  1  0
 23 43  1  0
M  END
$$$$
