
     RDKit          3D

111116  0  0  0  0  0  0  0  0999 V2000
   -5.7367    1.4574   -2.6672 C   0  0  2  0  0  0  0  0  0  0  0  0
   -5.4005    2.8789   -2.6060 C   0  0  0  0  0  0  0  0  0  0  0  0
   -4.2804    3.2280   -1.6731 C   0  0  2  0  0  0  0  0  0  0  0  0
   -3.9162    4.4810   -2.0406 O   0  0  0  0  0  0  0  0  0  0  0  0
   -3.1219    2.1796   -1.7406 C   0  0  1  0  0  0  0  0  0  0  0  0
   -2.7502    2.2422   -3.1834 C   0  0  0  0  0  0  0  0  0  0  0  0
   -2.0860    2.9965   -1.0276 C   0  0  0  0  0  0  0  0  0  0  0  0
   -2.3040    4.2114   -0.7641 O   0  0  0  0  0  0  0  0  0  0  0  0
   -0.6607    2.8598   -0.4260 C   0  0  2  0  0  0  0  0  0  0  0  0
    0.2142    3.7225   -0.9804 O   0  0  0  0  0  0  0  0  0  0  0  0
   -0.3340    1.5227   -0.0580 C   0  0  0  0  0  0  0  0  0  0  0  0
    0.7475    0.9600   -0.5326 C   0  0  0  0  0  0  0  0  0  0  0  0
    1.8082    1.9659   -0.7213 C   0  0  0  0  0  0  0  0  0  0  0  0
    0.6848   -0.5248   -0.8095 C   0  0  2  0  0  0  0  0  0  0  0  0
   -0.6449   -1.1965   -0.5555 C   0  0  0  0  0  0  0  0  0  0  0  0
   -1.6650   -0.1612   -0.4206 C   0  0  1  0  0  0  0  0  0  0  0  0
   -1.3894    0.4369   -1.7063 O   0  0  0  0  0  0  0  0  0  0  0  0
   -3.0954   -0.2342   -0.6810 C   0  0  1  0  0  0  0  0  0  0  0  0
   -3.8094   -0.7848    0.4380 O   0  0  0  0  0  0  0  0  0  0  0  0
   -4.3826   -2.0108    0.5073 C   0  0  0  0  0  0  0  0  0  0  0  0
   -4.3125   -2.7869   -0.5003 O   0  0  0  0  0  0  0  0  0  0  0  0
   -5.0826   -2.4941    1.6951 C   0  0  0  0  0  0  0  0  0  0  0  0
   -5.6310   -3.7730    1.6774 C   0  0  0  0  0  0  0  0  0  0  0  0
   -6.2678   -4.1827    2.8159 C   0  0  0  0  0  0  0  0  0  0  0  0
   -6.4212   -3.4646    3.9706 C   0  0  0  0  0  0  0  0  0  0  0  0
   -5.8608   -2.2027    3.9384 C   0  0  0  0  0  0  0  0  0  0  0  0
   -5.1894   -1.6970    2.8176 C   0  0  0  0  0  0  0  0  0  0  0  0
   -3.7335    1.0188   -1.1389 C   0  0  2  0  0  0  0  0  0  0  0  0
   -5.0221    0.5106   -1.7803 C   0  0  2  0  0  0  0  0  0  0  0  0
   -4.9363   -0.3025   -2.9682 C   0  0  0  0  0  0  0  0  0  0  0  0
   -5.4417    0.7235   -3.8061 O   0  0  0  0  0  0  0  0  0  0  0  0
   -5.8250   -0.0293   -0.7425 O   0  0  0  0  0  0  0  0  0  0  0  0
   -7.0251   -0.6791   -0.9249 C   0  0  0  0  0  0  0  0  0  0  0  0
   -7.9403   -1.2918    0.0475 C   0  0  0  0  0  0  0  0  0  0  0  0
   -7.4835   -0.8136   -2.0796 O   0  0  0  0  0  0  0  0  0  0  0  0
   -1.2204    0.5959    0.7753 C   0  0  0  0  0  0  0  0  0  0  0  0
   -2.2312    1.3493    1.5814 C   0  0  0  0  0  0  0  0  0  0  0  0
   -0.4665   -0.1776    1.8147 C   0  0  0  0  0  0  0  0  0  0  0  0
    1.7905   -1.2151   -0.4363 O   0  0  0  0  0  0  0  0  0  0  0  0
    2.8532   -1.7647   -1.0652 C   0  0  0  0  0  0  0  0  0  0  0  0
    2.7582   -1.5456   -2.3209 O   0  0  0  0  0  0  0  0  0  0  0  0
    3.8485   -2.4666   -0.2178 C   0  0  2  0  0  0  0  0  0  0  0  0
    3.4253   -2.5350    1.1395 O   0  0  0  0  0  0  0  0  0  0  0  0
    5.2079   -1.8837   -0.1886 C   0  0  1  0  0  0  0  0  0  0  0  0
    5.3376   -0.5643    0.3538 N   0  0  0  0  0  0  0  0  0  0  0  0
    6.3532    0.3414   -0.0540 C   0  0  0  0  0  0  0  0  0  0  0  0
    7.0902   -0.2313   -0.9369 O   0  0  0  0  0  0  0  0  0  0  0  0
    6.5994    1.6202    0.3546 O   0  0  0  0  0  0  0  0  0  0  0  0
    7.6700    2.4067   -0.1163 C   0  0  0  0  0  0  0  0  0  0  0  0
    8.9776    1.7299    0.2844 C   0  0  0  0  0  0  0  0  0  0  0  0
    7.5865    3.7648    0.5473 C   0  0  0  0  0  0  0  0  0  0  0  0
    7.6347    2.6262   -1.6180 C   0  0  0  0  0  0  0  0  0  0  0  0
    6.0383   -2.8600    0.6449 C   0  0  0  0  0  0  0  0  0  0  0  0
    6.7981   -3.8440    0.0583 C   0  0  0  0  0  0  0  0  0  0  0  0
    7.5680   -4.7596    0.7331 C   0  0  0  0  0  0  0  0  0  0  0  0
    7.5435   -4.6394    2.1209 C   0  0  0  0  0  0  0  0  0  0  0  0
    6.8037   -3.6734    2.7919 C   0  0  0  0  0  0  0  0  0  0  0  0
    6.0640   -2.8024    2.0217 C   0  0  0  0  0  0  0  0  0  0  0  0
   -6.8745    1.3813   -2.5776 H   0  0  0  0  0  0  0  0  0  0  0  0
   -6.2524    3.5283   -2.2201 H   0  0  0  0  0  0  0  0  0  0  0  0
   -5.2721    3.2749   -3.6378 H   0  0  0  0  0  0  0  0  0  0  0  0
   -4.6553    3.2012   -0.6358 H   0  0  0  0  0  0  0  0  0  0  0  0
   -4.3122    5.2112   -1.5345 H   0  0  0  0  0  0  0  0  0  0  0  0
   -2.8135    1.3648   -3.8003 H   0  0  0  0  0  0  0  0  0  0  0  0
   -3.2784    3.0368   -3.7884 H   0  0  0  0  0  0  0  0  0  0  0  0
   -1.6720    2.5846   -3.3289 H   0  0  0  0  0  0  0  0  0  0  0  0
   -0.8376    3.3961    0.5364 H   0  0  0  0  0  0  0  0  0  0  0  0
   -0.2172    4.1253   -1.7761 H   0  0  0  0  0  0  0  0  0  0  0  0
    1.9056    2.3383   -1.7565 H   0  0  0  0  0  0  0  0  0  0  0  0
    1.9762    2.6595    0.0932 H   0  0  0  0  0  0  0  0  0  0  0  0
    2.7821    1.3738   -0.6615 H   0  0  0  0  0  0  0  0  0  0  0  0
    0.7684   -0.5172   -1.9500 H   0  0  0  0  0  0  0  0  0  0  0  0
   -0.5815   -1.9466    0.2597 H   0  0  0  0  0  0  0  0  0  0  0  0
   -0.9400   -1.8476   -1.4468 H   0  0  0  0  0  0  0  0  0  0  0  0
   -1.5380   -0.2358   -2.3825 H   0  0  0  0  0  0  0  0  0  0  0  0
   -3.2252   -1.0292   -1.4540 H   0  0  0  0  0  0  0  0  0  0  0  0
   -5.5569   -4.4116    0.8062 H   0  0  0  0  0  0  0  0  0  0  0  0
   -6.6894   -5.2016    2.7598 H   0  0  0  0  0  0  0  0  0  0  0  0
   -6.9293   -3.8155    4.8567 H   0  0  0  0  0  0  0  0  0  0  0  0
   -5.9306   -1.5551    4.8089 H   0  0  0  0  0  0  0  0  0  0  0  0
   -4.7818   -0.7127    2.8663 H   0  0  0  0  0  0  0  0  0  0  0  0
   -4.1701    1.4384   -0.1719 H   0  0  0  0  0  0  0  0  0  0  0  0
   -5.5869   -1.1810   -3.0890 H   0  0  0  0  0  0  0  0  0  0  0  0
   -3.9354   -0.6707   -3.3160 H   0  0  0  0  0  0  0  0  0  0  0  0
   -7.6137   -1.0299    1.0753 H   0  0  0  0  0  0  0  0  0  0  0  0
   -7.9691   -2.4082   -0.0530 H   0  0  0  0  0  0  0  0  0  0  0  0
   -8.9867   -0.9365   -0.0550 H   0  0  0  0  0  0  0  0  0  0  0  0
   -2.5176    2.3404    1.2323 H   0  0  0  0  0  0  0  0  0  0  0  0
   -1.6990    1.6615    2.5501 H   0  0  0  0  0  0  0  0  0  0  0  0
   -3.0114    0.7086    1.9573 H   0  0  0  0  0  0  0  0  0  0  0  0
   -0.5576    0.3546    2.8237 H   0  0  0  0  0  0  0  0  0  0  0  0
   -1.0659   -1.0971    2.0113 H   0  0  0  0  0  0  0  0  0  0  0  0
    0.5907   -0.2858    1.7254 H   0  0  0  0  0  0  0  0  0  0  0  0
    3.9715   -3.5431   -0.5033 H   0  0  0  0  0  0  0  0  0  0  0  0
    2.4235   -2.5742    1.1221 H   0  0  0  0  0  0  0  0  0  0  0  0
    5.7074   -1.9284   -1.1688 H   0  0  0  0  0  0  0  0  0  0  0  0
    4.6816   -0.1729    1.0994 H   0  0  0  0  0  0  0  0  0  0  0  0
    9.0259    0.7218   -0.1285 H   0  0  0  0  0  0  0  0  0  0  0  0
    8.9187    1.6898    1.4164 H   0  0  0  0  0  0  0  0  0  0  0  0
    9.8050    2.3841   -0.0219 H   0  0  0  0  0  0  0  0  0  0  0  0
    6.5902    3.9340    0.9708 H   0  0  0  0  0  0  0  0  0  0  0  0
    8.3970    3.9047    1.3014 H   0  0  0  0  0  0  0  0  0  0  0  0
    7.7580    4.5607   -0.2266 H   0  0  0  0  0  0  0  0  0  0  0  0
    8.7087    2.5996   -1.9423 H   0  0  0  0  0  0  0  0  0  0  0  0
    7.0709    1.8836   -2.1761 H   0  0  0  0  0  0  0  0  0  0  0  0
    7.2736    3.6392   -1.8977 H   0  0  0  0  0  0  0  0  0  0  0  0
    6.7995   -3.9176   -1.0204 H   0  0  0  0  0  0  0  0  0  0  0  0
    8.1391   -5.5052    0.2005 H   0  0  0  0  0  0  0  0  0  0  0  0
    8.1484   -5.3586    2.6705 H   0  0  0  0  0  0  0  0  0  0  0  0
    6.8079   -3.6075    3.8735 H   0  0  0  0  0  0  0  0  0  0  0  0
    5.4870   -2.0452    2.5339 H   0  0  0  0  0  0  0  0  0  0  0  0
  1  2  1  0
  2  3  1  0
  3  4  1  0
  3  5  1  0
  5  6  1  6
  5  7  1  0
  7  8  2  0
  7  9  1  0
  9 10  1  0
  9 11  1  0
 11 12  2  0
 12 13  1  0
 12 14  1  0
 14 15  1  0
 15 16  1  0
 16 17  1  6
 16 18  1  0
 18 19  1  0
 19 20  1  0
 20 21  2  0
 20 22  1  0
 22 23  2  0
 23 24  1  0
 24 25  2  0
 25 26  1  0
 26 27  2  0
 18 28  1  0
 28 29  1  0
 29 30  1  0
 30 31  1  0
 29 32  1  1
 32 33  1  0
 33 34  1  0
 33 35  2  0
 16 36  1  0
 36 37  1  0
 36 38  1  0
 14 39  1  0
 39 40  1  0
 40 41  2  0
 40 42  1  0
 42 43  1  0
 42 44  1  0
 44 45  1  0
 45 46  1  0
 46 47  2  0
 46 48  1  0
 48 49  1  0
 49 50  1  0
 49 51  1  0
 49 52  1  0
 44 53  1  0
 53 54  2  0
 54 55  1  0
 55 56  2  0
 56 57  1  0
 57 58  2  0
 29  1  1  0
 58 53  1  0
 31  1  1  0
 28  5  1  0
 36 11  1  0
 27 22  1  0
  1 59  1  1
  2 60  1  0
  2 61  1  0
  3 62  1  1
  4 63  1  0
  6 64  1  0
  6 65  1  0
  6 66  1  0
  9 67  1  1
 10 68  1  0
 13 69  1  0
 13 70  1  0
 13 71  1  0
 14 72  1  6
 15 73  1  0
 15 74  1  0
 17 75  1  0
 18 76  1  6
 23 77  1  0
 24 78  1  0
 25 79  1  0
 26 80  1  0
 27 81  1  0
 28 82  1  1
 30 83  1  0
 30 84  1  0
 34 85  1  0
 34 86  1  0
 34 87  1  0
 37 88  1  0
 37 89  1  0
 37 90  1  0
 38 91  1  0
 38 92  1  0
 38 93  1  0
 42 94  1  6
 43 95  1  0
 44 96  1  6
 45 97  1  0
 50 98  1  0
 50 99  1  0
 50100  1  0
 51101  1  0
 51102  1  0
 51103  1  0
 52104  1  0
 52105  1  0
 52106  1  0
 54107  1  0
 55108  1  0
 56109  1  0
 57110  1  0
 58111  1  0
M  END
$$$$
