@<TRIPOS>MOLECULE
*****
 26 25 0 0 0
SMALL
GASTEIGER

@<TRIPOS>ATOM
      1 C          -3.3058   -0.7953    1.1225 C.3     1  UNL1       -0.0440
      2 C          -3.1552    0.5334    0.4678 C.2     1  UNL1       -0.0775
      3 C          -4.0895    1.1737   -0.2341 C.2     1  UNL1       -0.0996
      4 C          -1.8394    1.2140    0.6078 C.3     1  UNL1       -0.0082
      5 C          -0.7965    0.2929   -0.0081 C.3     1  UNL1        0.0627
      6 O           0.4574    0.8951    0.1022 O.3     1  UNL1       -0.2861
      7 P           1.6254   -0.1177   -0.5783 P.3     1  UNL1        0.4834
      8 O           2.3775    0.7464   -1.8227 O.3     1  UNL1       -0.3022
      9 O           0.9705   -1.3430   -1.1582 O.2     1  UNL1       -0.2269
     10 O           2.7203   -0.5316    0.6290 O.3     1  UNL1       -0.1862
     11 P           4.0387   -1.3185   -0.0979 P.3     1  UNL1        0.4808
     12 O           5.3684   -1.2410    0.9382 O.3     1  UNL1       -0.3023
     13 O           4.3902   -0.4732   -1.5383 O.3     1  UNL1       -0.3023
     14 O           3.7342   -2.7503   -0.4250 O.2     1  UNL1       -0.2271
     15 H          -4.3402   -1.2040    0.9727 H       1  UNL1        0.0274
     16 H          -2.6280   -1.5663    0.7376 H       1  UNL1        0.0274
     17 H          -3.1490   -0.6395    2.2108 H       1  UNL1        0.0274
     18 H          -4.0118    2.1458   -0.7256 H       1  UNL1        0.0534
     19 H          -5.0881    0.8744   -0.4569 H       1  UNL1        0.0534
     20 H          -1.5602    1.3352    1.6776 H       1  UNL1        0.0332
     21 H          -1.8120    2.2074    0.1314 H       1  UNL1        0.0332
     22 H          -0.8101   -0.6527    0.5878 H       1  UNL1        0.0569
     23 H          -1.0808    0.1098   -1.0493 H       1  UNL1        0.0569
     24 H           1.7956    1.4505   -2.1561 H       1  UNL1        0.2220
     25 H           5.4009   -0.3541    1.3552 H       1  UNL1        0.2220
     26 H           4.7876    0.4154   -1.2901 H       1  UNL1        0.2220
@<TRIPOS>BOND
     1     1     2    1
     2     2     3    2
     3     2     4    1
     4     4     5    1
     5     5     6    1
     6     7     6    1
     7     7     8    1
     8     7     9    2
     9     7    10    1
    10    10    11    1
    11    11    12    1
    12    11    13    1
    13    11    14    2
    14     1    15    1
    15     1    16    1
    16     1    17    1
    17     3    18    1
    18     3    19    1
    19     4    20    1
    20     4    21    1
    21     5    22    1
    22     5    23    1
    23     8    24    1
    24    12    25    1
    25    13    26    1
