@<TRIPOS>MOLECULE
*****
 98 102 0 0 0
SMALL
GASTEIGER

@<TRIPOS>ATOM
      1 I           0.0000    0.0000    0.0000 I       1  UNL1        0.0000
      2 I           0.0000    0.0000    0.0000 I       2  UNL2        0.0000
      3 C          -4.0298   -1.7002    0.8265 C.3     3  UNL3        0.0107
      4 C          -3.2568   -2.4001   -0.2571 C.3     3  UNL3        0.0200
      5 C          -1.8458   -1.9593   -0.3679 C.ar    3  UNL3       -0.0415
      6 C          -0.8850   -2.3314    0.5475 C.ar    3  UNL3       -0.0549
      7 C           0.4013   -1.8766    0.3784 C.ar    3  UNL3       -0.0191
      8 C           0.8104   -1.0656   -0.6509 C.ar    3  UNL3        0.1286
      9 O           1.9928   -0.5231   -0.9829 O.3     3  UNL3       -0.4517
     10 C           3.2853   -0.9373   -0.8811 C.ar    3  UNL3        0.1822
     11 C           4.2035   -0.0712   -0.2728 C.ar    3  UNL3        0.0499
     12 C           5.5363   -0.4956   -0.1702 C.ar    3  UNL3       -0.0266
     13 C           6.7111    0.2308    0.4208 C.3     3  UNL3        0.0135
     14 C           6.2439    1.6277    0.6610 C.3     3  UNL3       -0.0259
     15 N           4.9248    1.6218    1.2643 N.4     3  UNL3        0.2450
     16 C           4.7089    2.9206    1.8281 C.3     3  UNL3       -0.0409
     17 C           4.9217    0.6759    2.3785 C.3     3  UNL3       -0.0409
     18 C           3.9019    1.2743    0.2706 C.3     3  UNL3        0.0143
     19 C           2.5958    1.4338    0.9485 C.3     3  UNL3        0.0202
     20 C           1.5289    2.1076    0.1768 C.ar    3  UNL3       -0.0380
     21 C           0.3054    2.1517    0.8399 C.ar    3  UNL3       -0.0123
     22 C          -0.7992    2.7402    0.2619 C.ar    3  UNL3        0.1702
     23 O          -2.0279    2.8225    0.8465 O.3     3  UNL3       -0.4487
     24 C          -3.0927    1.9664    0.6734 C.ar    3  UNL3        0.1704
     25 C          -4.3152    2.5415    0.3129 C.ar    3  UNL3        0.1624
     26 O          -4.3969    3.9281    0.1484 O.3     3  UNL3       -0.4914
     27 C          -5.6497    4.4763   -0.2164 C.3     3  UNL3        0.0790
     28 C          -5.4038    1.7120    0.1313 C.ar    3  UNL3       -0.0125
     29 C          -5.2891    0.3273    0.3035 C.ar    3  UNL3       -0.0302
     30 C          -6.5768   -0.3724    0.0648 C.3     3  UNL3        0.0133
     31 C          -6.2693   -1.8479   -0.0734 C.3     3  UNL3       -0.0259
     32 N          -5.3595   -2.2377    0.9889 N.4     3  UNL3        0.2449
     33 C          -5.9447   -1.7934    2.2399 C.3     3  UNL3       -0.0409
     34 C          -5.3613   -3.6889    1.0000 C.3     3  UNL3       -0.0409
     35 C          -4.0790   -0.2339    0.6594 C.ar    3  UNL3        0.0076
     36 C          -3.0012    0.6013    0.8377 C.ar    3  UNL3       -0.0069
     37 C          -0.6948    3.2964   -0.9958 C.ar    3  UNL3        0.1621
     38 O          -1.7890    3.8986   -1.6114 O.3     3  UNL3       -0.4914
     39 C          -1.7349    4.4735   -2.8845 C.3     3  UNL3        0.0790
     40 C           0.4943    3.2778   -1.6917 C.ar    3  UNL3       -0.0160
     41 C           1.5543    2.6803   -1.0667 C.ar    3  UNL3       -0.0547
     42 C           5.9629   -1.7345   -0.6488 C.ar    3  UNL3       -0.0122
     43 C           5.0424   -2.5965   -1.2555 C.ar    3  UNL3        0.1655
     44 O           5.4558   -3.8393   -1.7391 O.3     3  UNL3       -0.4913
     45 C           6.7951   -4.2477   -1.6282 C.3     3  UNL3        0.0790
     46 C           3.7393   -2.1530   -1.3426 C.ar    3  UNL3        0.2046
     47 O           2.8977   -3.0704   -1.9572 O.3     3  UNL3       -0.4885
     48 C           2.2325   -4.1260   -1.2959 C.3     3  UNL3        0.0791
     49 C          -0.1638   -0.6825   -1.5883 C.ar    3  UNL3       -0.0191
     50 C          -1.4648   -1.1354   -1.4277 C.ar    3  UNL3       -0.0549
     51 H          -3.4995   -1.9008    1.7871 H       3  UNL3        0.0908
     52 H          -3.7977   -2.1598   -1.2207 H       3  UNL3        0.0372
     53 H          -3.2875   -3.4857   -0.1876 H       3  UNL3        0.0372
     54 H          -1.0920   -2.9559    1.3812 H       3  UNL3        0.0621
     55 H           1.2054   -2.1279    1.0563 H       3  UNL3        0.0654
     56 H           7.5439    0.2957   -0.3088 H       3  UNL3        0.0365
     57 H           7.0626   -0.3243    1.2873 H       3  UNL3        0.0365
     58 H           6.2077    2.1677   -0.2971 H       3  UNL3        0.0818
     59 H           6.9108    2.1345    1.4179 H       3  UNL3        0.0818
     60 H           4.1128    3.5515    1.1332 H       3  UNL3        0.0778
     61 H           4.2702    2.8961    2.8470 H       3  UNL3        0.0778
     62 H           5.6889    3.4207    1.9509 H       3  UNL3        0.0778
     63 H           5.9523    0.5254    2.7849 H       3  UNL3        0.0778
     64 H           4.4275   -0.2733    2.0824 H       3  UNL3        0.0778
     65 H           4.3554    1.1090    3.2473 H       3  UNL3        0.0778
     66 H           4.0907    1.9881   -0.5669 H       3  UNL3        0.0909
     67 H           2.1758    0.4733    1.3435 H       3  UNL3        0.0372
     68 H           2.6841    2.0476    1.9019 H       3  UNL3        0.0372
     69 H           0.1153    1.7378    1.8446 H       3  UNL3        0.0658
     70 H          -5.5744    5.5646   -0.4084 H       3  UNL3        0.0660
     71 H          -6.0028    4.0201   -1.1838 H       3  UNL3        0.0660
     72 H          -6.4416    4.2267    0.5196 H       3  UNL3        0.0660
     73 H          -6.3162    2.2285   -0.1472 H       3  UNL3        0.0658
     74 H          -7.3154   -0.1572    0.8649 H       3  UNL3        0.0365
     75 H          -7.0230    0.0124   -0.8739 H       3  UNL3        0.0365
     76 H          -7.1875   -2.4691    0.0251 H       3  UNL3        0.0818
     77 H          -5.8139   -1.9671   -1.0749 H       3  UNL3        0.0818
     78 H          -5.6404   -2.4917    3.0563 H       3  UNL3        0.0778
     79 H          -7.0612   -1.8603    2.2048 H       3  UNL3        0.0778
     80 H          -5.5914   -0.7992    2.5052 H       3  UNL3        0.0778
     81 H          -5.6191   -4.0890   -0.0137 H       3  UNL3        0.0778
     82 H          -6.2039   -4.0100    1.6439 H       3  UNL3        0.0778
     83 H          -4.4427   -4.1219    1.4102 H       3  UNL3        0.0778
     84 H          -2.0272    0.2306    1.1184 H       3  UNL3        0.0660
     85 H          -1.1813    5.4195   -2.9398 H       3  UNL3        0.0660
     86 H          -1.3083    3.7821   -3.6456 H       3  UNL3        0.0660
     87 H          -2.7873    4.6751   -3.1887 H       3  UNL3        0.0660
     88 H           0.6294    3.6949   -2.6696 H       3  UNL3        0.0655
     89 H           2.4958    2.6415   -1.5697 H       3  UNL3        0.0621
     90 H           6.9925   -2.1228   -0.5961 H       3  UNL3        0.0658
     91 H           7.5154   -3.4952   -2.0013 H       3  UNL3        0.0660
     92 H           6.9942   -4.3893   -0.5334 H       3  UNL3        0.0660
     93 H           6.9866   -5.1616   -2.2193 H       3  UNL3        0.0660
     94 H           2.7567   -5.1014   -1.4482 H       3  UNL3        0.0660
     95 H           1.1639   -4.2046   -1.5160 H       3  UNL3        0.0660
     96 H           2.3374   -3.9440   -0.1918 H       3  UNL3        0.0660
     97 H          -0.0237   -0.0440   -2.4690 H       3  UNL3        0.0654
     98 H          -2.2524   -0.8538   -2.1459 H       3  UNL3        0.0621
@<TRIPOS>UNITY_ATOM_ATTR
1 1
charge -1
2 1
charge -1
15 1
charge 1
32 1
charge 1
@<TRIPOS>BOND
     1     3     4    1
     2     4     5    1
     3     5     6   ar
     4     6     7   ar
     5     7     8   ar
     6     8     9    1
     7     9    10    1
     8    10    11   ar
     9    11    12   ar
    10    12    13    1
    11    13    14    1
    12    14    15    1
    13    15    16    1
    14    15    17    1
    15    15    18    1
    16    18    19    1
    17    19    20    1
    18    20    21   ar
    19    21    22   ar
    20    22    23    1
    21    23    24    1
    22    24    25   ar
    23    25    26    1
    24    26    27    1
    25    25    28   ar
    26    28    29   ar
    27    29    30    1
    28    30    31    1
    29    31    32    1
    30    32    33    1
    31    32    34    1
    32    29    35   ar
    33    35    36   ar
    34    22    37   ar
    35    37    38    1
    36    38    39    1
    37    37    40   ar
    38    40    41   ar
    39    12    42   ar
    40    42    43   ar
    41    43    44    1
    42    44    45    1
    43    43    46   ar
    44    46    47    1
    45    47    48    1
    46     8    49   ar
    47    49    50   ar
    48    32     3    1
    49    35     3    1
    50    50     5   ar
    51    46    10   ar
    52    18    11    1
    53    41    20   ar
    54    36    24   ar
    55     3    51    1
    56     4    52    1
    57     4    53    1
    58     6    54    1
    59     7    55    1
    60    13    56    1
    61    13    57    1
    62    14    58    1
    63    14    59    1
    64    16    60    1
    65    16    61    1
    66    16    62    1
    67    17    63    1
    68    17    64    1
    69    17    65    1
    70    18    66    1
    71    19    67    1
    72    19    68    1
    73    21    69    1
    74    27    70    1
    75    27    71    1
    76    27    72    1
    77    28    73    1
    78    30    74    1
    79    30    75    1
    80    31    76    1
    81    31    77    1
    82    33    78    1
    83    33    79    1
    84    33    80    1
    85    34    81    1
    86    34    82    1
    87    34    83    1
    88    36    84    1
    89    39    85    1
    90    39    86    1
    91    39    87    1
    92    40    88    1
    93    41    89    1
    94    42    90    1
    95    45    91    1
    96    45    92    1
    97    45    93    1
    98    48    94    1
    99    48    95    1
   100    48    96    1
   101    49    97    1
   102    50    98    1
