
     RDKit          3D

 50 54  0  0  0  0  0  0  0  0999 V2000
    7.5540   -2.9411   -0.6631 C   0  0  0  0  0  0  0  0  0  0  0  0
    6.2239   -2.3311   -0.5462 N   0  0  0  0  0  0  0  0  0  0  0  0
    6.0634   -0.9307   -0.5237 C   0  0  0  0  0  0  0  0  0  0  0  0
    7.1525   -0.2703   -0.6116 O   0  0  0  0  0  0  0  0  0  0  0  0
    4.8142   -0.2049   -0.4131 C   0  0  0  0  0  0  0  0  0  0  0  0
    4.8677    1.1955   -0.3754 C   0  0  0  0  0  0  0  0  0  0  0  0
    3.7307    1.9617   -0.2687 C   0  0  0  0  0  0  0  0  0  0  0  0
    2.4717    1.4119   -0.1921 C   0  0  0  0  0  0  0  0  0  0  0  0
    1.2513    2.1998   -0.0798 C   0  0  0  0  0  0  0  0  0  0  0  0
    1.1203    3.4481   -0.6510 C   0  0  0  0  0  0  0  0  0  0  0  0
   -0.0390    4.1832   -0.5383 C   0  0  0  0  0  0  0  0  0  0  0  0
   -0.1993    5.4056   -1.0843 F   0  0  0  0  0  0  0  0  0  0  0  0
   -1.0968    3.6180    0.1839 C   0  0  0  0  0  0  0  0  0  0  0  0
   -2.3370    4.0673    0.4759 N   0  0  0  0  0  0  0  0  0  0  0  0
   -2.9715    3.1360    1.2071 C   0  0  0  0  0  0  0  0  0  0  0  0
   -2.0949    2.0707    1.3752 C   0  0  0  0  0  0  0  0  0  0  0  0
   -2.3522    0.8038    2.1223 C   0  0  0  0  0  0  0  0  0  0  0  0
   -3.0476   -0.1217    1.1947 C   0  0  0  0  0  0  0  0  0  0  0  0
   -2.2931   -0.9802    0.4355 C   0  0  0  0  0  0  0  0  0  0  0  0
   -2.9152   -1.8606   -0.4454 C   0  0  0  0  0  0  0  0  0  0  0  0
   -4.2902   -1.8652   -0.5505 C   0  0  0  0  0  0  0  0  0  0  0  0
   -4.8568   -2.7367   -1.4188 N   0  0  0  0  0  0  0  0  0  0  0  0
   -6.2028   -2.7619   -1.5411 C   0  0  0  0  0  0  0  0  0  0  0  0
   -7.0193   -1.9315   -0.8130 C   0  0  0  0  0  0  0  0  0  0  0  0
   -6.4359   -1.0425    0.0732 C   0  0  0  0  0  0  0  0  0  0  0  0
   -5.0664   -1.0091    0.2050 C   0  0  0  0  0  0  0  0  0  0  0  0
   -4.4182   -0.1527    1.0650 C   0  0  0  0  0  0  0  0  0  0  0  0
   -0.9643    2.4013    0.7384 N   0  0  0  0  0  0  0  0  0  0  0  0
    0.1868    1.6918    0.6166 C   0  0  0  0  0  0  0  0  0  0  0  0
    2.4057    0.0402   -0.2280 C   0  0  0  0  0  0  0  0  0  0  0  0
    3.5608   -0.7532   -0.3369 C   0  0  0  0  0  0  0  0  0  0  0  0
    3.4408   -2.1013   -0.3694 F   0  0  0  0  0  0  0  0  0  0  0  0
    8.0348   -3.0666    0.3103 H   0  0  0  0  0  0  0  0  0  0  0  0
    8.1698   -2.3678   -1.3961 H   0  0  0  0  0  0  0  0  0  0  0  0
    7.4307   -3.9527   -1.1058 H   0  0  0  0  0  0  0  0  0  0  0  0
    5.4010   -2.9521   -0.4797 H   0  0  0  0  0  0  0  0  0  0  0  0
    5.8498    1.6747   -0.4333 H   0  0  0  0  0  0  0  0  0  0  0  0
    3.7876    3.0407   -0.2408 H   0  0  0  0  0  0  0  0  0  0  0  0
    1.9521    3.8514   -1.1982 H   0  0  0  0  0  0  0  0  0  0  0  0
   -3.9909    3.1624    1.6191 H   0  0  0  0  0  0  0  0  0  0  0  0
   -1.4052    0.3175    2.4303 H   0  0  0  0  0  0  0  0  0  0  0  0
   -2.9399    0.9904    3.0447 H   0  0  0  0  0  0  0  0  0  0  0  0
   -1.1993   -1.0261    0.4748 H   0  0  0  0  0  0  0  0  0  0  0  0
   -2.3369   -2.5512   -1.0583 H   0  0  0  0  0  0  0  0  0  0  0  0
   -6.5941   -3.4862   -2.2571 H   0  0  0  0  0  0  0  0  0  0  0  0
   -8.0705   -2.0002   -0.9548 H   0  0  0  0  0  0  0  0  0  0  0  0
   -7.0633   -0.3853    0.6504 H   0  0  0  0  0  0  0  0  0  0  0  0
   -5.0001    0.5202    1.6611 H   0  0  0  0  0  0  0  0  0  0  0  0
    0.2891    0.7280    1.0621 H   0  0  0  0  0  0  0  0  0  0  0  0
    1.4422   -0.4312   -0.1712 H   0  0  0  0  0  0  0  0  0  0  0  0
  1  2  1  0
  2  3  1  0
  3  4  2  0
  3  5  1  0
  5  6  2  0
  6  7  1  0
  7  8  2  0
  8  9  1  0
  9 10  1  0
 10 11  2  0
 11 12  1  0
 11 13  1  0
 13 14  2  0
 14 15  1  0
 15 16  2  0
 16 17  1  0
 17 18  1  0
 18 19  2  0
 19 20  1  0
 20 21  2  0
 21 22  1  0
 22 23  2  0
 23 24  1  0
 24 25  2  0
 25 26  1  0
 26 27  2  0
 16 28  1  0
 28 29  1  0
  8 30  1  0
 30 31  2  0
 31 32  1  0
 31  5  1  0
 29  9  2  0
 28 13  1  0
 27 18  1  0
 26 21  1  0
  1 33  1  0
  1 34  1  0
  1 35  1  0
  2 36  1  0
  6 37  1  0
  7 38  1  0
 10 39  1  0
 15 40  1  0
 17 41  1  0
 17 42  1  0
 19 43  1  0
 20 44  1  0
 23 45  1  0
 24 46  1  0
 25 47  1  0
 27 48  1  0
 29 49  1  0
 30 50  1  0
M  END
$$$$
