@<TRIPOS>MOLECULE
*****
 50 54 0 0 0
SMALL
GASTEIGER

@<TRIPOS>ATOM
      1 C           7.5540   -2.9411   -0.6631 C.3     1  UNL1        0.0004
      2 N           6.2239   -2.3311   -0.5462 N.am    1  UNL1       -0.3143
      3 C           6.0634   -0.9307   -0.5237 C.2     1  UNL1        0.2466
      4 O           7.1525   -0.2703   -0.6116 O.2     1  UNL1       -0.2701
      5 C           4.8142   -0.2049   -0.4131 C.ar    1  UNL1        0.0718
      6 C           4.8677    1.1955   -0.3754 C.ar    1  UNL1       -0.0463
      7 C           3.7307    1.9617   -0.2687 C.ar    1  UNL1       -0.0531
      8 C           2.4717    1.4119   -0.1921 C.ar    1  UNL1       -0.0137
      9 C           1.2513    2.1998   -0.0798 C.ar    1  UNL1        0.0016
     10 C           1.1203    3.4481   -0.6510 C.ar    1  UNL1       -0.0137
     11 C          -0.0390    4.1832   -0.5383 C.ar    1  UNL1        0.1665
     12 F          -0.1993    5.4056   -1.0843 F       1  UNL1       -0.2016
     13 C          -1.0968    3.6180    0.1839 C.ar    1  UNL1        0.1736
     14 N          -2.3370    4.0673    0.4759 N.ar    1  UNL1       -0.2332
     15 C          -2.9715    3.1360    1.2071 C.ar    1  UNL1        0.0500
     16 C          -2.0949    2.0707    1.3752 C.ar    1  UNL1        0.0475
     17 C          -2.3522    0.8038    2.1223 C.3     1  UNL1        0.0148
     18 C          -3.0476   -0.1217    1.1947 C.ar    1  UNL1       -0.0409
     19 C          -2.2931   -0.9802    0.4355 C.ar    1  UNL1       -0.0562
     20 C          -2.9152   -1.8606   -0.4454 C.ar    1  UNL1       -0.0355
     21 C          -4.2902   -1.8652   -0.5505 C.ar    1  UNL1        0.0710
     22 N          -4.8568   -2.7367   -1.4188 N.ar    1  UNL1       -0.2550
     23 C          -6.2028   -2.7619   -1.5411 C.ar    1  UNL1        0.0283
     24 C          -7.0193   -1.9315   -0.8130 C.ar    1  UNL1       -0.0430
     25 C          -6.4359   -1.0425    0.0732 C.ar    1  UNL1       -0.0511
     26 C          -5.0664   -1.0091    0.2050 C.ar    1  UNL1        0.0007
     27 C          -4.4182   -0.1527    1.0650 C.ar    1  UNL1       -0.0490
     28 N          -0.9643    2.4013    0.7384 N.ar    1  UNL1       -0.3004
     29 C           0.1868    1.6918    0.6166 C.ar    1  UNL1        0.0193
     30 C           2.4057    0.0402   -0.2280 C.ar    1  UNL1       -0.0179
     31 C           3.5608   -0.7532   -0.3369 C.ar    1  UNL1        0.1360
     32 F           3.4408   -2.1013   -0.3694 F       1  UNL1       -0.2047
     33 H           8.0348   -3.0666    0.3103 H       1  UNL1        0.0426
     34 H           8.1698   -2.3678   -1.3961 H       1  UNL1        0.0426
     35 H           7.4307   -3.9527   -1.1058 H       1  UNL1        0.0426
     36 H           5.4010   -2.9521   -0.4797 H       1  UNL1        0.1487
     37 H           5.8498    1.6747   -0.4333 H       1  UNL1        0.0626
     38 H           3.7876    3.0407   -0.2408 H       1  UNL1        0.0624
     39 H           1.9521    3.8514   -1.1982 H       1  UNL1        0.0654
     40 H          -3.9909    3.1624    1.6191 H       1  UNL1        0.0848
     41 H          -1.4052    0.3175    2.4303 H       1  UNL1        0.0377
     42 H          -2.9399    0.9904    3.0447 H       1  UNL1        0.0377
     43 H          -1.1993   -1.0261    0.4748 H       1  UNL1        0.0621
     44 H          -2.3369   -2.5512   -1.0583 H       1  UNL1        0.0639
     45 H          -6.5941   -3.4862   -2.2571 H       1  UNL1        0.0830
     46 H          -8.0705   -2.0002   -0.9548 H       1  UNL1        0.0633
     47 H          -7.0633   -0.3853    0.6504 H       1  UNL1        0.0625
     48 H          -5.0001    0.5202    1.6611 H       1  UNL1        0.0627
     49 H           0.2891    0.7280    1.0621 H       1  UNL1        0.0819
     50 H           1.4422   -0.4312   -0.1712 H       1  UNL1        0.0652
@<TRIPOS>BOND
     1     1     2    1
     2     2     3   am
     3     3     4    2
     4     3     5    1
     5     5     6   ar
     6     6     7   ar
     7     7     8   ar
     8     8     9    1
     9     9    10   ar
    10    10    11   ar
    11    11    12    1
    12    11    13   ar
    13    13    14   ar
    14    14    15   ar
    15    15    16   ar
    16    16    17    1
    17    17    18    1
    18    18    19   ar
    19    19    20   ar
    20    20    21   ar
    21    21    22   ar
    22    22    23   ar
    23    23    24   ar
    24    24    25   ar
    25    25    26   ar
    26    26    27   ar
    27    16    28   ar
    28    28    29   ar
    29     8    30   ar
    30    30    31   ar
    31    31    32    1
    32    31     5   ar
    33    29     9   ar
    34    28    13   ar
    35    27    18   ar
    36    26    21   ar
    37     1    33    1
    38     1    34    1
    39     1    35    1
    40     2    36    1
    41     6    37    1
    42     7    38    1
    43    10    39    1
    44    15    40    1
    45    17    41    1
    46    17    42    1
    47    19    43    1
    48    20    44    1
    49    23    45    1
    50    24    46    1
    51    25    47    1
    52    27    48    1
    53    29    49    1
    54    30    50    1
