@<TRIPOS>MOLECULE
*****
 47 49 0 0 0
SMALL
GASTEIGER

@<TRIPOS>ATOM
      1 C           4.7902   -1.9040   -0.4409 C.3     1  UNL1       -0.0375
      2 C           5.0123   -1.0499    0.7469 C.ar    1  UNL1       -0.0187
      3 C           6.3198   -0.7881    1.1346 C.ar    1  UNL1       -0.0378
      4 C           6.5985    0.0077    2.2426 C.ar    1  UNL1        0.0701
      5 C           7.9676    0.2592    2.6172 C.1     1  UNL1        0.1007
      6 N           9.0551    0.4792    2.9179 N.1     1  UNL1       -0.1908
      7 C           5.5189    0.5181    2.9293 C.ar    1  UNL1        0.0458
      8 N           4.2612    0.2475    2.5303 N.ar    1  UNL1       -0.2488
      9 C           3.9898   -0.5192    1.4626 C.ar    1  UNL1        0.1286
     10 C           2.6162   -0.7812    1.0739 C.2     1  UNL1        0.2679
     11 O           2.3453   -1.5065    0.0691 O.2     1  UNL1       -0.2681
     12 N           1.4922   -0.2506    1.7825 N.am    1  UNL1       -0.2651
     13 C           0.1665   -0.5481    1.3463 C.ar    1  UNL1        0.1257
     14 C          -0.4282   -1.6749    1.8806 C.ar    1  UNL1       -0.0188
     15 C          -1.7034   -2.0070    1.4932 C.ar    1  UNL1       -0.0213
     16 C          -2.3487   -1.1790    0.5644 C.ar    1  UNL1        0.1471
     17 F          -3.5852   -1.4731    0.1637 F       1  UNL1       -0.2035
     18 C          -1.7426   -0.0673    0.0470 C.ar    1  UNL1        0.1058
     19 C          -2.4150    0.7949   -0.9127 C.3     1  UNL1        0.1120
     20 C          -1.3363    1.8050   -1.4110 C.3     1  UNL1       -0.0338
     21 C          -3.5292    1.6112   -0.3828 C.3     1  UNL1        0.0238
     22 C          -4.9135    1.1020   -0.6439 C.3     1  UNL1        0.1998
     23 C          -5.9031    2.2652   -0.8390 C.3     1  UNL1        0.4266
     24 F          -7.1536    1.7330   -1.0745 F       1  UNL1       -0.1669
     25 F          -5.8613    3.0465    0.2744 F       1  UNL1       -0.1669
     26 F          -5.4398    2.9492   -1.9611 F       1  UNL1       -0.1669
     27 O          -5.0138    0.3295   -1.7995 O.2     1  UNL1       -0.4534
     28 C          -3.9211   -0.1785   -2.4913 C.2     1  UNL1        0.2765
     29 N          -4.1628   -0.9559   -3.6842 N.pl3   1  UNL1       -0.3134
     30 N          -2.7552    0.0470   -2.0683 N.2     1  UNL1       -0.2241
     31 N          -0.5015    0.2147    0.4543 N.ar    1  UNL1       -0.2314
     32 H           4.2641   -1.3542   -1.2553 H       1  UNL1        0.0278
     33 H           5.7509   -2.2382   -0.8787 H       1  UNL1        0.0278
     34 H           4.2595   -2.8293   -0.1330 H       1  UNL1        0.0278
     35 H           7.1664   -1.1888    0.5954 H       1  UNL1        0.0634
     36 H           5.7441    1.1413    3.7973 H       1  UNL1        0.0843
     37 H           1.6871    0.3505    2.6142 H       1  UNL1        0.1566
     38 H           0.0988   -2.3071    2.6069 H       1  UNL1        0.0653
     39 H          -2.2328   -2.8743    1.8689 H       1  UNL1        0.0648
     40 H          -1.8168    2.3050   -2.2778 H       1  UNL1        0.0257
     41 H          -1.2144    2.5833   -0.6301 H       1  UNL1        0.0257
     42 H          -0.4105    1.2767   -1.6497 H       1  UNL1        0.0257
     43 H          -3.4894    2.6184   -0.8871 H       1  UNL1        0.0331
     44 H          -3.3839    1.8768    0.7084 H       1  UNL1        0.0331
     45 H          -5.3549    0.5445    0.2287 H       1  UNL1        0.0826
     46 H          -3.5066   -0.8674   -4.4593 H       1  UNL1        0.1466
     47 H          -4.9808   -1.5636   -3.7051 H       1  UNL1        0.1466
@<TRIPOS>BOND
     1     1     2    1
     2     2     3   ar
     3     3     4   ar
     4     4     5    1
     5     5     6    3
     6     4     7   ar
     7     7     8   ar
     8     8     9   ar
     9     9    10    1
    10    10    11    2
    11    10    12   am
    12    12    13    1
    13    13    14   ar
    14    14    15   ar
    15    15    16   ar
    16    16    17    1
    17    16    18   ar
    18    18    19    1
    19    19    20    1
    20    19    21    1
    21    21    22    1
    22    22    23    1
    23    23    24    1
    24    23    25    1
    25    23    26    1
    26    22    27    1
    27    27    28    1
    28    28    29    1
    29    28    30    2
    30    18    31   ar
    31     9     2   ar
    32    31    13   ar
    33    30    19    1
    34     1    32    1
    35     1    33    1
    36     1    34    1
    37     3    35    1
    38     7    36    1
    39    12    37    1
    40    14    38    1
    41    15    39    1
    42    20    40    1
    43    20    41    1
    44    20    42    1
    45    21    43    1
    46    21    44    1
    47    22    45    1
    48    29    46    1
    49    29    47    1
