
     RDKit          3D

 47 49  0  0  0  0  0  0  0  0999 V2000
    4.7902   -1.9040   -0.4409 C   0  0  0  0  0  0  0  0  0  0  0  0
    5.0123   -1.0499    0.7469 C   0  0  0  0  0  0  0  0  0  0  0  0
    6.3198   -0.7881    1.1346 C   0  0  0  0  0  0  0  0  0  0  0  0
    6.5985    0.0077    2.2426 C   0  0  0  0  0  0  0  0  0  0  0  0
    7.9676    0.2592    2.6172 C   0  0  0  0  0  0  0  0  0  0  0  0
    9.0551    0.4792    2.9179 N   0  0  0  0  0  0  0  0  0  0  0  0
    5.5189    0.5181    2.9293 C   0  0  0  0  0  0  0  0  0  0  0  0
    4.2612    0.2475    2.5303 N   0  0  0  0  0  0  0  0  0  0  0  0
    3.9898   -0.5192    1.4626 C   0  0  0  0  0  0  0  0  0  0  0  0
    2.6162   -0.7812    1.0739 C   0  0  0  0  0  0  0  0  0  0  0  0
    2.3453   -1.5065    0.0691 O   0  0  0  0  0  0  0  0  0  0  0  0
    1.4922   -0.2506    1.7825 N   0  0  0  0  0  0  0  0  0  0  0  0
    0.1665   -0.5481    1.3463 C   0  0  0  0  0  0  0  0  0  0  0  0
   -0.4282   -1.6749    1.8806 C   0  0  0  0  0  0  0  0  0  0  0  0
   -1.7034   -2.0070    1.4932 C   0  0  0  0  0  0  0  0  0  0  0  0
   -2.3487   -1.1790    0.5644 C   0  0  0  0  0  0  0  0  0  0  0  0
   -3.5852   -1.4731    0.1637 F   0  0  0  0  0  0  0  0  0  0  0  0
   -1.7426   -0.0673    0.0470 C   0  0  0  0  0  0  0  0  0  0  0  0
   -2.4150    0.7949   -0.9127 C   0  0  2  0  0  0  0  0  0  0  0  0
   -1.3363    1.8050   -1.4110 C   0  0  0  0  0  0  0  0  0  0  0  0
   -3.5292    1.6112   -0.3828 C   0  0  0  0  0  0  0  0  0  0  0  0
   -4.9135    1.1020   -0.6439 C   0  0  1  0  0  0  0  0  0  0  0  0
   -5.9031    2.2652   -0.8390 C   0  0  0  0  0  0  0  0  0  0  0  0
   -7.1536    1.7330   -1.0745 F   0  0  0  0  0  0  0  0  0  0  0  0
   -5.8613    3.0465    0.2744 F   0  0  0  0  0  0  0  0  0  0  0  0
   -5.4398    2.9492   -1.9611 F   0  0  0  0  0  0  0  0  0  0  0  0
   -5.0138    0.3295   -1.7995 O   0  0  0  0  0  0  0  0  0  0  0  0
   -3.9211   -0.1785   -2.4913 C   0  0  0  0  0  0  0  0  0  0  0  0
   -4.1628   -0.9559   -3.6842 N   0  0  0  0  0  0  0  0  0  0  0  0
   -2.7552    0.0470   -2.0683 N   0  0  0  0  0  0  0  0  0  0  0  0
   -0.5015    0.2147    0.4543 N   0  0  0  0  0  0  0  0  0  0  0  0
    4.2641   -1.3542   -1.2553 H   0  0  0  0  0  0  0  0  0  0  0  0
    5.7509   -2.2382   -0.8787 H   0  0  0  0  0  0  0  0  0  0  0  0
    4.2595   -2.8293   -0.1330 H   0  0  0  0  0  0  0  0  0  0  0  0
    7.1664   -1.1888    0.5954 H   0  0  0  0  0  0  0  0  0  0  0  0
    5.7441    1.1413    3.7973 H   0  0  0  0  0  0  0  0  0  0  0  0
    1.6871    0.3505    2.6142 H   0  0  0  0  0  0  0  0  0  0  0  0
    0.0988   -2.3071    2.6069 H   0  0  0  0  0  0  0  0  0  0  0  0
   -2.2328   -2.8743    1.8689 H   0  0  0  0  0  0  0  0  0  0  0  0
   -1.8168    2.3050   -2.2778 H   0  0  0  0  0  0  0  0  0  0  0  0
   -1.2144    2.5833   -0.6301 H   0  0  0  0  0  0  0  0  0  0  0  0
   -0.4105    1.2767   -1.6497 H   0  0  0  0  0  0  0  0  0  0  0  0
   -3.4894    2.6184   -0.8871 H   0  0  0  0  0  0  0  0  0  0  0  0
   -3.3839    1.8768    0.7084 H   0  0  0  0  0  0  0  0  0  0  0  0
   -5.3549    0.5445    0.2287 H   0  0  0  0  0  0  0  0  0  0  0  0
   -3.5066   -0.8674   -4.4593 H   0  0  0  0  0  0  0  0  0  0  0  0
   -4.9808   -1.5636   -3.7051 H   0  0  0  0  0  0  0  0  0  0  0  0
  1  2  1  0
  2  3  2  0
  3  4  1  0
  4  5  1  0
  5  6  3  0
  4  7  2  0
  7  8  1  0
  8  9  2  0
  9 10  1  0
 10 11  2  0
 10 12  1  0
 12 13  1  0
 13 14  2  0
 14 15  1  0
 15 16  2  0
 16 17  1  0
 16 18  1  0
 18 19  1  0
 19 20  1  6
 19 21  1  0
 21 22  1  0
 22 23  1  0
 23 24  1  0
 23 25  1  0
 23 26  1  0
 22 27  1  0
 27 28  1  0
 28 29  1  0
 28 30  2  0
 18 31  2  0
  9  2  1  0
 31 13  1  0
 30 19  1  0
  1 32  1  0
  1 33  1  0
  1 34  1  0
  3 35  1  0
  7 36  1  0
 12 37  1  0
 14 38  1  0
 15 39  1  0
 20 40  1  0
 20 41  1  0
 20 42  1  0
 21 43  1  0
 21 44  1  0
 22 45  1  1
 29 46  1  0
 29 47  1  0
M  END
$$$$
