@<TRIPOS>MOLECULE
*****
 21 20 0 0 0
SMALL
GASTEIGER

@<TRIPOS>ATOM
      1 N           1.4000   -0.9090   -0.7388 N.3     1  UNL1       -0.3158
      2 CA          1.3397    0.5195   -0.8607 C.3     1  UNL1        0.1375
      3 C          -0.0420    1.0634   -1.0955 C.3     1  UNL1        0.1302
      4 N          -0.9836    0.7569   -0.0506 N.pl3   1  UNL1       -0.1094
      5 C          -1.5167   -0.4106    0.0298 C.2     1  UNL1        0.4066
      6 N          -1.2560   -1.5000   -0.8632 N.pl3   1  UNL1       -0.2871
      7 N          -2.4388   -0.5865    1.1170 N.3     1  UNL1       -0.1421
      8 O          -3.1602    0.4309    1.6748 O.3     1  UNL1       -0.2333
      9 C           1.9851    1.1117    0.3372 C.2     1  UNL1        0.3250
     10 O           2.5467    0.3636    1.3888 O.3     1  UNL1       -0.4795
     11 OXT         2.1344    2.3501    0.6059 O.2     1  UNL1       -0.2491
     12 H1          1.8189   -1.2105    0.1572 H       1  UNL1        0.1191
     13 H2          1.7503   -1.3967   -1.5813 H       1  UNL1        0.1191
     14 HA          1.9452    0.8248   -1.7385 H       1  UNL1        0.0607
     15 H           0.0532    2.1401   -1.3079 H       1  UNL1        0.0714
     16 H          -0.3859    0.6000   -2.0614 H       1  UNL1        0.0714
     17 H          -1.0707   -2.3859   -0.3159 H       1  UNL1        0.2547
     18 H          -1.2265   -1.5344   -1.9068 H       1  UNL1        0.2547
     19 H          -2.5831   -1.5579    1.5264 H       1  UNL1        0.2985
     20 H          -3.7615    0.7311    0.9392 H       1  UNL1        0.2622
     21 H           3.4517    0.5996    1.8066 H       1  UNL1        0.2951
@<TRIPOS>BOND
     1     1     2    1
     2     2     3    1
     3     3     4    1
     4     4     5    2
     5     5     6    1
     6     5     7    1
     7     7     8    1
     8     2     9    1
     9     9    10    1
    10     9    11    2
    11     1    12    1
    12     1    13    1
    13     2    14    1
    14     3    15    1
    15     3    16    1
    16     6    17    1
    17     6    18    1
    18     7    19    1
    19     8    20    1
    20    10    21    1
