
     RDKit          3D

 49 51  0  0  0  0  0  0  0  0999 V2000
    9.2531    0.6006    0.3796 C   0  0  0  0  0  0  0  0  0  0  0  0
    8.2079    0.5246   -0.4258 C   0  0  0  0  0  0  0  0  0  0  0  0
    6.9148    0.1402    0.1185 C   0  0  0  0  0  0  0  0  0  0  0  0
    6.8110   -0.1136    1.3438 O   0  0  0  0  0  0  0  0  0  0  0  0
    5.7426    0.0333   -0.6672 N   0  0  0  0  0  0  0  0  0  0  0  0
    4.4666   -0.3402   -0.1595 C   0  0  0  0  0  0  0  0  0  0  0  0
    4.0289   -1.6448   -0.0965 C   0  0  0  0  0  0  0  0  0  0  0  0
    2.7646   -1.9366    0.4125 C   0  0  0  0  0  0  0  0  0  0  0  0
    1.9093   -0.9542    0.8677 C   0  0  0  0  0  0  0  0  0  0  0  0
    0.3316   -1.3591    1.4988 S   0  0  0  0  0  6  0  0  0  0  0  0
    0.4162   -2.7558    2.0614 O   0  0  0  0  0  0  0  0  0  0  0  0
   -0.1016   -0.3860    2.5703 O   0  0  0  0  0  0  0  0  0  0  0  0
   -0.8579   -1.3794    0.2526 N   0  0  0  0  0  0  0  0  0  0  0  0
   -0.9733   -0.0889   -0.3476 C   0  0  0  0  0  0  0  0  0  0  0  0
   -2.2429    0.6251    0.1794 C   0  0  0  0  0  0  0  0  0  0  0  0
   -3.3269   -0.1588   -0.3567 N   0  0  0  0  0  0  0  0  0  0  0  0
   -4.3609    0.4442   -1.0865 C   0  0  0  0  0  0  0  0  0  0  0  0
   -4.4633    0.2255   -2.4374 N   0  0  0  0  0  0  0  0  0  0  0  0
   -5.4181    0.7665   -3.1925 C   0  0  0  0  0  0  0  0  0  0  0  0
   -6.3531    1.5838   -2.6126 C   0  0  0  0  0  0  0  0  0  0  0  0
   -6.3187    1.8518   -1.2656 C   0  0  0  0  0  0  0  0  0  0  0  0
   -5.2927    1.2585   -0.5090 C   0  0  0  0  0  0  0  0  0  0  0  0
   -5.2183    1.5223    0.9505 C   0  0  0  0  0  0  0  0  0  0  0  0
   -5.2717    0.3360    1.6941 F   0  0  0  0  0  0  0  0  0  0  0  0
   -6.4175    2.1696    1.2991 F   0  0  0  0  0  0  0  0  0  0  0  0
   -4.2220    2.3641    1.3297 F   0  0  0  0  0  0  0  0  0  0  0  0
   -3.2728   -1.5917   -0.0942 C   0  0  0  0  0  0  0  0  0  0  0  0
   -2.1006   -1.8075    0.8396 C   0  0  0  0  0  0  0  0  0  0  0  0
    2.3576    0.3498    0.8002 C   0  0  0  0  0  0  0  0  0  0  0  0
    3.6171    0.6501    0.2941 C   0  0  0  0  0  0  0  0  0  0  0  0
   10.2361    0.8776    0.0465 H   0  0  0  0  0  0  0  0  0  0  0  0
    9.1706    0.3805    1.4531 H   0  0  0  0  0  0  0  0  0  0  0  0
    8.3345    0.7466   -1.4573 H   0  0  0  0  0  0  0  0  0  0  0  0
    5.8214    0.2422   -1.6842 H   0  0  0  0  0  0  0  0  0  0  0  0
    4.6843   -2.4200   -0.4474 H   0  0  0  0  0  0  0  0  0  0  0  0
    2.4170   -2.9634    0.4635 H   0  0  0  0  0  0  0  0  0  0  0  0
   -1.1875   -0.2521   -1.4389 H   0  0  0  0  0  0  0  0  0  0  0  0
   -0.0965    0.5500   -0.2948 H   0  0  0  0  0  0  0  0  0  0  0  0
   -2.2070    0.6522    1.2883 H   0  0  0  0  0  0  0  0  0  0  0  0
   -2.1718    1.6479   -0.1932 H   0  0  0  0  0  0  0  0  0  0  0  0
   -5.4699    0.5759   -4.2434 H   0  0  0  0  0  0  0  0  0  0  0  0
   -7.1587    2.0530   -3.1914 H   0  0  0  0  0  0  0  0  0  0  0  0
   -7.0343    2.4846   -0.7878 H   0  0  0  0  0  0  0  0  0  0  0  0
   -3.0868   -2.1823   -0.9931 H   0  0  0  0  0  0  0  0  0  0  0  0
   -4.1758   -1.9381    0.4449 H   0  0  0  0  0  0  0  0  0  0  0  0
   -2.3162   -1.3147    1.8153 H   0  0  0  0  0  0  0  0  0  0  0  0
   -2.0524   -2.9084    1.0800 H   0  0  0  0  0  0  0  0  0  0  0  0
    1.7159    1.1578    1.1492 H   0  0  0  0  0  0  0  0  0  0  0  0
    3.9685    1.6815    0.2420 H   0  0  0  0  0  0  0  0  0  0  0  0
  1  2  2  3
  2  3  1  0
  3  4  2  0
  3  5  1  0
  5  6  1  0
  6  7  2  0
  7  8  1  0
  8  9  2  0
  9 10  1  0
 10 11  2  0
 10 12  2  0
 10 13  1  0
 13 14  1  0
 14 15  1  0
 15 16  1  0
 16 17  1  0
 17 18  2  0
 18 19  1  0
 19 20  2  0
 20 21  1  0
 21 22  2  0
 22 23  1  0
 23 24  1  0
 23 25  1  0
 23 26  1  0
 16 27  1  0
 27 28  1  0
  9 29  1  0
 29 30  2  0
 30  6  1  0
 28 13  1  0
 22 17  1  0
  1 31  1  0
  1 32  1  0
  2 33  1  0
  5 34  1  0
  7 35  1  0
  8 36  1  0
 14 37  1  0
 14 38  1  0
 15 39  1  0
 15 40  1  0
 19 41  1  0
 20 42  1  0
 21 43  1  0
 27 44  1  0
 27 45  1  0
 28 46  1  0
 28 47  1  0
 29 48  1  0
 30 49  1  0
M  END
$$$$
