@<TRIPOS>MOLECULE
*****
 49 51 0 0 0
SMALL
GASTEIGER

@<TRIPOS>ATOM
      1 C           9.2531    0.6006    0.3796 C.2     1  UNL1       -0.0938
      2 C           8.2079    0.5246   -0.4258 C.2     1  UNL1       -0.0066
      3 C           6.9148    0.1402    0.1185 C.2     1  UNL1        0.2405
      4 O           6.8110   -0.1136    1.3438 O.2     1  UNL1       -0.2705
      5 N           5.7426    0.0333   -0.6672 N.am    1  UNL1       -0.2820
      6 C           4.4666   -0.3402   -0.1595 C.ar    1  UNL1        0.0338
      7 C           4.0289   -1.6448   -0.0965 C.ar    1  UNL1       -0.0386
      8 C           2.7646   -1.9366    0.4125 C.ar    1  UNL1       -0.0336
      9 C           1.9093   -0.9542    0.8677 C.ar    1  UNL1        0.1056
     10 S           0.3316   -1.3591    1.4988 S.O2    1  UNL1        0.0609
     11 O           0.4162   -2.7558    2.0614 O.2     1  UNL1       -0.1528
     12 O          -0.1016   -0.3860    2.5703 O.2     1  UNL1       -0.1528
     13 N          -0.8579   -1.3794    0.2526 N.3     1  UNL1       -0.1736
     14 C          -0.9733   -0.0889   -0.3476 C.3     1  UNL1        0.0363
     15 C          -2.2429    0.6251    0.1794 C.3     1  UNL1        0.0280
     16 N          -3.3269   -0.1588   -0.3567 N.pl3   1  UNL1       -0.3122
     17 C          -4.3609    0.4442   -1.0865 C.ar    1  UNL1        0.1330
     18 N          -4.4633    0.2255   -2.4374 N.ar    1  UNL1       -0.2397
     19 C          -5.4181    0.7665   -3.1925 C.ar    1  UNL1        0.0297
     20 C          -6.3531    1.5838   -2.6126 C.ar    1  UNL1       -0.0429
     21 C          -6.3187    1.8518   -1.2656 C.ar    1  UNL1       -0.0453
     22 C          -5.2927    1.2585   -0.5090 C.ar    1  UNL1        0.0946
     23 C          -5.2183    1.5223    0.9505 C.3     1  UNL1        0.4206
     24 F          -5.2717    0.3360    1.6941 F       1  UNL1       -0.1658
     25 F          -6.4175    2.1696    1.2991 F       1  UNL1       -0.1658
     26 F          -4.2220    2.3641    1.3297 F       1  UNL1       -0.1658
     27 C          -3.2728   -1.5917   -0.0942 C.3     1  UNL1        0.0280
     28 C          -2.1006   -1.8075    0.8396 C.3     1  UNL1        0.0363
     29 C           2.3576    0.3498    0.8002 C.ar    1  UNL1       -0.0336
     30 C           3.6171    0.6501    0.2941 C.ar    1  UNL1       -0.0386
     31 H          10.2361    0.8776    0.0465 H       1  UNL1        0.0536
     32 H           9.1706    0.3805    1.4531 H       1  UNL1        0.0536
     33 H           8.3345    0.7466   -1.4573 H       1  UNL1        0.0663
     34 H           5.8214    0.2422   -1.6842 H       1  UNL1        0.1551
     35 H           4.6843   -2.4200   -0.4474 H       1  UNL1        0.0637
     36 H           2.4170   -2.9634    0.4635 H       1  UNL1        0.0638
     37 H          -1.1875   -0.2521   -1.4389 H       1  UNL1        0.0459
     38 H          -0.0965    0.5500   -0.2948 H       1  UNL1        0.0459
     39 H          -2.2070    0.6522    1.2883 H       1  UNL1        0.0477
     40 H          -2.1718    1.6479   -0.1932 H       1  UNL1        0.0477
     41 H          -5.4699    0.5759   -4.2434 H       1  UNL1        0.0830
     42 H          -7.1587    2.0530   -3.1914 H       1  UNL1        0.0633
     43 H          -7.0343    2.4846   -0.7878 H       1  UNL1        0.0625
     44 H          -3.0868   -2.1823   -0.9931 H       1  UNL1        0.0477
     45 H          -4.1758   -1.9381    0.4449 H       1  UNL1        0.0477
     46 H          -2.3162   -1.3147    1.8153 H       1  UNL1        0.0459
     47 H          -2.0524   -2.9084    1.0800 H       1  UNL1        0.0459
     48 H           1.7159    1.1578    1.1492 H       1  UNL1        0.0638
     49 H           3.9685    1.6815    0.2420 H       1  UNL1        0.0637
@<TRIPOS>BOND
     1     1     2    2
     2     2     3    1
     3     3     4    2
     4     3     5   am
     5     5     6    1
     6     6     7   ar
     7     7     8   ar
     8     8     9   ar
     9     9    10    1
    10    10    11    2
    11    10    12    2
    12    10    13    1
    13    13    14    1
    14    14    15    1
    15    15    16    1
    16    16    17    1
    17    17    18   ar
    18    18    19   ar
    19    19    20   ar
    20    20    21   ar
    21    21    22   ar
    22    22    23    1
    23    23    24    1
    24    23    25    1
    25    23    26    1
    26    16    27    1
    27    27    28    1
    28     9    29   ar
    29    29    30   ar
    30    30     6   ar
    31    28    13    1
    32    22    17   ar
    33     1    31    1
    34     1    32    1
    35     2    33    1
    36     5    34    1
    37     7    35    1
    38     8    36    1
    39    14    37    1
    40    14    38    1
    41    15    39    1
    42    15    40    1
    43    19    41    1
    44    20    42    1
    45    21    43    1
    46    27    44    1
    47    27    45    1
    48    28    46    1
    49    28    47    1
    50    29    48    1
    51    30    49    1
