
     RDKit          3D

 43 45  0  0  0  0  0  0  0  0999 V2000
   -1.2879   -2.3025    0.2326 C   0  0  0  0  0  0  0  0  0  0  0  0
   -1.0406   -1.6072   -1.0959 C   0  0  2  0  0  0  0  0  0  0  0  0
    0.0981   -2.4206   -1.7395 C   0  0  0  0  0  0  0  0  0  0  0  0
    0.6576   -1.7482   -2.9224 C   0  0  0  0  0  0  0  0  0  0  0  0
    0.9340   -0.3660   -2.5885 N   0  0  0  0  0  0  0  0  0  0  0  0
    1.4244    0.4223   -3.6657 C   0  0  0  0  0  0  0  0  0  0  0  0
    1.4797   -0.0233   -4.8672 O   0  0  0  0  0  0  0  0  0  0  0  0
    1.9001    1.8377   -3.3964 C   0  0  0  0  0  0  0  0  0  0  0  0
    3.2206    1.7226   -2.9047 C   0  0  0  0  0  0  0  0  0  0  0  0
    4.5268    1.6045   -2.4442 N   0  0  0  0  0  0  0  0  0  0  0  0
    0.6618    0.1584   -1.3214 C   0  0  0  0  0  0  0  0  0  0  0  0
   -0.7410   -0.1441   -0.9783 C   0  0  2  0  0  0  0  0  0  0  0  0
   -1.1879    0.4261    0.3441 N   0  0  0  0  0  0  0  0  0  0  0  0
   -2.6261    0.5578    0.3913 C   0  0  0  0  0  0  0  0  0  0  0  0
   -0.2798    0.8366    1.2455 C   0  0  0  0  0  0  0  0  0  0  0  0
    0.9510    1.3536    1.0705 N   0  0  0  0  0  0  0  0  0  0  0  0
    1.8856    1.7780    1.8344 C   0  0  0  0  0  0  0  0  0  0  0  0
    1.6570    1.7318    3.2378 N   0  0  0  0  0  0  0  0  0  0  0  0
    0.4167    1.2167    3.5249 C   0  0  0  0  0  0  0  0  0  0  0  0
    0.0285    1.0815    4.8321 N   0  0  0  0  0  0  0  0  0  0  0  0
   -1.1904    0.5566    4.8428 C   0  0  0  0  0  0  0  0  0  0  0  0
   -1.5577    0.3560    3.4910 C   0  0  0  0  0  0  0  0  0  0  0  0
   -0.4755    0.8100    2.7241 C   0  0  0  0  0  0  0  0  0  0  0  0
   -2.3750   -2.5577    0.3390 H   0  0  0  0  0  0  0  0  0  0  0  0
   -0.7579   -3.3070    0.2342 H   0  0  0  0  0  0  0  0  0  0  0  0
   -0.9506   -1.7394    1.1012 H   0  0  0  0  0  0  0  0  0  0  0  0
   -1.9321   -1.7902   -1.7483 H   0  0  0  0  0  0  0  0  0  0  0  0
    0.9209   -2.5482   -0.9525 H   0  0  0  0  0  0  0  0  0  0  0  0
   -0.2999   -3.4572   -1.9754 H   0  0  0  0  0  0  0  0  0  0  0  0
   -0.0129   -1.7857   -3.7865 H   0  0  0  0  0  0  0  0  0  0  0  0
    1.6381   -2.2428   -3.2441 H   0  0  0  0  0  0  0  0  0  0  0  0
    2.1168    2.1716   -4.5830 H   0  0  0  0  0  0  0  0  0  0  0  0
    1.2157    2.5330   -3.1519 H   0  0  0  0  0  0  0  0  0  0  0  0
    1.3589   -0.3136   -0.5725 H   0  0  0  0  0  0  0  0  0  0  0  0
    0.9124    1.2481   -1.2820 H   0  0  0  0  0  0  0  0  0  0  0  0
   -1.3933    0.3968   -1.7282 H   0  0  0  0  0  0  0  0  0  0  0  0
   -2.8580    1.2084   -0.5453 H   0  0  0  0  0  0  0  0  0  0  0  0
   -3.1093   -0.4326    0.1634 H   0  0  0  0  0  0  0  0  0  0  0  0
   -3.0804    1.0799    1.2110 H   0  0  0  0  0  0  0  0  0  0  0  0
    2.8479    2.1625    1.5751 H   0  0  0  0  0  0  0  0  0  0  0  0
    0.6254    1.3154    5.6449 H   0  0  0  0  0  0  0  0  0  0  0  0
   -1.8728    0.2854    5.6155 H   0  0  0  0  0  0  0  0  0  0  0  0
   -2.4487   -0.0649    3.1114 H   0  0  0  0  0  0  0  0  0  0  0  0
  1  2  1  0
  2  3  1  0
  3  4  1  0
  4  5  1  0
  5  6  1  0
  6  7  2  0
  6  8  1  0
  8  9  1  0
  9 10  3  0
  5 11  1  0
 11 12  1  0
 12 13  1  0
 13 14  1  0
 13 15  1  0
 15 16  2  0
 16 17  1  0
 17 18  2  0
 18 19  1  0
 19 20  1  0
 20 21  1  0
 21 22  2  0
 22 23  1  0
 12  2  1  0
 23 15  1  0
 23 19  2  0
  1 24  1  0
  1 25  1  0
  1 26  1  0
  2 27  1  6
  3 28  1  0
  3 29  1  0
  4 30  1  0
  4 31  1  0
  8 32  1  0
  8 33  1  0
 11 34  1  0
 11 35  1  0
 12 36  1  6
 14 37  1  0
 14 38  1  0
 14 39  1  0
 17 40  1  0
 20 41  1  0
 21 42  1  0
 22 43  1  0
M  END
$$$$
