@<TRIPOS>MOLECULE
*****
 43 45 0 0 0
SMALL
GASTEIGER

@<TRIPOS>ATOM
      1 C          -1.2879   -2.3025    0.2326 C.3     1  UNL1       -0.0606
      2 C          -1.0406   -1.6072   -1.0959 C.3     1  UNL1       -0.0224
      3 C           0.0981   -2.4206   -1.7395 C.3     1  UNL1       -0.0328
      4 C           0.6576   -1.7482   -2.9224 C.3     1  UNL1        0.0151
      5 N           0.9340   -0.3660   -2.5885 N.am    1  UNL1       -0.2989
      6 C           1.4244    0.4223   -3.6657 C.2     1  UNL1        0.2295
      7 O           1.4797   -0.0233   -4.8672 O.2     1  UNL1       -0.2745
      8 C           1.9001    1.8377   -3.3964 C.3     1  UNL1        0.1112
      9 C           3.2206    1.7226   -2.9047 C.1     1  UNL1        0.0719
     10 N           4.5268    1.6045   -2.4442 N.1     1  UNL1       -0.1961
     11 C           0.6618    0.1584   -1.3214 C.3     1  UNL1        0.0335
     12 C          -0.7410   -0.1441   -0.9783 C.3     1  UNL1        0.0429
     13 N          -1.1879    0.4261    0.3441 N.pl3   1  UNL1       -0.3128
     14 C          -2.6261    0.5578    0.3913 C.3     1  UNL1        0.0024
     15 C          -0.2798    0.8366    1.2455 C.ar    1  UNL1        0.1338
     16 N           0.9510    1.3536    1.0705 N.ar    1  UNL1       -0.2200
     17 C           1.8856    1.7780    1.8344 C.ar    1  UNL1        0.1204
     18 N           1.6570    1.7318    3.2378 N.ar    1  UNL1       -0.2178
     19 C           0.4167    1.2167    3.5249 C.ar    1  UNL1        0.1432
     20 N           0.0285    1.0815    4.8321 N.ar    1  UNL1       -0.3457
     21 C          -1.1904    0.5566    4.8428 C.ar    1  UNL1        0.0042
     22 C          -1.5577    0.3560    3.4910 C.ar    1  UNL1       -0.0318
     23 C          -0.4755    0.8100    2.7241 C.ar    1  UNL1        0.0585
     24 H          -2.3750   -2.5577    0.3390 H       1  UNL1        0.0233
     25 H          -0.7579   -3.3070    0.2342 H       1  UNL1        0.0233
     26 H          -0.9506   -1.7394    1.1012 H       1  UNL1        0.0233
     27 H          -1.9321   -1.7902   -1.7483 H       1  UNL1        0.0317
     28 H           0.9209   -2.5482   -0.9525 H       1  UNL1        0.0284
     29 H          -0.2999   -3.4572   -1.9754 H       1  UNL1        0.0284
     30 H          -0.0129   -1.7857   -3.7865 H       1  UNL1        0.0465
     31 H           1.6381   -2.2428   -3.2441 H       1  UNL1        0.0465
     32 H           2.1168    2.1716   -4.5830 H       1  UNL1        0.0513
     33 H           1.2157    2.5330   -3.1519 H       1  UNL1        0.0513
     34 H           1.3589   -0.3136   -0.5725 H       1  UNL1        0.0483
     35 H           0.9124    1.2481   -1.2820 H       1  UNL1        0.0483
     36 H          -1.3933    0.3968   -1.7282 H       1  UNL1        0.0518
     37 H          -2.8580    1.2084   -0.5453 H       1  UNL1        0.0428
     38 H          -3.1093   -0.4326    0.1634 H       1  UNL1        0.0428
     39 H          -3.0804    1.0799    1.2110 H       1  UNL1        0.0428
     40 H           2.8479    2.1625    1.5751 H       1  UNL1        0.1048
     41 H           0.6254    1.3154    5.6449 H       1  UNL1        0.1668
     42 H          -1.8728    0.2854    5.6155 H       1  UNL1        0.0807
     43 H          -2.4487   -0.0649    3.1114 H       1  UNL1        0.0640
@<TRIPOS>BOND
     1     1     2    1
     2     2     3    1
     3     3     4    1
     4     4     5    1
     5     5     6   am
     6     6     7    2
     7     6     8    1
     8     8     9    1
     9     9    10    3
    10     5    11    1
    11    11    12    1
    12    12    13    1
    13    13    14    1
    14    13    15    1
    15    15    16   ar
    16    16    17   ar
    17    17    18   ar
    18    18    19   ar
    19    19    20   ar
    20    20    21   ar
    21    21    22   ar
    22    22    23   ar
    23    12     2    1
    24    23    15   ar
    25    23    19   ar
    26     1    24    1
    27     1    25    1
    28     1    26    1
    29     2    27    1
    30     3    28    1
    31     3    29    1
    32     4    30    1
    33     4    31    1
    34     8    32    1
    35     8    33    1
    36    11    34    1
    37    11    35    1
    38    12    36    1
    39    14    37    1
    40    14    38    1
    41    14    39    1
    42    17    40    1
    43    20    41    1
    44    21    42    1
    45    22    43    1
