@<TRIPOS>MOLECULE
*****
 74 79 0 0 0
SMALL
GASTEIGER

@<TRIPOS>ATOM
      1 C          -5.1332   -5.9131    0.6263 C.3     1  UNL1       -0.0151
      2 N          -5.7508   -5.3005   -0.4788 N.3     1  UNL1       -0.3089
      3 C          -5.5863   -3.9007   -0.6670 C.3     1  UNL1        0.0820
      4 C          -6.2683   -3.1360    0.5102 C.3     1  UNL1       -0.0411
      5 C          -4.1719   -3.4155   -0.6503 C.2     1  UNL1        0.2350
      6 O          -3.2059   -4.1471   -0.2282 O.2     1  UNL1       -0.2737
      7 N          -3.8682   -2.1754   -1.0581 N.am    1  UNL1       -0.2691
      8 C          -2.8404   -1.2876   -1.1658 C.ar    1  UNL1        0.1263
      9 C          -2.9314   -0.0811   -1.8424 C.ar    1  UNL1       -0.0208
     10 C          -2.1880    1.0503   -1.6725 C.ar    1  UNL1       -0.0466
     11 C          -1.1674    1.0193   -0.6537 C.ar    1  UNL1        0.0349
     12 C          -0.4640    2.1074   -0.1318 C.ar    1  UNL1        0.0837
     13 C           0.1197    3.1585   -0.7694 C.ar    1  UNL1        0.0992
     14 C           0.0230    3.7507   -2.0754 C.ar    1  UNL1        0.0206
     15 C          -0.6294    5.0864   -1.9693 C.ar    1  UNL1       -0.0494
     16 C          -0.6677    5.8379   -3.0639 C.ar    1  UNL1       -0.0400
     17 C          -0.1463    5.5162   -4.3153 C.ar    1  UNL1        0.0382
     18 C          -0.1818    6.5759   -5.3206 C.3     1  UNL1       -0.0224
     19 N           0.4401    4.2870   -4.3645 N.ar    1  UNL1       -0.2595
     20 C           0.4996    3.4612   -3.2406 C.ar    1  UNL1        0.0371
     21 N           0.7475    3.8970    0.2644 N.ar    1  UNL1       -0.2271
     22 C           0.5121    3.2928    1.4391 C.ar    1  UNL1        0.1390
     23 C           0.8318    3.7140    2.7396 C.ar    1  UNL1       -0.0158
     24 C           0.3791    3.0162    3.8677 C.ar    1  UNL1       -0.0456
     25 C           0.5672    3.4675    5.2530 C.3     1  UNL1       -0.0395
     26 C          -0.4189    1.8643    3.5865 C.ar    1  UNL1       -0.0421
     27 C          -0.6724    1.5090    2.3060 C.ar    1  UNL1        0.0120
     28 N          -0.2125    2.2170    1.2526 N.ar    1  UNL1       -0.2986
     29 C          -1.2069   -0.1873   -0.1702 C.ar    1  UNL1        0.1250
     30 C           0.2967   -0.5204    0.2310 C.1     1  UNL1       -0.0404
     31 C           1.6405   -0.7962    0.5758 C.1     1  UNL1       -0.0595
     32 C           2.9552   -1.0881    0.9262 C.ar    1  UNL1        0.0259
     33 C           3.0961   -2.1019    1.9629 C.ar    1  UNL1       -0.0457
     34 C           4.2568   -2.7586    1.8479 C.ar    1  UNL1       -0.0512
     35 C           5.2788   -2.6581    1.0034 C.ar    1  UNL1        0.0032
     36 C           6.3838   -3.4194    0.7686 C.ar    1  UNL1        0.0459
     37 C           6.5652   -4.5384    1.7995 C.3     1  UNL1       -0.0218
     38 N           7.2334   -3.2722   -0.2188 N.ar    1  UNL1       -0.2595
     39 C           7.1384   -2.2847   -1.2022 C.ar    1  UNL1        0.0285
     40 C           6.0055   -1.4903   -0.9850 C.ar    1  UNL1       -0.0358
     41 C           5.1089   -1.5388   -0.0610 C.ar    1  UNL1       -0.0136
     42 C           3.9212   -0.9261    0.0870 C.ar    1  UNL1       -0.0385
     43 N          -1.7804   -1.3660   -0.1585 N.ar    1  UNL1       -0.2229
     44 H          -5.3109   -7.0625    0.4440 H       1  UNL1        0.0388
     45 H          -4.0524   -5.7312    0.7928 H       1  UNL1        0.0388
     46 H          -5.7055   -5.8041    1.5975 H       1  UNL1        0.0388
     47 H          -6.7969   -5.5206   -0.4894 H       1  UNL1        0.1223
     48 H          -6.0843   -3.5334   -1.6059 H       1  UNL1        0.0554
     49 H          -5.4963   -2.8730    1.1795 H       1  UNL1        0.0249
     50 H          -6.7766   -2.2401    0.0630 H       1  UNL1        0.0249
     51 H          -7.0864   -3.7836    0.8989 H       1  UNL1        0.0249
     52 H          -4.8880   -1.6928   -1.5186 H       1  UNL1        0.1563
     53 H          -3.6714   -0.0729   -2.6713 H       1  UNL1        0.0652
     54 H          -2.2840    2.0023   -2.1832 H       1  UNL1        0.0626
     55 H          -1.0060    5.3094   -0.9953 H       1  UNL1        0.0625
     56 H          -1.1126    6.8672   -3.0626 H       1  UNL1        0.0636
     57 H           0.2684    6.3644   -6.2575 H       1  UNL1        0.0292
     58 H          -1.2663    6.8330   -5.5288 H       1  UNL1        0.0292
     59 H           0.2684    7.5376   -4.7926 H       1  UNL1        0.0292
     60 H           1.0496    2.4797   -3.4433 H       1  UNL1        0.0836
     61 H           1.4382    4.5853    2.8070 H       1  UNL1        0.0657
     62 H           0.6316    2.6744    5.9544 H       1  UNL1        0.0278
     63 H           1.4457    4.1954    5.2830 H       1  UNL1        0.0278
     64 H          -0.3539    4.1617    5.5082 H       1  UNL1        0.0278
     65 H          -0.7866    1.2954    4.4548 H       1  UNL1        0.0635
     66 H          -1.2975    0.6321    2.1385 H       1  UNL1        0.0813
     67 H           2.3212   -2.1857    2.6507 H       1  UNL1        0.0630
     68 H           4.4335   -3.5732    2.6348 H       1  UNL1        0.0625
     69 H           7.2687   -5.2673    1.2771 H       1  UNL1        0.0293
     70 H           5.6677   -4.9936    2.1147 H       1  UNL1        0.0293
     71 H           7.1480   -4.0490    2.6142 H       1  UNL1        0.0293
     72 H           7.8581   -2.2621   -1.9321 H       1  UNL1        0.0830
     73 H           5.9289   -0.7054   -1.7929 H       1  UNL1        0.0639
     74 H           3.7391   -0.1126   -0.7237 H       1  UNL1        0.0636
@<TRIPOS>BOND
     1     1     2    1
     2     2     3    1
     3     3     4    1
     4     3     5    1
     5     5     6    2
     6     5     7   am
     7     7     8    1
     8     8     9   ar
     9     9    10   ar
    10    10    11   ar
    11    11    12    1
    12    12    13   ar
    13    13    14    1
    14    14    15   ar
    15    15    16   ar
    16    16    17   ar
    17    17    18    1
    18    17    19   ar
    19    19    20   ar
    20    13    21   ar
    21    21    22   ar
    22    22    23   ar
    23    23    24   ar
    24    24    25    1
    25    24    26   ar
    26    26    27   ar
    27    27    28   ar
    28    11    29   ar
    29    29    30    1
    30    30    31    3
    31    31    32    1
    32    32    33   ar
    33    33    34   ar
    34    34    35   ar
    35    35    36   ar
    36    36    37    1
    37    36    38   ar
    38    38    39   ar
    39    39    40   ar
    40    40    41   ar
    41    41    42   ar
    42    29    43   ar
    43    43     8   ar
    44    28    12   ar
    45    42    32   ar
    46    20    14   ar
    47    28    22   ar
    48    41    35   ar
    49     1    44    1
    50     1    45    1
    51     1    46    1
    52     2    47    1
    53     3    48    1
    54     4    49    1
    55     4    50    1
    56     4    51    1
    57     7    52    1
    58     9    53    1
    59    10    54    1
    60    15    55    1
    61    16    56    1
    62    18    57    1
    63    18    58    1
    64    18    59    1
    65    20    60    1
    66    23    61    1
    67    25    62    1
    68    25    63    1
    69    25    64    1
    70    26    65    1
    71    27    66    1
    72    33    67    1
    73    34    68    1
    74    37    69    1
    75    37    70    1
    76    37    71    1
    77    39    72    1
    78    40    73    1
    79    42    74    1
