
     RDKit          3D

 74 79  0  0  0  0  0  0  0  0999 V2000
   -5.1332   -5.9131    0.6263 C   0  0  0  0  0  0  0  0  0  0  0  0
   -5.7508   -5.3005   -0.4788 N   0  0  0  0  0  0  0  0  0  0  0  0
   -5.5863   -3.9007   -0.6670 C   0  0  1  0  0  0  0  0  0  0  0  0
   -6.2683   -3.1360    0.5102 C   0  0  0  0  0  0  0  0  0  0  0  0
   -4.1719   -3.4155   -0.6503 C   0  0  0  0  0  0  0  0  0  0  0  0
   -3.2059   -4.1471   -0.2282 O   0  0  0  0  0  0  0  0  0  0  0  0
   -3.8682   -2.1754   -1.0581 N   0  0  0  0  0  0  0  0  0  0  0  0
   -2.8404   -1.2876   -1.1658 C   0  0  0  0  0  0  0  0  0  0  0  0
   -2.9314   -0.0811   -1.8424 C   0  0  0  0  0  0  0  0  0  0  0  0
   -2.1880    1.0503   -1.6725 C   0  0  0  0  0  0  0  0  0  0  0  0
   -1.1674    1.0193   -0.6537 C   0  0  0  0  0  0  0  0  0  0  0  0
   -0.4640    2.1074   -0.1318 C   0  0  0  0  0  0  0  0  0  0  0  0
    0.1197    3.1585   -0.7694 C   0  0  0  0  0  0  0  0  0  0  0  0
    0.0230    3.7507   -2.0754 C   0  0  0  0  0  0  0  0  0  0  0  0
   -0.6294    5.0864   -1.9693 C   0  0  0  0  0  0  0  0  0  0  0  0
   -0.6677    5.8379   -3.0639 C   0  0  0  0  0  0  0  0  0  0  0  0
   -0.1463    5.5162   -4.3153 C   0  0  0  0  0  0  0  0  0  0  0  0
   -0.1818    6.5759   -5.3206 C   0  0  0  0  0  0  0  0  0  0  0  0
    0.4401    4.2870   -4.3645 N   0  0  0  0  0  0  0  0  0  0  0  0
    0.4996    3.4612   -3.2406 C   0  0  0  0  0  0  0  0  0  0  0  0
    0.7475    3.8970    0.2644 N   0  0  0  0  0  0  0  0  0  0  0  0
    0.5121    3.2928    1.4391 C   0  0  0  0  0  0  0  0  0  0  0  0
    0.8318    3.7140    2.7396 C   0  0  0  0  0  0  0  0  0  0  0  0
    0.3791    3.0162    3.8677 C   0  0  0  0  0  0  0  0  0  0  0  0
    0.5672    3.4675    5.2530 C   0  0  0  0  0  0  0  0  0  0  0  0
   -0.4189    1.8643    3.5865 C   0  0  0  0  0  0  0  0  0  0  0  0
   -0.6724    1.5090    2.3060 C   0  0  0  0  0  0  0  0  0  0  0  0
   -0.2125    2.2170    1.2526 N   0  0  0  0  0  0  0  0  0  0  0  0
   -1.2069   -0.1873   -0.1702 C   0  0  0  0  0  0  0  0  0  0  0  0
    0.2967   -0.5204    0.2310 C   0  0  0  0  0  0  0  0  0  0  0  0
    1.6405   -0.7962    0.5758 C   0  0  0  0  0  0  0  0  0  0  0  0
    2.9552   -1.0881    0.9262 C   0  0  0  0  0  0  0  0  0  0  0  0
    3.0961   -2.1019    1.9629 C   0  0  0  0  0  0  0  0  0  0  0  0
    4.2568   -2.7586    1.8479 C   0  0  0  0  0  0  0  0  0  0  0  0
    5.2788   -2.6581    1.0034 C   0  0  0  0  0  0  0  0  0  0  0  0
    6.3838   -3.4194    0.7686 C   0  0  0  0  0  0  0  0  0  0  0  0
    6.5652   -4.5384    1.7995 C   0  0  0  0  0  0  0  0  0  0  0  0
    7.2334   -3.2722   -0.2188 N   0  0  0  0  0  0  0  0  0  0  0  0
    7.1384   -2.2847   -1.2022 C   0  0  0  0  0  0  0  0  0  0  0  0
    6.0055   -1.4903   -0.9850 C   0  0  0  0  0  0  0  0  0  0  0  0
    5.1089   -1.5388   -0.0610 C   0  0  0  0  0  0  0  0  0  0  0  0
    3.9212   -0.9261    0.0870 C   0  0  0  0  0  0  0  0  0  0  0  0
   -1.7804   -1.3660   -0.1585 N   0  0  0  0  0  0  0  0  0  0  0  0
   -5.3109   -7.0625    0.4440 H   0  0  0  0  0  0  0  0  0  0  0  0
   -4.0524   -5.7312    0.7928 H   0  0  0  0  0  0  0  0  0  0  0  0
   -5.7055   -5.8041    1.5975 H   0  0  0  0  0  0  0  0  0  0  0  0
   -6.7969   -5.5206   -0.4894 H   0  0  0  0  0  0  0  0  0  0  0  0
   -6.0843   -3.5334   -1.6059 H   0  0  0  0  0  0  0  0  0  0  0  0
   -5.4963   -2.8730    1.1795 H   0  0  0  0  0  0  0  0  0  0  0  0
   -6.7766   -2.2401    0.0630 H   0  0  0  0  0  0  0  0  0  0  0  0
   -7.0864   -3.7836    0.8989 H   0  0  0  0  0  0  0  0  0  0  0  0
   -4.8880   -1.6928   -1.5186 H   0  0  0  0  0  0  0  0  0  0  0  0
   -3.6714   -0.0729   -2.6713 H   0  0  0  0  0  0  0  0  0  0  0  0
   -2.2840    2.0023   -2.1832 H   0  0  0  0  0  0  0  0  0  0  0  0
   -1.0060    5.3094   -0.9953 H   0  0  0  0  0  0  0  0  0  0  0  0
   -1.1126    6.8672   -3.0626 H   0  0  0  0  0  0  0  0  0  0  0  0
    0.2684    6.3644   -6.2575 H   0  0  0  0  0  0  0  0  0  0  0  0
   -1.2663    6.8330   -5.5288 H   0  0  0  0  0  0  0  0  0  0  0  0
    0.2684    7.5376   -4.7926 H   0  0  0  0  0  0  0  0  0  0  0  0
    1.0496    2.4797   -3.4433 H   0  0  0  0  0  0  0  0  0  0  0  0
    1.4382    4.5853    2.8070 H   0  0  0  0  0  0  0  0  0  0  0  0
    0.6316    2.6744    5.9544 H   0  0  0  0  0  0  0  0  0  0  0  0
    1.4457    4.1954    5.2830 H   0  0  0  0  0  0  0  0  0  0  0  0
   -0.3539    4.1617    5.5082 H   0  0  0  0  0  0  0  0  0  0  0  0
   -0.7866    1.2954    4.4548 H   0  0  0  0  0  0  0  0  0  0  0  0
   -1.2975    0.6321    2.1385 H   0  0  0  0  0  0  0  0  0  0  0  0
    2.3212   -2.1857    2.6507 H   0  0  0  0  0  0  0  0  0  0  0  0
    4.4335   -3.5732    2.6348 H   0  0  0  0  0  0  0  0  0  0  0  0
    7.2687   -5.2673    1.2771 H   0  0  0  0  0  0  0  0  0  0  0  0
    5.6677   -4.9936    2.1147 H   0  0  0  0  0  0  0  0  0  0  0  0
    7.1480   -4.0490    2.6142 H   0  0  0  0  0  0  0  0  0  0  0  0
    7.8581   -2.2621   -1.9321 H   0  0  0  0  0  0  0  0  0  0  0  0
    5.9289   -0.7054   -1.7929 H   0  0  0  0  0  0  0  0  0  0  0  0
    3.7391   -0.1126   -0.7237 H   0  0  0  0  0  0  0  0  0  0  0  0
  1  2  1  0
  2  3  1  0
  3  4  1  0
  3  5  1  0
  5  6  2  0
  5  7  1  0
  7  8  1  0
  8  9  2  0
  9 10  1  0
 10 11  2  0
 11 12  1  0
 12 13  2  0
 13 14  1  0
 14 15  2  0
 15 16  1  0
 16 17  2  0
 17 18  1  0
 17 19  1  0
 19 20  2  0
 13 21  1  0
 21 22  2  0
 22 23  1  0
 23 24  2  0
 24 25  1  0
 24 26  1  0
 26 27  2  0
 27 28  1  0
 11 29  1  0
 29 30  1  0
 30 31  3  0
 31 32  1  0
 32 33  2  0
 33 34  1  0
 34 35  2  0
 35 36  1  0
 36 37  1  0
 36 38  2  0
 38 39  1  0
 39 40  2  0
 40 41  1  0
 41 42  2  0
 29 43  2  0
 43  8  1  0
 28 12  1  0
 42 32  1  0
 20 14  1  0
 28 22  1  0
 41 35  1  0
  1 44  1  0
  1 45  1  0
  1 46  1  0
  2 47  1  0
  3 48  1  6
  4 49  1  0
  4 50  1  0
  4 51  1  0
  7 52  1  0
  9 53  1  0
 10 54  1  0
 15 55  1  0
 16 56  1  0
 18 57  1  0
 18 58  1  0
 18 59  1  0
 20 60  1  0
 23 61  1  0
 25 62  1  0
 25 63  1  0
 25 64  1  0
 26 65  1  0
 27 66  1  0
 33 67  1  0
 34 68  1  0
 37 69  1  0
 37 70  1  0
 37 71  1  0
 39 72  1  0
 40 73  1  0
 42 74  1  0
M  END
$$$$
