
     RDKit          3D

 45 48  0  0  0  0  0  0  0  0999 V2000
    6.1524    1.0362    0.4560 C   0  0  0  0  0  0  0  0  0  0  0  0
    4.7604    1.2626   -0.0054 C   0  0  0  0  0  0  0  0  0  0  0  0
    3.5997    0.6447    0.4195 C   0  0  0  0  0  0  0  0  0  0  0  0
    2.5619    1.1905   -0.3030 C   0  0  0  0  0  0  0  0  0  0  0  0
    1.1222    0.8292   -0.1826 C   0  0  1  0  0  0  0  0  0  0  0  0
    0.8312   -0.4265   -0.9207 C   0  0  0  0  0  0  0  0  0  0  0  0
   -0.6751   -0.7404   -0.7707 C   0  0  1  0  0  0  0  0  0  0  0  0
   -0.8345   -2.1213   -1.3100 C   0  0  1  0  0  0  0  0  0  0  0  0
    0.0957   -2.4836   -2.4013 C   0  0  0  0  0  0  0  0  0  0  0  0
   -0.7059   -3.2838    0.1199 S   0  0  0  0  0  0  0  0  0  0  0  0
   -1.9774   -2.6136    1.1866 C   0  0  0  0  0  0  0  0  0  0  0  0
   -2.8127   -3.5085    1.8801 N   0  0  0  0  0  0  0  0  0  0  0  0
   -2.0368   -1.3688    1.2430 N   0  0  0  0  0  0  0  0  0  0  0  0
   -1.2085   -0.4211    0.5588 C   0  0  2  0  0  0  0  0  0  0  0  0
   -2.0982    0.7931    0.4097 C   0  0  0  0  0  0  0  0  0  0  0  0
   -1.7959    2.0087    0.9515 C   0  0  0  0  0  0  0  0  0  0  0  0
   -2.6552    3.1025    0.7939 C   0  0  0  0  0  0  0  0  0  0  0  0
   -3.8257    2.9790    0.0891 C   0  0  0  0  0  0  0  0  0  0  0  0
   -4.6679    4.0572   -0.0636 F   0  0  0  0  0  0  0  0  0  0  0  0
   -4.1389    1.7578   -0.4604 C   0  0  0  0  0  0  0  0  0  0  0  0
   -3.2752    0.6983   -0.2899 C   0  0  0  0  0  0  0  0  0  0  0  0
   -3.6623   -0.4834   -0.8654 F   0  0  0  0  0  0  0  0  0  0  0  0
   -0.1338   -0.0592    1.5729 C   0  0  0  0  0  0  0  0  0  0  0  0
    0.8449    0.7648    1.1650 O   0  0  0  0  0  0  0  0  0  0  0  0
    3.1040    2.0759   -1.1004 O   0  0  0  0  0  0  0  0  0  0  0  0
    4.3892    2.1338   -0.9422 N   0  0  0  0  0  0  0  0  0  0  0  0
    6.4219    1.6610    1.3323 H   0  0  0  0  0  0  0  0  0  0  0  0
    6.2737   -0.0250    0.7944 H   0  0  0  0  0  0  0  0  0  0  0  0
    6.8897    1.2638   -0.3405 H   0  0  0  0  0  0  0  0  0  0  0  0
    3.5642   -0.1182    1.1792 H   0  0  0  0  0  0  0  0  0  0  0  0
    0.5590    1.6499   -0.6703 H   0  0  0  0  0  0  0  0  0  0  0  0
    1.0794   -0.2718   -1.9892 H   0  0  0  0  0  0  0  0  0  0  0  0
    1.4335   -1.2730   -0.5271 H   0  0  0  0  0  0  0  0  0  0  0  0
   -1.1326   -0.0658   -1.5668 H   0  0  0  0  0  0  0  0  0  0  0  0
   -1.8741   -2.2944   -1.6936 H   0  0  0  0  0  0  0  0  0  0  0  0
   -0.0567   -3.5829   -2.6149 H   0  0  0  0  0  0  0  0  0  0  0  0
    1.1543   -2.2931   -2.2531 H   0  0  0  0  0  0  0  0  0  0  0  0
   -0.2605   -1.9649   -3.3325 H   0  0  0  0  0  0  0  0  0  0  0  0
   -2.5688   -3.7332    2.8827 H   0  0  0  0  0  0  0  0  0  0  0  0
   -3.6662   -3.9629    1.4481 H   0  0  0  0  0  0  0  0  0  0  0  0
   -0.9063    2.1592    1.5093 H   0  0  0  0  0  0  0  0  0  0  0  0
   -2.4037    4.0504    1.2252 H   0  0  0  0  0  0  0  0  0  0  0  0
   -5.0484    1.6593   -1.0087 H   0  0  0  0  0  0  0  0  0  0  0  0
    0.2471   -1.0554    1.9482 H   0  0  0  0  0  0  0  0  0  0  0  0
   -0.6629    0.3729    2.4470 H   0  0  0  0  0  0  0  0  0  0  0  0
  1  2  1  0
  2  3  1  0
  3  4  2  0
  4  5  1  0
  5  6  1  0
  6  7  1  0
  7  8  1  0
  8  9  1  0
  8 10  1  0
 10 11  1  0
 11 12  1  0
 11 13  2  0
 13 14  1  0
 14 15  1  6
 15 16  2  0
 16 17  1  0
 17 18  2  0
 18 19  1  0
 18 20  1  0
 20 21  2  0
 21 22  1  0
 14 23  1  0
 23 24  1  0
  4 25  1  0
 25 26  1  0
 26  2  2  0
 24  5  1  0
 14  7  1  0
 21 15  1  0
  1 27  1  0
  1 28  1  0
  1 29  1  0
  3 30  1  0
  5 31  1  6
  6 32  1  0
  6 33  1  0
  7 34  1  6
  8 35  1  6
  9 36  1  0
  9 37  1  0
  9 38  1  0
 12 39  1  0
 12 40  1  0
 16 41  1  0
 17 42  1  0
 20 43  1  0
 23 44  1  0
 23 45  1  0
M  END
$$$$
