@<TRIPOS>MOLECULE
*****
 45 48 0 0 0
SMALL
GASTEIGER

@<TRIPOS>ATOM
      1 C           6.1524    1.0362    0.4560 C.3     1  UNL1       -0.0191
      2 C           4.7604    1.2626   -0.0054 C.ar    1  UNL1        0.0809
      3 C           3.5997    0.6447    0.4195 C.ar    1  UNL1        0.0058
      4 C           2.5619    1.1905   -0.3030 C.ar    1  UNL1        0.1660
      5 C           1.1222    0.8292   -0.1826 C.3     1  UNL1        0.1192
      6 C           0.8312   -0.4265   -0.9207 C.3     1  UNL1       -0.0130
      7 C          -0.6751   -0.7404   -0.7707 C.3     1  UNL1        0.0054
      8 C          -0.8345   -2.1213   -1.3100 C.3     1  UNL1        0.0151
      9 C           0.0957   -2.4836   -2.4013 C.3     1  UNL1       -0.0526
     10 S          -0.7059   -3.2838    0.1199 S.3     1  UNL1       -0.0876
     11 C          -1.9774   -2.6136    1.1866 C.2     1  UNL1        0.1478
     12 N          -2.8127   -3.5085    1.8801 N.pl3   1  UNL1       -0.3380
     13 N          -2.0368   -1.3688    1.2430 N.2     1  UNL1       -0.2495
     14 C          -1.2085   -0.4211    0.5588 C.3     1  UNL1        0.1188
     15 C          -2.0982    0.7931    0.4097 C.ar    1  UNL1        0.0178
     16 C          -1.7959    2.0087    0.9515 C.ar    1  UNL1       -0.0507
     17 C          -2.6552    3.1025    0.7939 C.ar    1  UNL1       -0.0259
     18 C          -3.8257    2.9790    0.0891 C.ar    1  UNL1        0.1261
     19 F          -4.6679    4.0572   -0.0636 F       1  UNL1       -0.2054
     20 C          -4.1389    1.7578   -0.4604 C.ar    1  UNL1        0.0091
     21 C          -3.2752    0.6983   -0.2899 C.ar    1  UNL1        0.1317
     22 F          -3.6623   -0.4834   -0.8654 F       1  UNL1       -0.2050
     23 C          -0.1338   -0.0592    1.5729 C.3     1  UNL1        0.0783
     24 O           0.8449    0.7648    1.1650 O.3     1  UNL1       -0.3661
     25 O           3.1040    2.0759   -1.1004 O.2     1  UNL1       -0.3567
     26 N           4.3892    2.1338   -0.9422 N.ar    1  UNL1       -0.0832
     27 H           6.4219    1.6610    1.3323 H       1  UNL1        0.0294
     28 H           6.2737   -0.0250    0.7944 H       1  UNL1        0.0294
     29 H           6.8897    1.2638   -0.3405 H       1  UNL1        0.0294
     30 H           3.5642   -0.1182    1.1792 H       1  UNL1        0.0672
     31 H           0.5590    1.6499   -0.6703 H       1  UNL1        0.0678
     32 H           1.0794   -0.2718   -1.9892 H       1  UNL1        0.0298
     33 H           1.4335   -1.2730   -0.5271 H       1  UNL1        0.0298
     34 H          -1.1326   -0.0658   -1.5668 H       1  UNL1        0.0340
     35 H          -1.8741   -2.2944   -1.6936 H       1  UNL1        0.0417
     36 H          -0.0567   -3.5829   -2.6149 H       1  UNL1        0.0240
     37 H           1.1543   -2.2931   -2.2531 H       1  UNL1        0.0240
     38 H          -0.2605   -1.9649   -3.3325 H       1  UNL1        0.0240
     39 H          -2.5688   -3.7332    2.8827 H       1  UNL1        0.1442
     40 H          -3.6662   -3.9629    1.4481 H       1  UNL1        0.1442
     41 H          -0.9063    2.1592    1.5093 H       1  UNL1        0.0623
     42 H          -2.4037    4.0504    1.2252 H       1  UNL1        0.0646
     43 H          -5.0484    1.6593   -1.0087 H       1  UNL1        0.0675
     44 H           0.2471   -1.0554    1.9482 H       1  UNL1        0.0588
     45 H          -0.6629    0.3729    2.4470 H       1  UNL1        0.0588
@<TRIPOS>BOND
     1     1     2    1
     2     2     3   ar
     3     3     4   ar
     4     4     5    1
     5     5     6    1
     6     6     7    1
     7     7     8    1
     8     8     9    1
     9     8    10    1
    10    10    11    1
    11    11    12    1
    12    11    13    2
    13    13    14    1
    14    14    15    1
    15    15    16   ar
    16    16    17   ar
    17    17    18   ar
    18    18    19    1
    19    18    20   ar
    20    20    21   ar
    21    21    22    1
    22    14    23    1
    23    23    24    1
    24     4    25   ar
    25    25    26   ar
    26    26     2   ar
    27    24     5    1
    28    14     7    1
    29    21    15   ar
    30     1    27    1
    31     1    28    1
    32     1    29    1
    33     3    30    1
    34     5    31    1
    35     6    32    1
    36     6    33    1
    37     7    34    1
    38     8    35    1
    39     9    36    1
    40     9    37    1
    41     9    38    1
    42    12    39    1
    43    12    40    1
    44    16    41    1
    45    17    42    1
    46    20    43    1
    47    23    44    1
    48    23    45    1
