
     RDKit          3D

 45 49  0  0  0  0  0  0  0  0999 V2000
   -4.2199   -1.3641    0.9823 C   0  0  0  0  0  0  0  0  0  0  0  0
   -4.3870   -0.1100    0.6383 C   0  0  0  0  0  0  0  0  0  0  0  0
   -3.2503    0.7045    0.1607 C   0  0  0  0  0  0  0  0  0  0  0  0
   -2.0434    0.0067    0.1959 N   0  0  0  0  0  0  0  0  0  0  0  0
   -1.4314   -0.3030    1.4249 C   0  0  0  0  0  0  0  0  0  0  0  0
   -0.2719    0.5914    1.7480 C   0  0  0  0  0  0  0  0  0  0  0  0
    0.6777    0.6607    0.6050 C   0  0  2  0  0  0  0  0  0  0  0  0
    1.3099   -0.6169    0.2037 C   0  0  0  0  0  0  0  0  0  0  0  0
    0.7059   -1.5188   -0.6000 C   0  0  0  0  0  0  0  0  0  0  0  0
    1.3934   -2.6694   -0.8828 C   0  0  0  0  0  0  0  0  0  0  0  0
    2.6579   -2.8430   -0.3369 C   0  0  0  0  0  0  0  0  0  0  0  0
    3.2538   -1.8808    0.4923 C   0  0  0  0  0  0  0  0  0  0  0  0
    4.5053   -2.0816    1.0192 O   0  0  0  0  0  0  0  0  0  0  0  0
    2.5468   -0.7319    0.7631 C   0  0  0  0  0  0  0  0  0  0  0  0
    2.8049    0.4336    1.5192 O   0  0  0  0  0  0  0  0  0  0  0  0
    1.9201    1.4595    0.9694 C   0  0  1  0  0  0  0  0  0  0  0  0
    2.5177    2.1438   -0.1651 C   0  0  0  0  0  0  0  0  0  0  0  0
    3.6915    2.5259   -0.0396 O   0  0  0  0  0  0  0  0  0  0  0  0
    1.8273    2.4149   -1.4531 C   0  0  0  0  0  0  0  0  0  0  0  0
    0.8902    1.2744   -1.7657 C   0  0  0  0  0  0  0  0  0  0  0  0
   -0.0731    1.1484   -0.6076 C   0  0  2  0  0  0  0  0  0  0  0  0
   -0.5854    2.3802   -0.3356 O   0  0  0  0  0  0  0  0  0  0  0  0
   -1.1496    0.1188   -0.9149 C   0  0  1  0  0  0  0  0  0  0  0  0
   -0.6382   -1.2399   -1.2142 C   0  0  0  0  0  0  0  0  0  0  0  0
   -5.0604   -1.9845    1.3429 H   0  0  0  0  0  0  0  0  0  0  0  0
   -3.2572   -1.8270    0.9020 H   0  0  0  0  0  0  0  0  0  0  0  0
   -5.3684    0.3831    0.6918 H   0  0  0  0  0  0  0  0  0  0  0  0
   -3.5348    1.0273   -0.8695 H   0  0  0  0  0  0  0  0  0  0  0  0
   -3.1619    1.6082    0.8330 H   0  0  0  0  0  0  0  0  0  0  0  0
   -2.1932   -0.2303    2.2407 H   0  0  0  0  0  0  0  0  0  0  0  0
   -1.0217   -1.3539    1.4866 H   0  0  0  0  0  0  0  0  0  0  0  0
   -0.7110    1.6280    1.8501 H   0  0  0  0  0  0  0  0  0  0  0  0
    0.1984    0.2900    2.7049 H   0  0  0  0  0  0  0  0  0  0  0  0
    0.9447   -3.4286   -1.5236 H   0  0  0  0  0  0  0  0  0  0  0  0
    3.2225   -3.7552   -0.5496 H   0  0  0  0  0  0  0  0  0  0  0  0
    5.2561   -2.3818    0.3965 H   0  0  0  0  0  0  0  0  0  0  0  0
    1.6647    2.0924    1.8279 H   0  0  0  0  0  0  0  0  0  0  0  0
    2.5484    2.6071   -2.2757 H   0  0  0  0  0  0  0  0  0  0  0  0
    1.2103    3.3329   -1.3174 H   0  0  0  0  0  0  0  0  0  0  0  0
    1.4973    0.3785   -1.9410 H   0  0  0  0  0  0  0  0  0  0  0  0
    0.3071    1.5717   -2.6872 H   0  0  0  0  0  0  0  0  0  0  0  0
   -1.4964    2.5601   -0.6244 H   0  0  0  0  0  0  0  0  0  0  0  0
   -1.7463    0.4625   -1.7973 H   0  0  0  0  0  0  0  0  0  0  0  0
   -0.6245   -1.4743   -2.3033 H   0  0  0  0  0  0  0  0  0  0  0  0
   -1.3254   -2.0097   -0.7741 H   0  0  0  0  0  0  0  0  0  0  0  0
  1  2  2  3
  2  3  1  0
  3  4  1  0
  4  5  1  0
  5  6  1  0
  7  6  1  1
  7  8  1  0
  8  9  2  0
  9 10  1  0
 10 11  2  0
 11 12  1  0
 12 13  1  0
 12 14  2  0
 14 15  1  0
 15 16  1  0
 16 17  1  0
 17 18  2  0
 17 19  1  0
 19 20  1  0
 20 21  1  0
 21 22  1  1
 21 23  1  0
 23 24  1  0
 23  4  1  0
 16  7  1  0
 21  7  1  0
 14  8  1  0
 24  9  1  0
  1 25  1  0
  1 26  1  0
  2 27  1  0
  3 28  1  0
  3 29  1  0
  5 30  1  0
  5 31  1  0
  6 32  1  0
  6 33  1  0
 10 34  1  0
 11 35  1  0
 13 36  1  0
 16 37  1  1
 19 38  1  0
 19 39  1  0
 20 40  1  0
 20 41  1  0
 22 42  1  0
 23 43  1  6
 24 44  1  0
 24 45  1  0
M  END
$$$$
