@<TRIPOS>MOLECULE
*****
 45 49 0 0 0
SMALL
GASTEIGER

@<TRIPOS>ATOM
      1 C          -4.2199   -1.3641    0.9823 C.2     1  UNL1       -0.1014
      2 C          -4.3870   -0.1100    0.6383 C.2     1  UNL1       -0.0772
      3 C          -3.2503    0.7045    0.1607 C.3     1  UNL1        0.0172
      4 N          -2.0434    0.0067    0.1959 N.3     1  UNL1       -0.2927
      5 C          -1.4314   -0.3030    1.4249 C.3     1  UNL1        0.0006
      6 C          -0.2719    0.5914    1.7480 C.3     1  UNL1       -0.0238
      7 C           0.6777    0.6607    0.6050 C.3     1  UNL1        0.0746
      8 C           1.3099   -0.6169    0.2037 C.ar    1  UNL1        0.0141
      9 C           0.7059   -1.5188   -0.6000 C.ar    1  UNL1       -0.0382
     10 C           1.3934   -2.6694   -0.8828 C.ar    1  UNL1       -0.0546
     11 C           2.6579   -2.8430   -0.3369 C.ar    1  UNL1       -0.0162
     12 C           3.2538   -1.8808    0.4923 C.ar    1  UNL1        0.1588
     13 O           4.5053   -2.0816    1.0192 O.3     1  UNL1       -0.5033
     14 C           2.5468   -0.7319    0.7631 C.ar    1  UNL1        0.1669
     15 O           2.8049    0.4336    1.5192 O.3     1  UNL1       -0.4764
     16 C           1.9201    1.4595    0.9694 C.3     1  UNL1        0.1701
     17 C           2.5177    2.1438   -0.1651 C.2     1  UNL1        0.1745
     18 O           3.6915    2.5259   -0.0396 O.2     1  UNL1       -0.2934
     19 C           1.8273    2.4149   -1.4531 C.3     1  UNL1        0.0123
     20 C           0.8902    1.2744   -1.7657 C.3     1  UNL1       -0.0147
     21 C          -0.0731    1.1484   -0.6076 C.3     1  UNL1        0.0957
     22 O          -0.5854    2.3802   -0.3356 O.3     1  UNL1       -0.3860
     23 C          -1.1496    0.1188   -0.9149 C.3     1  UNL1        0.0444
     24 C          -0.6382   -1.2399   -1.2142 C.3     1  UNL1       -0.0089
     25 H          -5.0604   -1.9845    1.3429 H       1  UNL1        0.0532
     26 H          -3.2572   -1.8270    0.9020 H       1  UNL1        0.0532
     27 H          -5.3684    0.3831    0.6918 H       1  UNL1        0.0579
     28 H          -3.5348    1.0273   -0.8695 H       1  UNL1        0.0470
     29 H          -3.1619    1.6082    0.8330 H       1  UNL1        0.0470
     30 H          -2.1932   -0.2303    2.2407 H       1  UNL1        0.0427
     31 H          -1.0217   -1.3539    1.4866 H       1  UNL1        0.0427
     32 H          -0.7110    1.6280    1.8501 H       1  UNL1        0.0288
     33 H           0.1984    0.2900    2.7049 H       1  UNL1        0.0288
     34 H           0.9447   -3.4286   -1.5236 H       1  UNL1        0.0622
     35 H           3.2225   -3.7552   -0.5496 H       1  UNL1        0.0655
     36 H           5.2561   -2.3818    0.3965 H       1  UNL1        0.2923
     37 H           1.6647    2.0924    1.8279 H       1  UNL1        0.0824
     38 H           2.5484    2.6071   -2.2757 H       1  UNL1        0.0344
     39 H           1.2103    3.3329   -1.3174 H       1  UNL1        0.0344
     40 H           1.4973    0.3785   -1.9410 H       1  UNL1        0.0298
     41 H           0.3071    1.5717   -2.6872 H       1  UNL1        0.0298
     42 H          -1.4964    2.5601   -0.6244 H       1  UNL1        0.2103
     43 H          -1.7463    0.4625   -1.7973 H       1  UNL1        0.0494
     44 H          -0.6245   -1.4743   -2.3033 H       1  UNL1        0.0329
     45 H          -1.3254   -2.0097   -0.7741 H       1  UNL1        0.0329
@<TRIPOS>BOND
     1     1     2    2
     2     2     3    1
     3     3     4    1
     4     4     5    1
     5     5     6    1
     6     7     6    1
     7     7     8    1
     8     8     9   ar
     9     9    10   ar
    10    10    11   ar
    11    11    12   ar
    12    12    13    1
    13    12    14   ar
    14    14    15    1
    15    15    16    1
    16    16    17    1
    17    17    18    2
    18    17    19    1
    19    19    20    1
    20    20    21    1
    21    21    22    1
    22    21    23    1
    23    23    24    1
    24    23     4    1
    25    16     7    1
    26    21     7    1
    27    14     8   ar
    28    24     9    1
    29     1    25    1
    30     1    26    1
    31     2    27    1
    32     3    28    1
    33     3    29    1
    34     5    30    1
    35     5    31    1
    36     6    32    1
    37     6    33    1
    38    10    34    1
    39    11    35    1
    40    13    36    1
    41    16    37    1
    42    19    38    1
    43    19    39    1
    44    20    40    1
    45    20    41    1
    46    22    42    1
    47    23    43    1
    48    24    44    1
    49    24    45    1
