@<TRIPOS>MOLECULE
*****
 34 36 0 0 0
SMALL
GASTEIGER

@<TRIPOS>ATOM
      1 C          -0.8078    3.8526    1.3926 C.3     1  UNL1        0.0820
      2 O          -1.2251    2.6697    0.6960 O.3     1  UNL1       -0.4646
      3 C          -0.3546    1.5767    0.5719 C.2     1  UNL1        0.3362
      4 O           0.7612    1.7199    1.0992 O.2     1  UNL1       -0.2453
      5 C          -0.7791    0.3749   -0.1392 C.2     1  UNL1        0.0532
      6 C          -0.0009   -0.6568   -0.2838 C.2     1  UNL1       -0.0282
      7 C           1.4411   -0.4566   -0.3196 C.ar    1  UNL1       -0.0212
      8 C           2.2431   -1.3411    0.3558 C.ar    1  UNL1       -0.0533
      9 C           3.6190   -1.1969    0.3287 C.ar    1  UNL1       -0.0472
     10 C           4.2141   -0.1601   -0.3793 C.ar    1  UNL1        0.0179
     11 BR          6.1147    0.0219   -0.4082 Br      1  UNL1       -0.0503
     12 C           3.3653    0.7001   -1.0404 C.ar    1  UNL1       -0.0472
     13 C           1.9895    0.5709   -1.0233 C.ar    1  UNL1       -0.0533
     14 C          -0.4336   -2.0710   -0.4318 C.3     1  UNL1       -0.0147
     15 C          -1.8415   -2.2430   -0.8929 C.3     1  UNL1        0.0099
     16 C          -2.7698   -1.8568    0.2050 C.3     1  UNL1       -0.0395
     17 C          -3.0088   -0.4188    0.2855 C.3     1  UNL1       -0.0358
     18 C          -2.1633    0.3490   -0.6955 C.3     1  UNL1        0.0375
     19 S          -2.1277   -0.8519   -2.0717 S.3     1  UNL1       -0.1487
     20 H          -1.4825    4.6621    1.0198 H       1  UNL1        0.0661
     21 H          -0.7846    3.7352    2.4738 H       1  UNL1        0.0661
     22 H           0.2082    4.1528    1.0575 H       1  UNL1        0.0661
     23 H           1.8051   -2.1803    0.9314 H       1  UNL1        0.0624
     24 H           4.2643   -1.8894    0.8587 H       1  UNL1        0.0629
     25 H           3.8088    1.5240   -1.6050 H       1  UNL1        0.0629
     26 H           1.4043    1.3066   -1.5798 H       1  UNL1        0.0624
     27 H          -0.2371   -2.5754    0.5346 H       1  UNL1        0.0324
     28 H           0.2708   -2.5222   -1.2080 H       1  UNL1        0.0324
     29 H          -2.0092   -3.2073   -1.3362 H       1  UNL1        0.0415
     30 H          -2.3417   -2.2447    1.1749 H       1  UNL1        0.0276
     31 H          -3.7066   -2.4417    0.0757 H       1  UNL1        0.0276
     32 H          -2.8181   -0.0016    1.3221 H       1  UNL1        0.0279
     33 H          -4.0703   -0.1931    0.0615 H       1  UNL1        0.0279
     34 H          -2.5470    1.2924   -1.0300 H       1  UNL1        0.0463
@<TRIPOS>BOND
     1     1     2    1
     2     2     3    1
     3     3     4    2
     4     3     5    1
     5     5     6    2
     6     6     7    1
     7     7     8   ar
     8     8     9   ar
     9     9    10   ar
    10    10    11    1
    11    10    12   ar
    12    12    13   ar
    13     6    14    1
    14    14    15    1
    15    15    16    1
    16    16    17    1
    17    17    18    1
    18    18    19    1
    19    18     5    1
    20    13     7   ar
    21    19    15    1
    22     1    20    1
    23     1    21    1
    24     1    22    1
    25     8    23    1
    26     9    24    1
    27    12    25    1
    28    13    26    1
    29    14    27    1
    30    14    28    1
    31    15    29    1
    32    16    30    1
    33    16    31    1
    34    17    32    1
    35    17    33    1
    36    18    34    1
