
     RDKit          3D

 43 45  0  0  0  0  0  0  0  0999 V2000
   -2.1395   -4.5203   -0.4649 C   0  0  0  0  0  0  0  0  0  0  0  0
   -2.3009   -3.1288   -0.3067 O   0  0  0  0  0  0  0  0  0  0  0  0
   -1.1790   -2.3272   -0.2132 C   0  0  0  0  0  0  0  0  0  0  0  0
    0.0599   -2.9183   -0.2780 C   0  0  0  0  0  0  0  0  0  0  0  0
    1.1736   -2.0785   -0.1801 C   0  0  0  0  0  0  0  0  0  0  0  0
    1.0876   -0.7317   -0.0269 C   0  0  0  0  0  0  0  0  0  0  0  0
    2.2649    0.1129    0.0717 C   0  0  0  0  0  0  0  0  0  0  0  0
    2.1237    1.3836    0.2161 O   0  0  0  0  0  0  0  0  0  0  0  0
    3.5987   -0.3649    0.0200 N   0  0  0  0  0  0  0  0  0  0  0  0
    4.7201    0.5116    0.1221 C   0  0  0  0  0  0  0  0  0  0  0  0
    5.2559    0.7975    1.3548 C   0  0  0  0  0  0  0  0  0  0  0  0
    4.6574    0.1551    2.8559 Cl  0  0  0  0  0  0  0  0  0  0  0  0
    6.3355    1.6507    1.3706 C   0  0  0  0  0  0  0  0  0  0  0  0
    6.8444    2.1810    0.2370 N   0  0  0  0  0  0  0  0  0  0  0  0
    6.3307    1.9094   -0.9676 C   0  0  0  0  0  0  0  0  0  0  0  0
    5.2406    1.0532   -1.0306 C   0  0  0  0  0  0  0  0  0  0  0  0
    4.5917    0.7181   -2.6224 Cl  0  0  0  0  0  0  0  0  0  0  0  0
   -0.1931   -0.1904    0.0322 C   0  0  0  0  0  0  0  0  0  0  0  0
   -1.3210   -0.9520   -0.0568 C   0  0  0  0  0  0  0  0  0  0  0  0
   -2.5808   -0.4303    0.0000 O   0  0  0  0  0  0  0  0  0  0  0  0
   -2.9831    0.8855    0.1491 C   0  0  0  0  0  0  0  0  0  0  0  0
   -3.9246    1.1023    1.3122 C   0  0  0  0  0  0  0  0  0  0  0  0
   -4.9168    2.1430    0.9011 C   0  0  0  0  0  0  0  0  0  0  0  0
   -4.4220    2.6489   -0.4331 C   0  0  0  0  0  0  0  0  0  0  0  0
   -3.8288    1.3700   -1.0284 C   0  0  0  0  0  0  0  0  0  0  0  0
   -1.6349   -4.6926   -1.4410 H   0  0  0  0  0  0  0  0  0  0  0  0
   -3.1601   -4.9710   -0.4506 H   0  0  0  0  0  0  0  0  0  0  0  0
   -1.5557   -4.9781    0.3601 H   0  0  0  0  0  0  0  0  0  0  0  0
    0.1945   -3.9824   -0.3989 H   0  0  0  0  0  0  0  0  0  0  0  0
    2.1457   -2.5461   -0.2314 H   0  0  0  0  0  0  0  0  0  0  0  0
    3.7400   -1.3923   -0.0967 H   0  0  0  0  0  0  0  0  0  0  0  0
    6.7889    1.9032    2.3201 H   0  0  0  0  0  0  0  0  0  0  0  0
    6.7671    2.3553   -1.8607 H   0  0  0  0  0  0  0  0  0  0  0  0
   -0.2245    0.8866    0.1548 H   0  0  0  0  0  0  0  0  0  0  0  0
   -2.1184    1.5692    0.2289 H   0  0  0  0  0  0  0  0  0  0  0  0
   -4.4107    0.1403    1.5403 H   0  0  0  0  0  0  0  0  0  0  0  0
   -3.3028    1.4834    2.1648 H   0  0  0  0  0  0  0  0  0  0  0  0
   -5.9211    1.6669    0.7251 H   0  0  0  0  0  0  0  0  0  0  0  0
   -5.0671    2.9470    1.6436 H   0  0  0  0  0  0  0  0  0  0  0  0
   -5.2566    3.0271   -1.0648 H   0  0  0  0  0  0  0  0  0  0  0  0
   -3.6255    3.3878   -0.2653 H   0  0  0  0  0  0  0  0  0  0  0  0
   -3.2204    1.5715   -1.9148 H   0  0  0  0  0  0  0  0  0  0  0  0
   -4.6338    0.6440   -1.1823 H   0  0  0  0  0  0  0  0  0  0  0  0
  1  2  1  0
  2  3  1  0
  3  4  2  0
  4  5  1  0
  5  6  2  0
  6  7  1  0
  7  8  2  0
  7  9  1  0
  9 10  1  0
 10 11  2  0
 11 12  1  0
 11 13  1  0
 13 14  2  0
 14 15  1  0
 15 16  2  0
 16 17  1  0
  6 18  1  0
 18 19  2  0
 19 20  1  0
 20 21  1  0
 21 22  1  0
 22 23  1  0
 23 24  1  0
 24 25  1  0
 19  3  1  0
 25 21  1  0
 16 10  1  0
  1 26  1  0
  1 27  1  0
  1 28  1  0
  4 29  1  0
  5 30  1  0
  9 31  1  0
 13 32  1  0
 15 33  1  0
 18 34  1  0
 21 35  1  0
 22 36  1  0
 22 37  1  0
 23 38  1  0
 23 39  1  0
 24 40  1  0
 24 41  1  0
 25 42  1  0
 25 43  1  0
M  END
$$$$
