@<TRIPOS>MOLECULE
*****
 43 45 0 0 0
SMALL
GASTEIGER

@<TRIPOS>ATOM
      1 C          -2.1395   -4.5203   -0.4649 C.3     1  UNL1        0.0790
      2 O          -2.3009   -3.1288   -0.3067 O.3     1  UNL1       -0.4915
      3 C          -1.1790   -2.3272   -0.2132 C.ar    1  UNL1        0.1616
      4 C           0.0599   -2.9183   -0.2780 C.ar    1  UNL1       -0.0156
      5 C           1.1736   -2.0785   -0.1801 C.ar    1  UNL1       -0.0459
      6 C           1.0876   -0.7317   -0.0269 C.ar    1  UNL1        0.0407
      7 C           2.2649    0.1129    0.0717 C.2     1  UNL1        0.2484
      8 O           2.1237    1.3836    0.2161 O.2     1  UNL1       -0.2698
      9 N           3.5987   -0.3649    0.0200 N.am    1  UNL1       -0.2790
     10 C           4.7201    0.5116    0.1221 C.ar    1  UNL1        0.0736
     11 C           5.2559    0.7975    1.3548 C.ar    1  UNL1        0.0816
     12 CL          4.6574    0.1551    2.8559 Cl      1  UNL1       -0.0800
     13 C           6.3355    1.6507    1.3706 C.ar    1  UNL1        0.0478
     14 N           6.8444    2.1810    0.2370 N.ar    1  UNL1       -0.2602
     15 C           6.3307    1.9094   -0.9676 C.ar    1  UNL1        0.0478
     16 C           5.2406    1.0532   -1.0306 C.ar    1  UNL1        0.0816
     17 CL          4.5917    0.7181   -2.6224 Cl      1  UNL1       -0.0800
     18 C          -0.1931   -0.1904    0.0322 C.ar    1  UNL1       -0.0042
     19 C          -1.3210   -0.9520   -0.0568 C.ar    1  UNL1        0.1630
     20 O          -2.5808   -0.4303    0.0000 O.3     1  UNL1       -0.4851
     21 C          -2.9831    0.8855    0.1491 C.3     1  UNL1        0.1004
     22 C          -3.9246    1.1023    1.3122 C.3     1  UNL1       -0.0158
     23 C          -4.9168    2.1430    0.9011 C.3     1  UNL1       -0.0496
     24 C          -4.4220    2.6489   -0.4331 C.3     1  UNL1       -0.0496
     25 C          -3.8288    1.3700   -1.0284 C.3     1  UNL1       -0.0158
     26 H          -1.6349   -4.6926   -1.4410 H       1  UNL1        0.0660
     27 H          -3.1601   -4.9710   -0.4506 H       1  UNL1        0.0660
     28 H          -1.5557   -4.9781    0.3601 H       1  UNL1        0.0660
     29 H           0.1945   -3.9824   -0.3989 H       1  UNL1        0.0655
     30 H           2.1457   -2.5461   -0.2314 H       1  UNL1        0.0626
     31 H           3.7400   -1.3923   -0.0967 H       1  UNL1        0.1552
     32 H           6.7889    1.9032    2.3201 H       1  UNL1        0.0845
     33 H           6.7671    2.3553   -1.8607 H       1  UNL1        0.0845
     34 H          -0.2245    0.8866    0.1548 H       1  UNL1        0.0663
     35 H          -2.1184    1.5692    0.2289 H       1  UNL1        0.0733
     36 H          -4.4107    0.1403    1.5403 H       1  UNL1        0.0301
     37 H          -3.3028    1.4834    2.1648 H       1  UNL1        0.0301
     38 H          -5.9211    1.6669    0.7251 H       1  UNL1        0.0266
     39 H          -5.0671    2.9470    1.6436 H       1  UNL1        0.0266
     40 H          -5.2566    3.0271   -1.0648 H       1  UNL1        0.0266
     41 H          -3.6255    3.3878   -0.2653 H       1  UNL1        0.0266
     42 H          -3.2204    1.5715   -1.9148 H       1  UNL1        0.0301
     43 H          -4.6338    0.6440   -1.1823 H       1  UNL1        0.0301
@<TRIPOS>BOND
     1     1     2    1
     2     2     3    1
     3     3     4   ar
     4     4     5   ar
     5     5     6   ar
     6     6     7    1
     7     7     8    2
     8     7     9   am
     9     9    10    1
    10    10    11   ar
    11    11    12    1
    12    11    13   ar
    13    13    14   ar
    14    14    15   ar
    15    15    16   ar
    16    16    17    1
    17     6    18   ar
    18    18    19   ar
    19    19    20    1
    20    20    21    1
    21    21    22    1
    22    22    23    1
    23    23    24    1
    24    24    25    1
    25    19     3   ar
    26    25    21    1
    27    16    10   ar
    28     1    26    1
    29     1    27    1
    30     1    28    1
    31     4    29    1
    32     5    30    1
    33     9    31    1
    34    13    32    1
    35    15    33    1
    36    18    34    1
    37    21    35    1
    38    22    36    1
    39    22    37    1
    40    23    38    1
    41    23    39    1
    42    24    40    1
    43    24    41    1
    44    25    42    1
    45    25    43    1
