
     RDKit          3D

 35 35  0  0  0  0  0  0  0  0999 V2000
   -0.1103    4.6490    0.5226 C   0  0  0  0  0  0  0  0  0  0  0  0
   -0.5342    3.2274    0.4847 C   0  0  0  0  0  0  0  0  0  0  0  0
   -1.8435    2.9663    0.6708 N   0  0  0  0  0  0  0  0  0  0  0  0
   -2.2456    1.7038    0.6415 C   0  0  0  0  0  0  0  0  0  0  0  0
   -1.3585    0.6407    0.4246 C   0  0  0  0  0  0  0  0  0  0  0  0
   -1.9541   -0.7331    0.4172 C   0  0  0  0  0  0  0  0  0  0  0  0
   -2.0811   -1.2369   -0.8616 O   0  0  0  0  0  0  0  0  0  0  0  0
   -2.7495   -2.7757   -0.8926 P   0  0  0  0  0  0  0  0  0  0  0  0
   -3.4423   -3.2002    0.5770 O   0  0  0  0  0  0  0  0  0  0  0  0
   -1.5073   -3.8737   -1.2351 O   0  0  0  0  0  0  0  0  0  0  0  0
   -3.7919   -2.7775   -2.0102 O   0  0  0  0  0  0  0  0  0  0  0  0
   -0.0196    0.8924    0.2325 C   0  0  0  0  0  0  0  0  0  0  0  0
    0.8416   -0.2947    0.0104 C   0  0  0  0  0  0  0  0  0  0  0  0
    2.1806    0.1157   -0.3025 N   0  0  0  0  0  0  0  0  0  0  0  0
    3.0995   -0.9813   -0.5388 C   0  0  0  0  0  0  0  0  0  0  0  0
    3.4106   -1.7858    0.6531 C   0  0  0  0  0  0  0  0  0  0  0  0
    4.2934   -2.8407    0.4019 O   0  0  0  0  0  0  0  0  0  0  0  0
    3.0564   -1.7411    1.8729 O   0  0  0  0  0  0  0  0  0  0  0  0
    0.3758    2.2156    0.2677 C   0  0  0  0  0  0  0  0  0  0  0  0
    1.7266    2.4451    0.0723 O   0  0  0  0  0  0  0  0  0  0  0  0
   -0.9748    5.3050    0.2417 H   0  0  0  0  0  0  0  0  0  0  0  0
    0.1281    4.9581    1.5804 H   0  0  0  0  0  0  0  0  0  0  0  0
    0.7020    4.8543   -0.1737 H   0  0  0  0  0  0  0  0  0  0  0  0
   -3.3170    1.5181    0.7936 H   0  0  0  0  0  0  0  0  0  0  0  0
   -1.3512   -1.4202    1.0744 H   0  0  0  0  0  0  0  0  0  0  0  0
   -2.9665   -0.7145    0.8656 H   0  0  0  0  0  0  0  0  0  0  0  0
   -4.3218   -2.7696    0.6573 H   0  0  0  0  0  0  0  0  0  0  0  0
   -1.9291   -4.6938   -1.5356 H   0  0  0  0  0  0  0  0  0  0  0  0
    0.5096   -0.9228   -0.8301 H   0  0  0  0  0  0  0  0  0  0  0  0
    0.7919   -0.8637    0.9840 H   0  0  0  0  0  0  0  0  0  0  0  0
    2.1045    0.5810   -1.2603 H   0  0  0  0  0  0  0  0  0  0  0  0
    4.0660   -0.5048   -0.8570 H   0  0  0  0  0  0  0  0  0  0  0  0
    2.8162   -1.6254   -1.3983 H   0  0  0  0  0  0  0  0  0  0  0  0
    4.3221   -3.6940    0.9720 H   0  0  0  0  0  0  0  0  0  0  0  0
    2.0732    3.3769   -0.0794 H   0  0  0  0  0  0  0  0  0  0  0  0
  1  2  1  0
  2  3  2  0
  3  4  1  0
  4  5  2  0
  5  6  1  0
  6  7  1  0
  7  8  1  0
  8  9  1  0
  8 10  1  0
  8 11  2  0
  5 12  1  0
 12 13  1  0
 13 14  1  0
 14 15  1  0
 15 16  1  0
 16 17  1  0
 16 18  2  0
 12 19  2  0
 19 20  1  0
 19  2  1  0
  1 21  1  0
  1 22  1  0
  1 23  1  0
  4 24  1  0
  6 25  1  0
  6 26  1  0
  9 27  1  0
 10 28  1  0
 13 29  1  0
 13 30  1  0
 14 31  1  0
 15 32  1  0
 15 33  1  0
 17 34  1  0
 20 35  1  0
M  END
$$$$
