@<TRIPOS>MOLECULE
*****
 35 35 0 0 0
SMALL
GASTEIGER

@<TRIPOS>ATOM
      1 C          -0.1103    4.6490    0.5226 C.3     1  UNL1       -0.0188
      2 C          -0.5342    3.2274    0.4847 C.ar    1  UNL1        0.0798
      3 N          -1.8435    2.9663    0.6708 N.ar    1  UNL1       -0.2562
      4 C          -2.2456    1.7038    0.6415 C.ar    1  UNL1        0.0338
      5 C          -1.3585    0.6407    0.4246 C.ar    1  UNL1        0.0046
      6 C          -1.9541   -0.7331    0.4172 C.3     1  UNL1        0.0859
      7 O          -2.0811   -1.2369   -0.8616 O.3     1  UNL1       -0.2820
      8 P          -2.7495   -2.7757   -0.8926 P.3     1  UNL1        0.4727
      9 O          -3.4423   -3.2002    0.5770 O.3     1  UNL1       -0.3026
     10 O          -1.5073   -3.8737   -1.2351 O.3     1  UNL1       -0.3026
     11 O          -3.7919   -2.7775   -2.0102 O.2     1  UNL1       -0.2275
     12 C          -0.0196    0.8924    0.2325 C.ar    1  UNL1        0.0164
     13 C           0.8416   -0.2947    0.0104 C.3     1  UNL1        0.0256
     14 N           2.1806    0.1157   -0.3025 N.3     1  UNL1       -0.3025
     15 C           3.0995   -0.9813   -0.5388 C.3     1  UNL1        0.0945
     16 C           3.4106   -1.7858    0.6531 C.2     1  UNL1        0.3187
     17 O           4.2934   -2.8407    0.4019 O.3     1  UNL1       -0.4797
     18 O           3.0564   -1.7411    1.8729 O.2     1  UNL1       -0.2496
     19 C           0.3758    2.2156    0.2677 C.ar    1  UNL1        0.1425
     20 O           1.7266    2.4451    0.0723 O.3     1  UNL1       -0.5047
     21 H          -0.9748    5.3050    0.2417 H       1  UNL1        0.0294
     22 H           0.1281    4.9581    1.5804 H       1  UNL1        0.0294
     23 H           0.7020    4.8543   -0.1737 H       1  UNL1        0.0294
     24 H          -3.3170    1.5181    0.7936 H       1  UNL1        0.0833
     25 H          -1.3512   -1.4202    1.0744 H       1  UNL1        0.0616
     26 H          -2.9665   -0.7145    0.8656 H       1  UNL1        0.0616
     27 H          -4.3218   -2.7696    0.6573 H       1  UNL1        0.2220
     28 H          -1.9291   -4.6938   -1.5356 H       1  UNL1        0.2220
     29 H           0.5096   -0.9228   -0.8301 H       1  UNL1        0.0475
     30 H           0.7919   -0.8637    0.9840 H       1  UNL1        0.0475
     31 H           2.1045    0.5810   -1.2603 H       1  UNL1        0.1228
     32 H           4.0660   -0.5048   -0.8570 H       1  UNL1        0.0539
     33 H           2.8162   -1.6254   -1.3983 H       1  UNL1        0.0539
     34 H           4.3221   -3.6940    0.9720 H       1  UNL1        0.2951
     35 H           2.0732    3.3769   -0.0794 H       1  UNL1        0.2922
@<TRIPOS>BOND
     1     1     2    1
     2     2     3   ar
     3     3     4   ar
     4     4     5   ar
     5     5     6    1
     6     6     7    1
     7     7     8    1
     8     8     9    1
     9     8    10    1
    10     8    11    2
    11     5    12   ar
    12    12    13    1
    13    13    14    1
    14    14    15    1
    15    15    16    1
    16    16    17    1
    17    16    18    2
    18    12    19   ar
    19    19    20    1
    20    19     2   ar
    21     1    21    1
    22     1    22    1
    23     1    23    1
    24     4    24    1
    25     6    25    1
    26     6    26    1
    27     9    27    1
    28    10    28    1
    29    13    29    1
    30    13    30    1
    31    14    31    1
    32    15    32    1
    33    15    33    1
    34    17    34    1
    35    20    35    1
