
     RDKit          3D

113117  0  0  0  0  0  0  0  0999 V2000
    3.6632   -5.0241    2.9609 C   0  0  0  0  0  0  0  0  0  0  0  0
    3.9417   -3.9132    2.4968 C   0  0  0  0  0  0  0  0  0  0  0  0
    4.2681   -2.6506    1.9539 C   0  0  0  0  0  0  0  0  0  0  0  0
    3.4430   -1.6509    1.9037 C   0  0  0  0  0  0  0  0  0  0  0  0
    3.7848   -0.4187    1.2829 C   0  0  0  0  0  0  0  0  0  0  0  0
    2.8851    0.6366    1.3155 N   0  0  0  0  0  0  0  0  0  0  0  0
    2.6075    1.4826    0.2329 C   0  0  0  0  0  0  0  0  0  0  0  0
    1.4490    1.4728   -0.4657 C   0  0  0  0  0  0  0  0  0  0  0  0
    1.0735    2.2269   -1.5187 C   0  0  0  0  0  0  0  0  0  0  0  0
   -0.0870    2.1973   -2.1790 O   0  0  0  0  0  0  0  0  0  0  0  0
   -1.2136    1.5080   -1.9674 C   0  0  0  0  0  0  0  0  0  0  0  0
   -2.3892    2.1816   -1.6220 C   0  0  0  0  0  0  0  0  0  0  0  0
   -3.5601    1.5319   -1.3965 C   0  0  0  0  0  0  0  0  0  0  0  0
   -3.6952    0.1504   -1.4937 C   0  0  0  0  0  0  0  0  0  0  0  0
   -4.9033   -0.5205   -1.2815 N   0  0  0  0  0  0  0  0  0  0  0  0
   -6.0811    0.0663   -0.7477 C   0  0  0  0  0  0  0  0  0  0  0  0
   -6.1234    1.2169   -0.3617 O   0  0  0  0  0  0  0  0  0  0  0  0
   -7.2888   -0.7112   -0.6501 N   0  0  0  0  0  0  0  0  0  0  0  0
   -8.4966   -0.1909   -0.1377 C   0  0  0  0  0  0  0  0  0  0  0  0
   -9.0704    0.9002   -0.7076 C   0  0  0  0  0  0  0  0  0  0  0  0
  -10.2595    1.4399   -0.3116 C   0  0  0  0  0  0  0  0  0  0  0  0
  -10.7774    2.6436   -0.9944 C   0  0  0  0  0  0  0  0  0  0  0  0
  -11.6012    2.2384   -2.2019 C   0  0  0  0  0  0  0  0  0  0  0  0
  -11.6656    3.4631   -0.0742 C   0  0  0  0  0  0  0  0  0  0  0  0
   -9.6213    3.5542   -1.4141 C   0  0  0  0  0  0  0  0  0  0  0  0
  -10.9070    0.8060    0.7450 C   0  0  0  0  0  0  0  0  0  0  0  0
  -10.3810   -0.2876    1.3490 C   0  0  0  0  0  0  0  0  0  0  0  0
  -11.0723   -0.9580    2.3832 N   0  0  0  0  0  0  0  0  0  0  0  0
  -12.7551   -0.8920    2.6123 S   0  0  0  0  0  6  0  0  0  0  0  0
  -13.4220    0.7026    2.9767 C   0  0  0  0  0  0  0  0  0  0  0  0
  -13.2026   -1.8484    3.6596 O   0  0  0  0  0  0  0  0  0  0  0  0
  -13.4856   -1.3472    1.3314 O   0  0  0  0  0  0  0  0  0  0  0  0
   -9.1367   -0.8042    0.8991 C   0  0  0  0  0  0  0  0  0  0  0  0
   -8.6761   -1.8987    1.5636 O   0  0  0  0  0  0  0  0  0  0  0  0
   -8.8945   -3.2453    1.3782 C   0  0  0  0  0  0  0  0  0  0  0  0
   -2.5238   -0.5339   -1.8373 C   0  0  0  0  0  0  0  0  0  0  0  0
   -2.5775   -1.9293   -1.9697 C   0  0  0  0  0  0  0  0  0  0  0  0
   -1.4283   -2.6035   -2.3247 C   0  0  0  0  0  0  0  0  0  0  0  0
   -0.2563   -1.9333   -2.5496 C   0  0  0  0  0  0  0  0  0  0  0  0
   -0.2067   -0.5730   -2.4194 C   0  0  0  0  0  0  0  0  0  0  0  0
   -1.3463    0.1404   -2.0589 C   0  0  0  0  0  0  0  0  0  0  0  0
    2.0845    3.1666   -1.9320 C   0  0  0  0  0  0  0  0  0  0  0  0
    3.2429    3.1811   -1.2427 C   0  0  0  0  0  0  0  0  0  0  0  0
    3.5549    2.3905   -0.1856 N   0  0  0  0  0  0  0  0  0  0  0  0
    5.0755   -0.3916    0.7439 C   0  0  0  0  0  0  0  0  0  0  0  0
    5.9602   -1.4170    0.7880 C   0  0  0  0  0  0  0  0  0  0  0  0
    7.2939   -1.3983    0.1324 C   0  0  0  0  0  0  0  0  0  0  0  0
    7.4629   -0.9214   -0.9977 O   0  0  0  0  0  0  0  0  0  0  0  0
    8.3883   -1.9549    0.8359 N   0  0  0  0  0  0  0  0  0  0  0  0
    9.7006   -2.0929    0.3762 C   0  0  2  0  0  0  0  0  0  0  0  0
   10.0959   -3.5671    0.3222 C   0  0  0  0  0  0  0  0  0  0  0  0
   10.8295   -1.4153    1.1473 C   0  0  0  0  0  0  0  0  0  0  0  0
   12.0027   -1.9049    0.6396 O   0  0  0  0  0  0  0  0  0  0  0  0
   12.4408   -1.7123   -0.5783 C   0  0  0  0  0  0  0  0  0  0  0  0
   12.9819   -0.4048   -1.0813 C   0  0  0  0  0  0  0  0  0  0  0  0
   14.0864    0.0047   -0.3757 O   0  0  0  0  0  0  0  0  0  0  0  0
   13.9197    0.4206    0.9153 C   0  0  0  0  0  0  0  0  0  0  0  0
   13.0825    1.7044    0.9798 C   0  0  0  0  0  0  0  0  0  0  0  0
   12.9259    2.1211    2.2973 O   0  0  0  0  0  0  0  0  0  0  0  0
   12.1561    3.3047    2.3358 C   0  0  0  0  0  0  0  0  0  0  0  0
    5.5868   -2.6250    1.4137 C   0  0  0  0  0  0  0  0  0  0  0  0
    3.4108   -6.0342    3.4043 H   0  0  0  0  0  0  0  0  0  0  0  0
    2.4160   -1.6440    2.3117 H   0  0  0  0  0  0  0  0  0  0  0  0
    2.3379    0.8421    2.2076 H   0  0  0  0  0  0  0  0  0  0  0  0
    0.7057    0.7130   -0.0730 H   0  0  0  0  0  0  0  0  0  0  0  0
   -2.3073    3.2759   -1.5394 H   0  0  0  0  0  0  0  0  0  0  0  0
   -4.4160    2.1117   -1.1420 H   0  0  0  0  0  0  0  0  0  0  0  0
   -4.9888   -1.5515   -1.5339 H   0  0  0  0  0  0  0  0  0  0  0  0
   -7.2547   -1.7104   -0.9641 H   0  0  0  0  0  0  0  0  0  0  0  0
   -8.5329    1.3677   -1.5514 H   0  0  0  0  0  0  0  0  0  0  0  0
  -12.6628    2.1654   -1.7967 H   0  0  0  0  0  0  0  0  0  0  0  0
  -11.6246    3.0803   -2.8926 H   0  0  0  0  0  0  0  0  0  0  0  0
  -11.2864    1.2799   -2.6189 H   0  0  0  0  0  0  0  0  0  0  0  0
  -12.6862    3.0999    0.0240 H   0  0  0  0  0  0  0  0  0  0  0  0
  -11.1172    3.5438    0.8943 H   0  0  0  0  0  0  0  0  0  0  0  0
  -11.6938    4.4851   -0.5041 H   0  0  0  0  0  0  0  0  0  0  0  0
   -9.4458    3.4629   -2.4806 H   0  0  0  0  0  0  0  0  0  0  0  0
   -9.8502    4.6264   -1.1703 H   0  0  0  0  0  0  0  0  0  0  0  0
   -8.7549    3.2672   -0.7936 H   0  0  0  0  0  0  0  0  0  0  0  0
  -11.8401    1.2623    1.0466 H   0  0  0  0  0  0  0  0  0  0  0  0
  -10.5047   -1.5328    3.0352 H   0  0  0  0  0  0  0  0  0  0  0  0
  -12.7240    1.4000    3.4561 H   0  0  0  0  0  0  0  0  0  0  0  0
  -14.3195    0.5330    3.6677 H   0  0  0  0  0  0  0  0  0  0  0  0
  -13.8753    1.1547    2.0434 H   0  0  0  0  0  0  0  0  0  0  0  0
   -8.9889   -3.5381    0.3167 H   0  0  0  0  0  0  0  0  0  0  0  0
   -8.0246   -3.8243    1.8253 H   0  0  0  0  0  0  0  0  0  0  0  0
   -9.7785   -3.5639    2.0114 H   0  0  0  0  0  0  0  0  0  0  0  0
   -3.4660   -2.5038   -1.8029 H   0  0  0  0  0  0  0  0  0  0  0  0
   -1.4300   -3.7063   -2.4291 H   0  0  0  0  0  0  0  0  0  0  0  0
    0.6460   -2.4960   -2.8298 H   0  0  0  0  0  0  0  0  0  0  0  0
    0.7252   -0.0861   -2.6102 H   0  0  0  0  0  0  0  0  0  0  0  0
    1.8035    3.8060   -2.7725 H   0  0  0  0  0  0  0  0  0  0  0  0
    4.0197    3.8982   -1.5503 H   0  0  0  0  0  0  0  0  0  0  0  0
    5.3839    0.5368    0.2467 H   0  0  0  0  0  0  0  0  0  0  0  0
    8.2126   -2.3015    1.8540 H   0  0  0  0  0  0  0  0  0  0  0  0
    9.7168   -1.6747   -0.6857 H   0  0  0  0  0  0  0  0  0  0  0  0
   10.0817   -3.9647   -0.7199 H   0  0  0  0  0  0  0  0  0  0  0  0
    9.4500   -4.2360    0.8929 H   0  0  0  0  0  0  0  0  0  0  0  0
   11.1516   -3.7237    0.6851 H   0  0  0  0  0  0  0  0  0  0  0  0
   10.8037   -0.3236    1.0806 H   0  0  0  0  0  0  0  0  0  0  0  0
   10.7576   -1.7275    2.2303 H   0  0  0  0  0  0  0  0  0  0  0  0
   11.7089   -2.0584   -1.3947 H   0  0  0  0  0  0  0  0  0  0  0  0
   13.3049   -2.4632   -0.8038 H   0  0  0  0  0  0  0  0  0  0  0  0
   12.2239    0.3643   -1.2158 H   0  0  0  0  0  0  0  0  0  0  0  0
   13.3843   -0.6077   -2.1336 H   0  0  0  0  0  0  0  0  0  0  0  0
   14.9368    0.7589    1.2737 H   0  0  0  0  0  0  0  0  0  0  0  0
   13.5340   -0.3794    1.5544 H   0  0  0  0  0  0  0  0  0  0  0  0
   13.7179    2.5212    0.5055 H   0  0  0  0  0  0  0  0  0  0  0  0
   12.1668    1.5419    0.4170 H   0  0  0  0  0  0  0  0  0  0  0  0
   11.1570    3.0801    1.8617 H   0  0  0  0  0  0  0  0  0  0  0  0
   12.6529    4.0733    1.6952 H   0  0  0  0  0  0  0  0  0  0  0  0
   12.0323    3.6990    3.3521 H   0  0  0  0  0  0  0  0  0  0  0  0
    6.2486   -3.4131    1.4599 H   0  0  0  0  0  0  0  0  0  0  0  0
  1  2  3  0
  2  3  1  0
  3  4  2  0
  4  5  1  0
  5  6  1  0
  6  7  1  0
  7  8  2  0
  8  9  1  0
  9 10  1  0
 10 11  1  0
 11 12  2  0
 12 13  1  0
 13 14  2  0
 14 15  1  0
 15 16  1  0
 16 17  2  0
 16 18  1  0
 18 19  1  0
 19 20  2  0
 20 21  1  0
 21 22  1  0
 22 23  1  0
 22 24  1  0
 22 25  1  0
 21 26  2  0
 26 27  1  0
 27 28  1  0
 28 29  1  0
 29 30  1  0
 29 31  2  0
 29 32  2  0
 27 33  2  0
 33 34  1  0
 34 35  1  0
 14 36  1  0
 36 37  2  0
 37 38  1  0
 38 39  2  0
 39 40  1  0
 40 41  2  0
  9 42  2  0
 42 43  1  0
 43 44  2  0
  5 45  2  0
 45 46  1  0
 46 47  1  0
 47 48  2  0
 47 49  1  0
 49 50  1  0
 50 51  1  0
 50 52  1  0
 52 53  1  0
 53 54  1  0
 54 55  1  0
 55 56  1  0
 56 57  1  0
 57 58  1  0
 58 59  1  0
 59 60  1  0
 46 61  2  0
 61  3  1  0
 44  7  1  0
 41 11  1  0
 33 19  1  0
 41 36  1  0
  1 62  1  0
  4 63  1  0
  6 64  1  0
  8 65  1  0
 12 66  1  0
 13 67  1  0
 15 68  1  0
 18 69  1  0
 20 70  1  0
 23 71  1  0
 23 72  1  0
 23 73  1  0
 24 74  1  0
 24 75  1  0
 24 76  1  0
 25 77  1  0
 25 78  1  0
 25 79  1  0
 26 80  1  0
 28 81  1  0
 30 82  1  0
 30 83  1  0
 30 84  1  0
 35 85  1  0
 35 86  1  0
 35 87  1  0
 37 88  1  0
 38 89  1  0
 39 90  1  0
 40 91  1  0
 42 92  1  0
 43 93  1  0
 45 94  1  0
 49 95  1  0
 50 96  1  6
 51 97  1  0
 51 98  1  0
 51 99  1  0
 52100  1  0
 52101  1  0
 54102  1  0
 54103  1  0
 55104  1  0
 55105  1  0
 57106  1  0
 57107  1  0
 58108  1  0
 58109  1  0
 60110  1  0
 60111  1  0
 60112  1  0
 61113  1  0
M  END
$$$$
