@<TRIPOS>MOLECULE
*****
 113 117 0 0 0
SMALL
GASTEIGER

@<TRIPOS>ATOM
      1 C           3.6632   -5.0241    2.9609 C.1     1  UNL1       -0.1139
      2 C           3.9417   -3.9132    2.4968 C.1     1  UNL1       -0.0696
      3 C           4.2681   -2.6506    1.9539 C.ar    1  UNL1        0.0271
      4 C           3.4430   -1.6509    1.9037 C.ar    1  UNL1       -0.0251
      5 C           3.7848   -0.4187    1.2829 C.ar    1  UNL1        0.0343
      6 N           2.8851    0.6366    1.3155 N.pl3   1  UNL1       -0.2993
      7 C           2.6075    1.4826    0.2329 C.ar    1  UNL1        0.1264
      8 C           1.4490    1.4728   -0.4657 C.ar    1  UNL1        0.0208
      9 C           1.0735    2.2269   -1.5187 C.ar    1  UNL1        0.1332
     10 O          -0.0870    2.1973   -2.1790 O.3     1  UNL1       -0.4553
     11 C          -1.2136    1.5080   -1.9674 C.ar    1  UNL1        0.1362
     12 C          -2.3892    2.1816   -1.6220 C.ar    1  UNL1       -0.0170
     13 C          -3.5601    1.5319   -1.3965 C.ar    1  UNL1       -0.0364
     14 C          -3.6952    0.1504   -1.4937 C.ar    1  UNL1        0.0427
     15 N          -4.9033   -0.5205   -1.2815 N.am    1  UNL1       -0.2686
     16 C          -6.0811    0.0663   -0.7477 C.2     1  UNL1        0.3082
     17 O          -6.1234    1.2169   -0.3617 O.2     1  UNL1       -0.2521
     18 N          -7.2888   -0.7112   -0.6501 N.am    1  UNL1       -0.2660
     19 C          -8.4966   -0.1909   -0.1377 C.ar    1  UNL1        0.0789
     20 C          -9.0704    0.9002   -0.7076 C.ar    1  UNL1       -0.0330
     21 C         -10.2595    1.4399   -0.3116 C.ar    1  UNL1       -0.0382
     22 C         -10.7774    2.6436   -0.9944 C.3     1  UNL1       -0.0126
     23 C         -11.6012    2.2384   -2.2019 C.3     1  UNL1       -0.0560
     24 C         -11.6656    3.4631   -0.0742 C.3     1  UNL1       -0.0560
     25 C          -9.6213    3.5542   -1.4141 C.3     1  UNL1       -0.0560
     26 C         -10.9070    0.8060    0.7450 C.ar    1  UNL1       -0.0320
     27 C         -10.3810   -0.2876    1.3490 C.ar    1  UNL1        0.0913
     28 N         -11.0723   -0.9580    2.3832 N.pl3   1  UNL1       -0.2173
     29 S         -12.7551   -0.8920    2.6123 S.O2    1  UNL1        0.0404
     30 C         -13.4220    0.7026    2.9767 C.3     1  UNL1        0.0736
     31 O         -13.2026   -1.8484    3.6596 O.2     1  UNL1       -0.1555
     32 O         -13.4856   -1.3472    1.3314 O.2     1  UNL1       -0.1555
     33 C          -9.1367   -0.8042    0.8991 C.ar    1  UNL1        0.1634
     34 O          -8.6761   -1.8987    1.5636 O.3     1  UNL1       -0.4914
     35 C          -8.8945   -3.2453    1.3782 C.3     1  UNL1        0.0790
     36 C          -2.5238   -0.5339   -1.8373 C.ar    1  UNL1        0.0069
     37 C          -2.5775   -1.9293   -1.9697 C.ar    1  UNL1       -0.0521
     38 C          -1.4283   -2.6035   -2.3247 C.ar    1  UNL1       -0.0611
     39 C          -0.2563   -1.9333   -2.5496 C.ar    1  UNL1       -0.0611
     40 C          -0.2067   -0.5730   -2.4194 C.ar    1  UNL1       -0.0505
     41 C          -1.3463    0.1404   -2.0589 C.ar    1  UNL1        0.0262
     42 C           2.0845    3.1666   -1.9320 C.ar    1  UNL1       -0.0011
     43 C           3.2429    3.1811   -1.2427 C.ar    1  UNL1        0.0332
     44 N           3.5549    2.3905   -0.1856 N.ar    1  UNL1       -0.2400
     45 C           5.0755   -0.3916    0.7439 C.ar    1  UNL1       -0.0283
     46 C           5.9602   -1.4170    0.7880 C.ar    1  UNL1        0.0396
     47 C           7.2939   -1.3983    0.1324 C.2     1  UNL1        0.2444
     48 O           7.4629   -0.9214   -0.9977 O.2     1  UNL1       -0.2702
     49 N           8.3883   -1.9549    0.8359 N.am    1  UNL1       -0.3066
     50 C           9.7006   -2.0929    0.3762 C.3     1  UNL1        0.0439
     51 C          10.0959   -3.5671    0.3222 C.3     1  UNL1       -0.0445
     52 C          10.8295   -1.4153    1.1473 C.3     1  UNL1        0.0659
     53 O          12.0027   -1.9049    0.6396 O.3     1  UNL1       -0.3757
     54 C          12.4408   -1.7123   -0.5783 C.3     1  UNL1        0.0711
     55 C          12.9819   -0.4048   -1.0813 C.3     1  UNL1        0.0711
     56 O          14.0864    0.0047   -0.3757 O.3     1  UNL1       -0.3752
     57 C          13.9197    0.4206    0.9153 C.3     1  UNL1        0.0711
     58 C          13.0825    1.7044    0.9798 C.3     1  UNL1        0.0706
     59 O          12.9259    2.1211    2.2973 O.3     1  UNL1       -0.3807
     60 C          12.1561    3.3047    2.3358 C.3     1  UNL1        0.0365
     61 C           5.5868   -2.6250    1.4137 C.ar    1  UNL1       -0.0341
     62 H           3.4108   -6.0342    3.4043 H       1  UNL1        0.1232
     63 H           2.4160   -1.6440    2.3117 H       1  UNL1        0.0648
     64 H           2.3379    0.8421    2.2076 H       1  UNL1        0.1536
     65 H           0.7057    0.7130   -0.0730 H       1  UNL1        0.0689
     66 H          -2.3073    3.2759   -1.5394 H       1  UNL1        0.0655
     67 H          -4.4160    2.1117   -1.1420 H       1  UNL1        0.0637
     68 H          -4.9888   -1.5515   -1.5339 H       1  UNL1        0.1564
     69 H          -7.2547   -1.7104   -0.9641 H       1  UNL1        0.1565
     70 H          -8.5329    1.3677   -1.5514 H       1  UNL1        0.0640
     71 H         -12.6628    2.1654   -1.7967 H       1  UNL1        0.0238
     72 H         -11.6246    3.0803   -2.8926 H       1  UNL1        0.0238
     73 H         -11.2864    1.2799   -2.6189 H       1  UNL1        0.0238
     74 H         -12.6862    3.0999    0.0240 H       1  UNL1        0.0238
     75 H         -11.1172    3.5438    0.8943 H       1  UNL1        0.0238
     76 H         -11.6938    4.4851   -0.5041 H       1  UNL1        0.0238
     77 H          -9.4458    3.4629   -2.4806 H       1  UNL1        0.0238
     78 H          -9.8502    4.6264   -1.1703 H       1  UNL1        0.0238
     79 H          -8.7549    3.2672   -0.7936 H       1  UNL1        0.0238
     80 H         -11.8401    1.2623    1.0466 H       1  UNL1        0.0641
     81 H         -10.5047   -1.5328    3.0352 H       1  UNL1        0.1734
     82 H         -12.7240    1.4000    3.4561 H       1  UNL1        0.0482
     83 H         -14.3195    0.5330    3.6677 H       1  UNL1        0.0482
     84 H         -13.8753    1.1547    2.0434 H       1  UNL1        0.0482
     85 H          -8.9889   -3.5381    0.3167 H       1  UNL1        0.0660
     86 H          -8.0246   -3.8243    1.8253 H       1  UNL1        0.0660
     87 H          -9.7785   -3.5639    2.0114 H       1  UNL1        0.0660
     88 H          -3.4660   -2.5038   -1.8029 H       1  UNL1        0.0624
     89 H          -1.4300   -3.7063   -2.4291 H       1  UNL1        0.0618
     90 H           0.6460   -2.4960   -2.8298 H       1  UNL1        0.0618
     91 H           0.7252   -0.0861   -2.6102 H       1  UNL1        0.0625
     92 H           1.8035    3.8060   -2.7725 H       1  UNL1        0.0669
     93 H           4.0197    3.8982   -1.5503 H       1  UNL1        0.0831
     94 H           5.3839    0.5368    0.2467 H       1  UNL1        0.0644
     95 H           8.2126   -2.3015    1.8540 H       1  UNL1        0.1494
     96 H           9.7168   -1.6747   -0.6857 H       1  UNL1        0.0518
     97 H          10.0817   -3.9647   -0.7199 H       1  UNL1        0.0248
     98 H           9.4500   -4.2360    0.8929 H       1  UNL1        0.0248
     99 H          11.1516   -3.7237    0.6851 H       1  UNL1        0.0248
    100 H          10.8037   -0.3236    1.0806 H       1  UNL1        0.0578
    101 H          10.7576   -1.7275    2.2303 H       1  UNL1        0.0578
    102 H          11.7089   -2.0584   -1.3947 H       1  UNL1        0.0583
    103 H          13.3049   -2.4632   -0.8038 H       1  UNL1        0.0583
    104 H          12.2239    0.3643   -1.2158 H       1  UNL1        0.0583
    105 H          13.3843   -0.6077   -2.1336 H       1  UNL1        0.0583
    106 H          14.9368    0.7589    1.2737 H       1  UNL1        0.0583
    107 H          13.5340   -0.3794    1.5544 H       1  UNL1        0.0583
    108 H          13.7179    2.5212    0.5055 H       1  UNL1        0.0582
    109 H          12.1668    1.5419    0.4170 H       1  UNL1        0.0582
    110 H          11.1570    3.0801    1.8617 H       1  UNL1        0.0524
    111 H          12.6529    4.0733    1.6952 H       1  UNL1        0.0524
    112 H          12.0323    3.6990    3.3521 H       1  UNL1        0.0524
    113 H           6.2486   -3.4131    1.4599 H       1  UNL1        0.0637
@<TRIPOS>BOND
     1     1     2    3
     2     2     3    1
     3     3     4   ar
     4     4     5   ar
     5     5     6    1
     6     6     7    1
     7     7     8   ar
     8     8     9   ar
     9     9    10    1
    10    10    11    1
    11    11    12   ar
    12    12    13   ar
    13    13    14   ar
    14    14    15    1
    15    15    16   am
    16    16    17    2
    17    16    18   am
    18    18    19    1
    19    19    20   ar
    20    20    21   ar
    21    21    22    1
    22    22    23    1
    23    22    24    1
    24    22    25    1
    25    21    26   ar
    26    26    27   ar
    27    27    28    1
    28    28    29    1
    29    29    30    1
    30    29    31    2
    31    29    32    2
    32    27    33   ar
    33    33    34    1
    34    34    35    1
    35    14    36   ar
    36    36    37   ar
    37    37    38   ar
    38    38    39   ar
    39    39    40   ar
    40    40    41   ar
    41     9    42   ar
    42    42    43   ar
    43    43    44   ar
    44     5    45   ar
    45    45    46   ar
    46    46    47    1
    47    47    48    2
    48    47    49   am
    49    49    50    1
    50    50    51    1
    51    50    52    1
    52    52    53    1
    53    53    54    1
    54    54    55    1
    55    55    56    1
    56    56    57    1
    57    57    58    1
    58    58    59    1
    59    59    60    1
    60    46    61   ar
    61    61     3   ar
    62    44     7   ar
    63    41    11   ar
    64    33    19   ar
    65    41    36   ar
    66     1    62    1
    67     4    63    1
    68     6    64    1
    69     8    65    1
    70    12    66    1
    71    13    67    1
    72    15    68    1
    73    18    69    1
    74    20    70    1
    75    23    71    1
    76    23    72    1
    77    23    73    1
    78    24    74    1
    79    24    75    1
    80    24    76    1
    81    25    77    1
    82    25    78    1
    83    25    79    1
    84    26    80    1
    85    28    81    1
    86    30    82    1
    87    30    83    1
    88    30    84    1
    89    35    85    1
    90    35    86    1
    91    35    87    1
    92    37    88    1
    93    38    89    1
    94    39    90    1
    95    40    91    1
    96    42    92    1
    97    43    93    1
    98    45    94    1
    99    49    95    1
   100    50    96    1
   101    51    97    1
   102    51    98    1
   103    51    99    1
   104    52   100    1
   105    52   101    1
   106    54   102    1
   107    54   103    1
   108    55   104    1
   109    55   105    1
   110    57   106    1
   111    57   107    1
   112    58   108    1
   113    58   109    1
   114    60   110    1
   115    60   111    1
   116    60   112    1
   117    61   113    1
