
     RDKit          3D

 47 50  0  0  0  0  0  0  0  0999 V2000
    7.5417   -1.1544   -3.8163 C   0  0  0  0  0  0  0  0  0  0  0  0
    7.7601   -1.2225   -2.5895 C   0  0  0  0  0  0  0  0  0  0  0  0
    8.0480   -1.3183   -1.0981 C   0  0  0  0  0  0  0  0  0  0  0  0
    7.0057   -0.7292   -0.3872 O   0  0  0  0  0  0  0  0  0  0  0  0
    5.6909   -1.0249   -0.3954 C   0  0  0  0  0  0  0  0  0  0  0  0
    4.8612   -0.2114    0.5271 C   0  0  0  0  0  0  0  0  0  0  0  0
    3.5945   -0.4990    0.5308 N   0  0  0  0  0  0  0  0  0  0  0  0
    2.9439   -1.4077   -0.1730 C   0  0  0  0  0  0  0  0  0  0  0  0
    1.5342   -1.5871    0.0128 C   0  0  0  0  0  0  0  0  0  0  0  0
    0.8810   -2.4279   -0.6135 O   0  0  0  0  0  0  0  0  0  0  0  0
    0.8172   -0.7887    0.9567 N   0  0  0  0  0  0  0  0  0  0  0  0
   -0.5490   -0.8497    1.2845 C   0  0  0  0  0  0  0  0  0  0  0  0
   -0.9997   -1.5686    2.3706 C   0  0  0  0  0  0  0  0  0  0  0  0
   -2.2884   -1.6377    2.8062 C   0  0  0  0  0  0  0  0  0  0  0  0
   -2.6986   -2.3276    3.8973 F   0  0  0  0  0  0  0  0  0  0  0  0
   -3.2415   -0.8841    2.0520 C   0  0  0  0  0  0  0  0  0  0  0  0
   -4.8775   -0.9416    2.6462 Cl  0  0  0  0  0  0  0  0  0  0  0  0
   -2.8533   -0.1674    0.9869 C   0  0  0  0  0  0  0  0  0  0  0  0
   -3.8534    0.6755    0.1938 C   0  0  2  0  0  0  0  0  0  0  0  0
   -4.8567   -0.2385   -0.4242 C   0  0  0  0  0  0  0  0  0  0  0  0
   -4.2109   -1.1556   -1.2620 F   0  0  0  0  0  0  0  0  0  0  0  0
   -3.0684    1.2709   -0.8578 N   0  0  0  0  0  0  0  0  0  0  0  0
   -2.9199    2.4485   -1.1559 C   0  0  0  0  0  0  0  0  0  0  0  0
   -2.0701    2.8805   -2.2780 N   0  0  0  0  0  0  0  0  0  0  0  0
   -3.5590    3.4382   -0.4316 O   0  0  0  0  0  0  0  0  0  0  0  0
   -4.1037    3.1393    0.8274 C   0  0  1  0  0  0  0  0  0  0  0  0
   -5.5437    2.5770    0.7617 C   0  0  0  0  0  0  0  0  0  0  0  0
   -4.4295    1.7104    1.0912 C   0  0  1  0  0  0  0  0  0  0  0  0
   -1.5273   -0.1195    0.5646 C   0  0  0  0  0  0  0  0  0  0  0  0
    3.7215   -2.1501   -1.0231 C   0  0  0  0  0  0  0  0  0  0  0  0
    5.0663   -1.9100   -1.0805 N   0  0  0  0  0  0  0  0  0  0  0  0
    7.3410   -1.0993   -4.8399 H   0  0  0  0  0  0  0  0  0  0  0  0
    8.9986   -0.7891   -0.8689 H   0  0  0  0  0  0  0  0  0  0  0  0
    8.2359   -2.4105   -0.8812 H   0  0  0  0  0  0  0  0  0  0  0  0
    5.4309    0.5056    1.0761 H   0  0  0  0  0  0  0  0  0  0  0  0
    1.4196   -0.0779    1.4752 H   0  0  0  0  0  0  0  0  0  0  0  0
   -0.2221   -2.1353    2.9045 H   0  0  0  0  0  0  0  0  0  0  0  0
   -5.4992   -0.7852    0.2590 H   0  0  0  0  0  0  0  0  0  0  0  0
   -5.5296    0.3202   -1.1431 H   0  0  0  0  0  0  0  0  0  0  0  0
   -1.2343    3.4285   -2.0145 H   0  0  0  0  0  0  0  0  0  0  0  0
   -2.3886    2.5962   -3.2053 H   0  0  0  0  0  0  0  0  0  0  0  0
   -3.8768    3.8378    1.6785 H   0  0  0  0  0  0  0  0  0  0  0  0
   -6.2013    2.9102    1.5881 H   0  0  0  0  0  0  0  0  0  0  0  0
   -6.0321    2.6612   -0.2123 H   0  0  0  0  0  0  0  0  0  0  0  0
   -4.3474    1.4403    2.1985 H   0  0  0  0  0  0  0  0  0  0  0  0
   -1.2077    0.4406   -0.3002 H   0  0  0  0  0  0  0  0  0  0  0  0
    3.2976   -2.9143   -1.6383 H   0  0  0  0  0  0  0  0  0  0  0  0
  1  2  3  0
  2  3  1  0
  3  4  1  0
  4  5  1  0
  5  6  2  0
  6  7  1  0
  7  8  2  0
  8  9  1  0
  9 10  2  0
  9 11  1  0
 11 12  1  0
 12 13  2  0
 13 14  1  0
 14 15  1  0
 14 16  2  0
 16 17  1  0
 16 18  1  0
 18 19  1  0
 19 20  1  6
 20 21  1  0
 19 22  1  0
 22 23  2  0
 23 24  1  0
 23 25  1  0
 25 26  1  0
 26 27  1  0
 27 28  1  0
 18 29  2  0
  8 30  1  0
 30 31  2  0
 31  5  1  0
 29 12  1  0
 28 19  1  0
 28 26  1  0
  1 32  1  0
  3 33  1  0
  3 34  1  0
  6 35  1  0
 11 36  1  0
 13 37  1  0
 20 38  1  0
 20 39  1  0
 24 40  1  0
 24 41  1  0
 26 42  1  1
 27 43  1  0
 27 44  1  0
 28 45  1  1
 29 46  1  0
 30 47  1  0
M  END
$$$$
