@<TRIPOS>MOLECULE
*****
 47 50 0 0 0
SMALL
GASTEIGER

@<TRIPOS>ATOM
      1 C           7.5417   -1.1544   -3.8163 C.1     1  UNL1       -0.1158
      2 C           7.7601   -1.2225   -2.5895 C.1     1  UNL1       -0.0647
      3 C           8.0480   -1.3183   -1.0981 C.3     1  UNL1        0.1513
      4 O           7.0057   -0.7292   -0.3872 O.3     1  UNL1       -0.4624
      5 C           5.6909   -1.0249   -0.3954 C.ar    1  UNL1        0.2344
      6 C           4.8612   -0.2114    0.5271 C.ar    1  UNL1        0.0899
      7 N           3.5945   -0.4990    0.5308 N.ar    1  UNL1       -0.2435
      8 C           2.9439   -1.4077   -0.1730 C.ar    1  UNL1        0.1439
      9 C           1.5342   -1.5871    0.0128 C.2     1  UNL1        0.2681
     10 O           0.8810   -2.4279   -0.6135 O.2     1  UNL1       -0.2681
     11 N           0.8172   -0.7887    0.9567 N.am    1  UNL1       -0.2801
     12 C          -0.5490   -0.8497    1.2845 C.ar    1  UNL1        0.0369
     13 C          -0.9997   -1.5686    2.3706 C.ar    1  UNL1       -0.0037
     14 C          -2.2884   -1.6377    2.8062 C.ar    1  UNL1        0.1437
     15 F          -2.6986   -2.3276    3.8973 F       1  UNL1       -0.2039
     16 C          -3.2415   -0.8841    2.0520 C.ar    1  UNL1        0.0817
     17 CL         -4.8775   -0.9416    2.6462 Cl      1  UNL1       -0.0802
     18 C          -2.8533   -0.1674    0.9869 C.ar    1  UNL1        0.0057
     19 C          -3.8534    0.6755    0.1938 C.3     1  UNL1        0.1272
     20 C          -4.8567   -0.2385   -0.4242 C.3     1  UNL1        0.1199
     21 F          -4.2109   -1.1556   -1.2620 F       1  UNL1       -0.2462
     22 N          -3.0684    1.2709   -0.8578 N.2     1  UNL1       -0.2225
     23 C          -2.9199    2.4485   -1.1559 C.2     1  UNL1        0.2763
     24 N          -2.0701    2.8805   -2.2780 N.pl3   1  UNL1       -0.3134
     25 O          -3.5590    3.4382   -0.4316 O.2     1  UNL1       -0.4622
     26 C          -4.1037    3.1393    0.8274 C.3     1  UNL1        0.1090
     27 C          -5.5437    2.5770    0.7617 C.3     1  UNL1       -0.0065
     28 C          -4.4295    1.7104    1.0912 C.3     1  UNL1        0.0314
     29 C          -1.5273   -0.1195    0.5646 C.ar    1  UNL1       -0.0333
     30 C           3.7215   -2.1501   -1.0231 C.ar    1  UNL1        0.0619
     31 N           5.0663   -1.9100   -1.0805 N.ar    1  UNL1       -0.2177
     32 H           7.3410   -1.0993   -4.8399 H       1  UNL1        0.1229
     33 H           8.9986   -0.7891   -0.8689 H       1  UNL1        0.0837
     34 H           8.2359   -2.4105   -0.8812 H       1  UNL1        0.0837
     35 H           5.4309    0.5056    1.0761 H       1  UNL1        0.0884
     36 H           1.4196   -0.0779    1.4752 H       1  UNL1        0.1552
     37 H          -0.2221   -2.1353    2.9045 H       1  UNL1        0.0665
     38 H          -5.4992   -0.7852    0.2590 H       1  UNL1        0.0643
     39 H          -5.5296    0.3202   -1.1431 H       1  UNL1        0.0643
     40 H          -1.2343    3.4285   -2.0145 H       1  UNL1        0.1466
     41 H          -2.3886    2.5962   -3.2053 H       1  UNL1        0.1466
     42 H          -3.8768    3.8378    1.6785 H       1  UNL1        0.0737
     43 H          -6.2013    2.9102    1.5881 H       1  UNL1        0.0306
     44 H          -6.0321    2.6612   -0.2123 H       1  UNL1        0.0306
     45 H          -4.3474    1.4403    2.1985 H       1  UNL1        0.0365
     46 H          -1.2077    0.4406   -0.3002 H       1  UNL1        0.0640
     47 H           3.2976   -2.9143   -1.6383 H       1  UNL1        0.0854
@<TRIPOS>BOND
     1     1     2    3
     2     2     3    1
     3     3     4    1
     4     4     5    1
     5     5     6   ar
     6     6     7   ar
     7     7     8   ar
     8     8     9    1
     9     9    10    2
    10     9    11   am
    11    11    12    1
    12    12    13   ar
    13    13    14   ar
    14    14    15    1
    15    14    16   ar
    16    16    17    1
    17    16    18   ar
    18    18    19    1
    19    19    20    1
    20    20    21    1
    21    19    22    1
    22    22    23    2
    23    23    24    1
    24    23    25    1
    25    25    26    1
    26    26    27    1
    27    27    28    1
    28    18    29   ar
    29     8    30   ar
    30    30    31   ar
    31    31     5   ar
    32    29    12   ar
    33    28    19    1
    34    28    26    1
    35     1    32    1
    36     3    33    1
    37     3    34    1
    38     6    35    1
    39    11    36    1
    40    13    37    1
    41    20    38    1
    42    20    39    1
    43    24    40    1
    44    24    41    1
    45    26    42    1
    46    27    43    1
    47    27    44    1
    48    28    45    1
    49    29    46    1
    50    30    47    1
