@<TRIPOS>MOLECULE
*****
 126 129 0 0 0
SMALL
GASTEIGER

@<TRIPOS>ATOM
      1 C           6.3532   -4.7640    3.9388 C.3     1  UNK1       -0.0652
      2 C           7.4955   -3.9620    3.3630 C.3     1  UNK1       -0.0537
      3 C           6.9476   -3.0341    2.3327 C.3     1  UNK1       -0.0243
      4 C           5.9439   -2.0457    2.8072 C.3     1  UNK1        0.1202
      5 N           5.4892   -1.2049    1.6829 N.am    1  UNK1       -0.3008
      6 C           4.1539   -0.9247    1.4122 C.2     1  UNK1        0.2343
      7 O           3.2502   -1.3863    2.1443 O.2     1  UNK1       -0.2738
      8 C           3.7073   -0.0721    0.2565 C.3     1  UNK1        0.1047
      9 C           4.4978    1.1832    0.1849 C.3     1  UNK1        0.0021
     10 C           3.4614    2.2932    0.1824 C.3     1  UNK1        0.0769
     11 O           3.2485    2.6081   -1.1244 O.3     1  UNK1       -0.3704
     12 C           3.5000    3.8719   -1.5579 C.3     1  UNK1        0.0731
     13 C           4.9331    4.1953   -1.2882 C.ar    1  UNK1       -0.0213
     14 C           5.9436    3.7752   -2.1174 C.ar    1  UNK1       -0.0558
     15 C           7.2571    4.0898   -1.8603 C.ar    1  UNK1       -0.0537
     16 C           7.5754    4.8353   -0.7605 C.ar    1  UNK1       -0.0179
     17 C           8.8906    5.1812   -0.4567 C.ar    1  UNK1       -0.0540
     18 C           9.1483    5.9365    0.6655 C.ar    1  UNK1       -0.0612
     19 C           8.1739    6.3773    1.5180 C.ar    1  UNK1       -0.0612
     20 C           6.8703    6.0216    1.1975 C.ar    1  UNK1       -0.0540
     21 C           6.5784    5.2682    0.0838 C.ar    1  UNK1       -0.0176
     22 C           5.2498    4.9439   -0.1859 C.ar    1  UNK1       -0.0487
     23 C           2.2874    1.6304    0.8821 C.3     1  UNK1        0.0419
     24 N           2.3253    0.2436    0.3275 N.am    1  UNK1       -0.2858
     25 C           1.1139   -0.4334    0.0742 C.2     1  UNK1        0.2368
     26 O           0.0325    0.1978    0.3990 O.2     1  UNK1       -0.2735
     27 C           1.0029   -1.7723   -0.5092 C.3     1  UNK1        0.1019
     28 N          -0.3485   -2.3183   -0.3217 N.am    1  UNK1       -0.3022
     29 C          -1.5275   -1.6994   -0.7577 C.2     1  UNK1        0.2342
     30 O          -1.5160   -0.6179   -1.3838 O.2     1  UNK1       -0.2738
     31 C          -2.8338   -2.3803   -0.4367 C.3     1  UNK1        0.1022
     32 N          -3.9415   -1.5898   -0.9321 N.am    1  UNK1       -0.3022
     33 C          -4.5658   -0.5777   -0.1594 C.2     1  UNK1        0.2340
     34 O          -4.0477   -0.4270    1.0073 O.2     1  UNK1       -0.2738
     35 C          -5.6808    0.2755   -0.5342 C.3     1  UNK1        0.0999
     36 C          -6.9884   -0.5025   -0.2869 C.3     1  UNK1       -0.0159
     37 C          -7.0067   -1.7594   -1.1126 C.3     1  UNK1        0.0469
     38 C          -8.3079   -2.4518   -0.8444 C.2     1  UNK1        0.3048
     39 O          -9.1194   -1.9560   -0.0299 O.2     1  UNK1       -0.2510
     40 O          -8.6637   -3.6441   -1.4705 O.3     1  UNK1       -0.4806
     41 N          -5.8140    1.4022    0.4318 N.am    1  UNK1       -0.3025
     42 C          -6.1068    2.7160   -0.0019 C.2     1  UNK1        0.2345
     43 O          -6.2470    2.8469   -1.2698 O.2     1  UNK1       -0.2737
     44 C          -6.2551    3.8941    0.8431 C.3     1  UNK1        0.1094
     45 C          -7.3140    3.8643    1.8799 C.3     1  UNK1        0.0716
     46 C          -7.2073    2.7943    2.8890 C.2     1  UNK1        0.3070
     47 O          -7.9026    1.7226    2.8624 O.2     1  UNK1       -0.2509
     48 O          -6.3121    2.8866    3.9702 O.3     1  UNK1       -0.4806
     49 N          -6.5283    5.0532   -0.0274 N.am    1  UNK1       -0.3037
     50 C          -7.6827    5.0449   -0.8275 C.2     0  UNK0        0.2105
     51 C          -7.9738    6.2173   -1.7175 C.3     0  UNK0        0.0122
     52 O          -8.5013    4.1098   -0.8494 O.2     0  UNK0       -0.2761
     53 C          -2.8412   -3.7287   -1.0362 C.3     1  UNK1       -0.0141
     54 C          -4.1074   -4.5189   -0.7575 C.3     1  UNK1       -0.0481
     55 C          -3.7043   -5.9873   -0.9916 C.3     1  UNK1       -0.0527
     56 C          -3.0556   -6.1300   -2.3437 C.3     1  UNK1       -0.0530
     57 C          -3.3430   -4.9012   -3.1588 C.3     1  UNK1       -0.0527
     58 C          -2.5314   -3.7615   -2.5203 C.3     1  UNK1       -0.0481
     59 C           1.4858   -1.9605   -1.9002 C.3     1  UNK1       -0.0197
     60 C           1.2646   -3.4058   -2.3081 C.3     1  UNK1       -0.0605
     61 C           0.9385   -0.9908   -2.9172 C.3     1  UNK1       -0.0605
     62 C           6.4414   -1.1860    3.9138 C.2     1  UNK1        0.3253
     63 O           6.4850    0.0687    3.8657 O.2     1  UNK1       -0.2489
     64 O           6.8840   -1.7962    5.0695 O.3     1  UNK1       -0.4793
     65 H           6.1750   -4.5762    5.0162 H       1  UNK1        0.0230
     66 H           5.3828   -4.5592    3.4002 H       1  UNK1        0.0230
     67 H           6.4939   -5.8752    3.8013 H       1  UNK1        0.0230
     68 H           8.1902   -4.7243    2.8924 H       1  UNK1        0.0263
     69 H           8.1243   -3.4810    4.1354 H       1  UNK1        0.0263
     70 H           7.8291   -2.4442    1.9302 H       1  UNK1        0.0288
     71 H           6.6023   -3.6016    1.4292 H       1  UNK1        0.0288
     72 H           5.0608   -2.5638    3.2149 H       1  UNK1        0.0614
     73 H           6.2280   -0.7931    1.0518 H       1  UNK1        0.1496
     74 H           3.9043   -0.6274   -0.6992 H       1  UNK1        0.0597
     75 H           5.1341    1.3257    1.0993 H       1  UNK1        0.0313
     76 H           5.1267    1.2302   -0.7366 H       1  UNK1        0.0313
     77 H           3.8049    3.1341    0.8280 H       1  UNK1        0.0612
     78 H           3.3996    3.8551   -2.6818 H       1  UNK1        0.0610
     79 H           2.8695    4.6687   -1.1162 H       1  UNK1        0.0610
     80 H           5.6884    3.1801   -2.9908 H       1  UNK1        0.0621
     81 H           8.0865    3.7731   -2.4936 H       1  UNK1        0.0624
     82 H           9.6486    4.8242   -1.1384 H       1  UNK1        0.0624
     83 H          10.1684    6.1896    0.8763 H       1  UNK1        0.0618
     84 H           8.3634    6.9682    2.3976 H       1  UNK1        0.0618
     85 H           6.0847    6.3598    1.8568 H       1  UNK1        0.0624
     86 H           4.4753    5.3253    0.5119 H       1  UNK1        0.0627
     87 H           2.3954    1.6072    1.9604 H       1  UNK1        0.0490
     88 H           1.3760    2.0907    0.4781 H       1  UNK1        0.0490
     89 H           1.6841   -2.4132    0.1410 H       1  UNK1        0.0597
     90 H          -0.4293   -3.2591    0.1878 H       1  UNK1        0.1495
     91 H          -2.8239   -2.4319    0.6729 H       1  UNK1        0.0597
     92 H          -4.2994   -1.7575   -1.8899 H       1  UNK1        0.1495
     93 H          -5.7362    0.6225   -1.5649 H       1  UNK1        0.0595
     94 H          -6.9279   -0.8165    0.7907 H       1  UNK1        0.0293
     95 H          -7.8745    0.1490   -0.4525 H       1  UNK1        0.0293
     96 H          -6.8890   -1.5433   -2.1752 H       1  UNK1        0.0378
     97 H          -6.2089   -2.4219   -0.6887 H       1  UNK1        0.0378
     98 H          -9.1542   -4.3801   -0.9417 H       1  UNK1        0.2951
     99 H          -5.6842    1.2340    1.4425 H       1  UNK1        0.1495
    100 H          -5.2606    4.0724    1.3337 H       1  UNK1        0.0600
    101 H          -8.3454    3.9071    1.4669 H       1  UNK1        0.0401
    102 H          -7.2227    4.8304    2.4690 H       1  UNK1        0.0401
    103 H          -6.4459    2.3296    4.7953 H       1  UNK1        0.2951
    104 H          -5.8951    5.8737   -0.0677 H       1  UNK1        0.1495
    105 H          -8.6862    6.8555   -1.1999 H       0  UNK0        0.0322
    106 H          -7.0156    6.6580   -2.0034 H       0  UNK0        0.0322
    107 H          -8.4674    5.8558   -2.6422 H       0  UNK0        0.0322
    108 H          -2.0189   -4.3216   -0.5441 H       1  UNK1        0.0323
    109 H          -4.3448   -4.4309    0.3019 H       1  UNK1        0.0269
    110 H          -4.9506   -4.2699   -1.3962 H       1  UNK1        0.0269
    111 H          -2.9523   -6.3069   -0.2349 H       1  UNK1        0.0265
    112 H          -4.6159   -6.6217   -0.9948 H       1  UNK1        0.0265
    113 H          -1.9534   -6.2028   -2.2474 H       1  UNK1        0.0265
    114 H          -3.4520   -7.0123   -2.8872 H       1  UNK1        0.0265
    115 H          -2.9191   -5.0050   -4.1993 H       1  UNK1        0.0265
    116 H          -4.3971   -4.6538   -3.2906 H       1  UNK1        0.0265
    117 H          -1.4690   -3.9796   -2.7045 H       1  UNK1        0.0269
    118 H          -2.7920   -2.8498   -3.0566 H       1  UNK1        0.0269
    119 H           2.5954   -1.8314   -1.9242 H       1  UNK1        0.0318
    120 H           0.6786   -3.8976   -1.5302 H       1  UNK1        0.0233
    121 H           2.2435   -3.9086   -2.3761 H       1  UNK1        0.0233
    122 H           0.8001   -3.4855   -3.3175 H       1  UNK1        0.0233
    123 H           0.8647    0.0097   -2.4974 H       1  UNK1        0.0233
    124 H           1.7340   -0.8982   -3.7262 H       1  UNK1        0.0233
    125 H           0.0513   -1.3371   -3.4532 H       1  UNK1        0.0233
    126 H           7.0127   -1.3052    5.9539 H       1  UNK1        0.2951
@<TRIPOS>BOND
     1     1     2    1
     2     2     3    1
     3     3     4    1
     4     4     5    1
     5     5     6   am
     6     6     7    2
     7     6     8    1
     8     8     9    1
     9     9    10    1
    10    10    11    1
    11    11    12    1
    12    12    13    1
    13    13    14   ar
    14    14    15   ar
    15    15    16   ar
    16    16    17   ar
    17    17    18   ar
    18    18    19   ar
    19    19    20   ar
    20    20    21   ar
    21    21    22   ar
    22    10    23    1
    23    23    24    1
    24    24    25   am
    25    25    26    2
    26    25    27    1
    27    27    28    1
    28    28    29   am
    29    29    30    2
    30    29    31    1
    31    31    32    1
    32    32    33   am
    33    33    34    2
    34    33    35    1
    35    35    36    1
    36    36    37    1
    37    37    38    1
    38    38    39    2
    39    38    40    1
    40    35    41    1
    41    41    42   am
    42    42    43    2
    43    42    44    1
    44    44    45    1
    45    45    46    1
    46    46    47    2
    47    46    48    1
    48    44    49    1
    49    49    50   am
    50    50    51    1
    51    50    52    2
    52    31    53    1
    53    53    54    1
    54    54    55    1
    55    55    56    1
    56    56    57    1
    57    57    58    1
    58    27    59    1
    59    59    60    1
    60    59    61    1
    61     4    62    1
    62    62    63    2
    63    62    64    1
    64    24     8    1
    65    58    53    1
    66    22    13   ar
    67    21    16   ar
    68     1    65    1
    69     1    66    1
    70     1    67    1
    71     2    68    1
    72     2    69    1
    73     3    70    1
    74     3    71    1
    75     4    72    1
    76     5    73    1
    77     8    74    1
    78     9    75    1
    79     9    76    1
    80    10    77    1
    81    12    78    1
    82    12    79    1
    83    14    80    1
    84    15    81    1
    85    17    82    1
    86    18    83    1
    87    19    84    1
    88    20    85    1
    89    22    86    1
    90    23    87    1
    91    23    88    1
    92    27    89    1
    93    28    90    1
    94    31    91    1
    95    32    92    1
    96    35    93    1
    97    36    94    1
    98    36    95    1
    99    37    96    1
   100    37    97    1
   101    40    98    1
   102    41    99    1
   103    44   100    1
   104    45   101    1
   105    45   102    1
   106    48   103    1
   107    49   104    1
   108    51   105    1
   109    51   106    1
   110    51   107    1
   111    53   108    1
   112    54   109    1
   113    54   110    1
   114    55   111    1
   115    55   112    1
   116    56   113    1
   117    56   114    1
   118    57   115    1
   119    57   116    1
   120    58   117    1
   121    58   118    1
   122    59   119    1
   123    60   120    1
   124    60   121    1
   125    60   122    1
   126    61   123    1
   127    61   124    1
   128    61   125    1
   129    64   126    1
