@<TRIPOS>MOLECULE
*****
 32 33 0 0 0
SMALL
GASTEIGER

@<TRIPOS>ATOM
      1 C           3.6156    1.6624   -1.3765 C.3     1  UNL1       -0.0482
      2 C           3.3387    0.2023   -1.0957 C.3     1  UNL1        0.0785
      3 C           4.0093   -0.2580    0.1474 C.2     1  UNL1        0.3119
      4 O           4.5758   -0.8645    1.2435 O.3     1  UNL1       -0.4802
      5 O           4.5578    0.6170    0.8997 O.2     1  UNL1       -0.2503
      6 C           1.9178   -0.1500   -1.0990 C.ar    1  UNL1       -0.0305
      7 C           1.0825    0.4255   -0.1356 C.ar    1  UNL1       -0.0154
      8 C          -0.2665    0.0981   -0.1299 C.ar    1  UNL1        0.1287
      9 O          -1.0209    0.7164    0.8619 O.3     1  UNL1       -0.4560
     10 C          -2.3790    0.4288    0.9199 C.ar    1  UNL1        0.1284
     11 C          -2.7715   -0.6388    1.7056 C.ar    1  UNL1       -0.0193
     12 C          -4.0897   -0.9883    1.8169 C.ar    1  UNL1       -0.0583
     13 C          -5.0631   -0.2955    1.1563 C.ar    1  UNL1       -0.0615
     14 C          -4.6774    0.7821    0.3620 C.ar    1  UNL1       -0.0583
     15 C          -3.3565    1.1421    0.2428 C.ar    1  UNL1       -0.0193
     16 C          -0.8347   -0.7810   -1.0417 C.ar    1  UNL1       -0.0193
     17 C           0.0227   -1.3106   -1.9553 C.ar    1  UNL1       -0.0580
     18 C           1.3586   -1.0261   -2.0100 C.ar    1  UNL1       -0.0576
     19 H           2.9930    2.3381   -0.7798 H       1  UNL1        0.0241
     20 H           3.3927    1.8244   -2.4487 H       1  UNL1        0.0241
     21 H           4.6993    1.8131   -1.2504 H       1  UNL1        0.0241
     22 H           3.8213   -0.3661   -1.9440 H       1  UNL1        0.0459
     23 H           4.7412   -1.8620    1.3239 H       1  UNL1        0.2951
     24 H           1.5131    1.1145    0.5837 H       1  UNL1        0.0657
     25 H          -2.0356   -1.2125    2.2440 H       1  UNL1        0.0654
     26 H          -4.3986   -1.8203    2.4287 H       1  UNL1        0.0619
     27 H          -6.1238   -0.5047    1.1896 H       1  UNL1        0.0618
     28 H          -5.3669    1.3995   -0.2049 H       1  UNL1        0.0619
     29 H          -3.0017    1.9769   -0.3657 H       1  UNL1        0.0654
     30 H          -1.8981   -0.9847   -0.9702 H       1  UNL1        0.0654
     31 H          -0.3686   -2.0016   -2.6890 H       1  UNL1        0.0619
     32 H           2.0132   -1.4766   -2.7645 H       1  UNL1        0.0621
@<TRIPOS>BOND
     1     1     2    1
     2     2     3    1
     3     3     4    1
     4     3     5    2
     5     2     6    1
     6     6     7   ar
     7     7     8   ar
     8     8     9    1
     9     9    10    1
    10    10    11   ar
    11    11    12   ar
    12    12    13   ar
    13    13    14   ar
    14    14    15   ar
    15     8    16   ar
    16    16    17   ar
    17    17    18   ar
    18    18     6   ar
    19    15    10   ar
    20     1    19    1
    21     1    20    1
    22     1    21    1
    23     2    22    1
    24     4    23    1
    25     7    24    1
    26    11    25    1
    27    12    26    1
    28    13    27    1
    29    14    28    1
    30    15    29    1
    31    16    30    1
    32    17    31    1
    33    18    32    1
