
     RDKit          3D

 32 33  0  0  0  0  0  0  0  0999 V2000
    3.6156    1.6624   -1.3765 C   0  0  0  0  0  0  0  0  0  0  0  0
    3.3387    0.2023   -1.0957 C   0  0  0  0  0  0  0  0  0  0  0  0
    4.0093   -0.2580    0.1474 C   0  0  0  0  0  0  0  0  0  0  0  0
    4.5758   -0.8645    1.2435 O   0  0  0  0  0  0  0  0  0  0  0  0
    4.5578    0.6170    0.8997 O   0  0  0  0  0  0  0  0  0  0  0  0
    1.9178   -0.1500   -1.0990 C   0  0  0  0  0  0  0  0  0  0  0  0
    1.0825    0.4255   -0.1356 C   0  0  0  0  0  0  0  0  0  0  0  0
   -0.2665    0.0981   -0.1299 C   0  0  0  0  0  0  0  0  0  0  0  0
   -1.0209    0.7164    0.8619 O   0  0  0  0  0  0  0  0  0  0  0  0
   -2.3790    0.4288    0.9199 C   0  0  0  0  0  0  0  0  0  0  0  0
   -2.7715   -0.6388    1.7056 C   0  0  0  0  0  0  0  0  0  0  0  0
   -4.0897   -0.9883    1.8169 C   0  0  0  0  0  0  0  0  0  0  0  0
   -5.0631   -0.2955    1.1563 C   0  0  0  0  0  0  0  0  0  0  0  0
   -4.6774    0.7821    0.3620 C   0  0  0  0  0  0  0  0  0  0  0  0
   -3.3565    1.1421    0.2428 C   0  0  0  0  0  0  0  0  0  0  0  0
   -0.8347   -0.7810   -1.0417 C   0  0  0  0  0  0  0  0  0  0  0  0
    0.0227   -1.3106   -1.9553 C   0  0  0  0  0  0  0  0  0  0  0  0
    1.3586   -1.0261   -2.0100 C   0  0  0  0  0  0  0  0  0  0  0  0
    2.9930    2.3381   -0.7798 H   0  0  0  0  0  0  0  0  0  0  0  0
    3.3927    1.8244   -2.4487 H   0  0  0  0  0  0  0  0  0  0  0  0
    4.6993    1.8131   -1.2504 H   0  0  0  0  0  0  0  0  0  0  0  0
    3.8213   -0.3661   -1.9440 H   0  0  0  0  0  0  0  0  0  0  0  0
    4.7412   -1.8620    1.3239 H   0  0  0  0  0  0  0  0  0  0  0  0
    1.5131    1.1145    0.5837 H   0  0  0  0  0  0  0  0  0  0  0  0
   -2.0356   -1.2125    2.2440 H   0  0  0  0  0  0  0  0  0  0  0  0
   -4.3986   -1.8203    2.4287 H   0  0  0  0  0  0  0  0  0  0  0  0
   -6.1238   -0.5047    1.1896 H   0  0  0  0  0  0  0  0  0  0  0  0
   -5.3669    1.3995   -0.2049 H   0  0  0  0  0  0  0  0  0  0  0  0
   -3.0017    1.9769   -0.3657 H   0  0  0  0  0  0  0  0  0  0  0  0
   -1.8981   -0.9847   -0.9702 H   0  0  0  0  0  0  0  0  0  0  0  0
   -0.3686   -2.0016   -2.6890 H   0  0  0  0  0  0  0  0  0  0  0  0
    2.0132   -1.4766   -2.7645 H   0  0  0  0  0  0  0  0  0  0  0  0
  1  2  1  0
  2  3  1  0
  3  4  1  0
  3  5  2  0
  2  6  1  0
  6  7  2  0
  7  8  1  0
  8  9  1  0
  9 10  1  0
 10 11  2  0
 11 12  1  0
 12 13  2  0
 13 14  1  0
 14 15  2  0
  8 16  2  0
 16 17  1  0
 17 18  2  0
 18  6  1  0
 15 10  1  0
  1 19  1  0
  1 20  1  0
  1 21  1  0
  2 22  1  0
  4 23  1  0
  7 24  1  0
 11 25  1  0
 12 26  1  0
 13 27  1  0
 14 28  1  0
 15 29  1  0
 16 30  1  0
 17 31  1  0
 18 32  1  0
M  END
$$$$
