@<TRIPOS>MOLECULE
*****
 24 26 0 0 0
SMALL
GASTEIGER

@<TRIPOS>ATOM
      1 N          -3.3539    0.1286   -0.2213 N.pl3   1  UNL1       -0.3575
      2 C          -1.9891    0.4770   -0.1033 C.ar    1  UNL1        0.0324
      3 C          -1.6751    1.8353    0.0105 C.ar    1  UNL1       -0.0397
      4 C          -0.3748    2.2780    0.1305 C.ar    1  UNL1       -0.0473
      5 C           0.6581    1.3457    0.1386 C.ar    1  UNL1        0.0456
      6 C           2.0163    1.8422    0.2662 C.2     1  UNL1        0.2511
      7 O           2.2905    3.0652    0.3681 O.2     1  UNL1       -0.2698
      8 N           3.0602    0.8629    0.2720 N.am    1  UNL1       -0.2483
      9 C           2.7721   -0.5464    0.1564 C.2     1  UNL1        0.2511
     10 O           3.6797   -1.3914    0.1619 O.2     1  UNL1       -0.2698
     11 C           1.3652   -0.9369    0.0327 C.ar    1  UNL1        0.0456
     12 C           1.0582   -2.2721   -0.0791 C.ar    1  UNL1       -0.0490
     13 C          -0.2581   -2.7295   -0.2011 C.ar    1  UNL1       -0.0604
     14 C          -1.2565   -1.7730   -0.2053 C.ar    1  UNL1       -0.0522
     15 C          -0.9563   -0.4378   -0.0939 C.ar    1  UNL1        0.0042
     16 C           0.3527   -0.0150    0.0252 C.ar    1  UNL1        0.0081
     17 H          -4.0395    0.8130   -0.6099 H       1  UNL1        0.1423
     18 H          -3.8285   -0.7528    0.0290 H       1  UNL1        0.1423
     19 H          -2.4786    2.5608    0.0042 H       1  UNL1        0.0636
     20 H          -0.1978    3.3282    0.2139 H       1  UNL1        0.0626
     21 H           4.0687    1.1604    0.3619 H       1  UNL1        0.1581
     22 H           1.8376   -2.9944   -0.0742 H       1  UNL1        0.0625
     23 H          -0.4562   -3.7750   -0.2857 H       1  UNL1        0.0618
     24 H          -2.2950   -2.0728   -0.2974 H       1  UNL1        0.0624
@<TRIPOS>BOND
     1     1     2    1
     2     2     3   ar
     3     3     4   ar
     4     4     5   ar
     5     5     6    1
     6     6     7    2
     7     6     8   am
     8     8     9   am
     9     9    10    2
    10     9    11    1
    11    11    12   ar
    12    12    13   ar
    13    13    14   ar
    14    14    15   ar
    15    15    16   ar
    16    15     2   ar
    17    16     5   ar
    18    16    11   ar
    19     1    17    1
    20     1    18    1
    21     3    19    1
    22     4    20    1
    23     8    21    1
    24    12    22    1
    25    13    23    1
    26    14    24    1
