
     RDKit          3D

 66 69  0  0  0  0  0  0  0  0999 V2000
    0.2145   -2.7725   -0.5917 C   0  0  0  0  0  0  0  0  0  0  0  0
    0.4990   -1.8294    0.5487 C   0  0  1  0  0  0  0  0  0  0  0  0
    1.8216   -1.2016    0.3915 C   0  0  0  0  0  0  0  0  0  0  0  0
    2.0456   -0.0411    1.1272 C   0  0  0  0  0  0  0  0  0  0  0  0
    3.2591    0.5988    1.0299 C   0  0  0  0  0  0  0  0  0  0  0  0
    4.2532    0.1157    0.2218 C   0  0  0  0  0  0  0  0  0  0  0  0
    5.5223    0.8112    0.1400 C   0  0  0  0  0  0  0  0  0  0  0  0
    5.6297    2.1707    0.2715 C   0  0  0  0  0  0  0  0  0  0  0  0
    6.8718    2.7558    0.1816 C   0  0  0  0  0  0  0  0  0  0  0  0
    7.9616    1.9215   -0.0407 C   0  0  0  0  0  0  0  0  0  0  0  0
    9.0983    2.4492   -0.1239 O   0  0  0  0  0  0  0  0  0  0  0  0
    7.8406    0.6030   -0.1662 N   0  0  0  0  0  0  0  0  0  0  0  0
    9.0303   -0.2160   -0.3990 C   0  0  0  0  0  0  0  0  0  0  0  0
    6.6476    0.0140   -0.0828 C   0  0  0  0  0  0  0  0  0  0  0  0
    4.0164   -1.0262   -0.4946 C   0  0  0  0  0  0  0  0  0  0  0  0
    2.8010   -1.7145   -0.4313 C   0  0  0  0  0  0  0  0  0  0  0  0
   -0.4786   -0.7476    0.4697 N   0  0  0  0  0  0  0  0  0  0  0  0
   -0.5437    0.1544   -0.6342 C   0  0  0  0  0  0  0  0  0  0  0  0
   -1.8108    0.9054   -0.7951 C   0  0  0  0  0  0  0  0  0  0  0  0
   -2.9682    0.3764    0.0467 C   0  0  2  0  0  0  0  0  0  0  0  0
   -3.3846   -0.9134   -0.5511 C   0  0  0  0  0  0  0  0  0  0  0  0
   -4.4997   -1.6490    0.0882 C   0  0  0  0  0  0  0  0  0  0  0  0
   -5.8144   -0.9559    0.1567 C   0  0  0  0  0  0  0  0  0  0  0  0
   -4.7206   -2.9210   -0.7477 C   0  0  0  0  0  0  0  0  0  0  0  0
   -4.2020   -2.1128    1.3688 O   0  0  0  0  0  0  0  0  0  0  0  0
   -3.9572    1.4483    0.0895 C   0  0  0  0  0  0  0  0  0  0  0  0
   -4.2895    2.0058    1.2988 C   0  0  0  0  0  0  0  0  0  0  0  0
   -5.2207    3.0386    1.4089 C   0  0  0  0  0  0  0  0  0  0  0  0
   -5.8259    3.5180    0.2918 C   0  0  0  0  0  0  0  0  0  0  0  0
   -5.5019    2.9674   -0.9314 C   0  0  0  0  0  0  0  0  0  0  0  0
   -4.5810    1.9468   -1.0342 C   0  0  0  0  0  0  0  0  0  0  0  0
   -4.3123    1.4537   -2.2670 F   0  0  0  0  0  0  0  0  0  0  0  0
   -2.5370    0.1118    1.3691 O   0  0  0  0  0  0  0  0  0  0  0  0
   -1.3797   -0.6154    1.5569 C   0  0  0  0  0  0  0  0  0  0  0  0
   -1.1021   -1.1656    2.6699 O   0  0  0  0  0  0  0  0  0  0  0  0
    0.2228   -2.3109   -1.5812 H   0  0  0  0  0  0  0  0  0  0  0  0
   -0.7815   -3.2592   -0.4390 H   0  0  0  0  0  0  0  0  0  0  0  0
    0.9562   -3.6048   -0.5017 H   0  0  0  0  0  0  0  0  0  0  0  0
    0.3940   -2.4089    1.4744 H   0  0  0  0  0  0  0  0  0  0  0  0
    1.2749    0.3615    1.7735 H   0  0  0  0  0  0  0  0  0  0  0  0
    3.3845    1.5082    1.6295 H   0  0  0  0  0  0  0  0  0  0  0  0
    4.7292    2.7620    0.4446 H   0  0  0  0  0  0  0  0  0  0  0  0
    7.0011    3.8060    0.2776 H   0  0  0  0  0  0  0  0  0  0  0  0
    8.6895   -1.0880   -1.0105 H   0  0  0  0  0  0  0  0  0  0  0  0
    9.4767   -0.5031    0.5593 H   0  0  0  0  0  0  0  0  0  0  0  0
    9.7071    0.3904   -1.0437 H   0  0  0  0  0  0  0  0  0  0  0  0
    6.5495   -1.0555   -0.1848 H   0  0  0  0  0  0  0  0  0  0  0  0
    4.7766   -1.4244   -1.1335 H   0  0  0  0  0  0  0  0  0  0  0  0
    2.6443   -2.5986   -0.9989 H   0  0  0  0  0  0  0  0  0  0  0  0
   -0.2702   -0.3351   -1.5979 H   0  0  0  0  0  0  0  0  0  0  0  0
    0.2922    0.9005   -0.4692 H   0  0  0  0  0  0  0  0  0  0  0  0
   -1.6640    1.9920   -0.5463 H   0  0  0  0  0  0  0  0  0  0  0  0
   -2.1311    0.8968   -1.8542 H   0  0  0  0  0  0  0  0  0  0  0  0
   -2.4847   -1.5913   -0.4875 H   0  0  0  0  0  0  0  0  0  0  0  0
   -3.5977   -0.8637   -1.6409 H   0  0  0  0  0  0  0  0  0  0  0  0
   -6.5859   -1.7804    0.2838 H   0  0  0  0  0  0  0  0  0  0  0  0
   -6.0976   -0.4900   -0.8098 H   0  0  0  0  0  0  0  0  0  0  0  0
   -5.9556   -0.3215    1.0377 H   0  0  0  0  0  0  0  0  0  0  0  0
   -4.9536   -3.7859   -0.1269 H   0  0  0  0  0  0  0  0  0  0  0  0
   -5.5332   -2.7231   -1.5033 H   0  0  0  0  0  0  0  0  0  0  0  0
   -3.8128   -3.1664   -1.3398 H   0  0  0  0  0  0  0  0  0  0  0  0
   -4.7348   -1.6358    2.0505 H   0  0  0  0  0  0  0  0  0  0  0  0
   -3.8551    1.6857    2.2477 H   0  0  0  0  0  0  0  0  0  0  0  0
   -5.4787    3.4745    2.3655 H   0  0  0  0  0  0  0  0  0  0  0  0
   -6.5523    4.3250    0.3857 H   0  0  0  0  0  0  0  0  0  0  0  0
   -5.9926    3.3596   -1.8183 H   0  0  0  0  0  0  0  0  0  0  0  0
  1  2  1  0
  2  3  1  0
  3  4  2  0
  4  5  1  0
  5  6  2  0
  6  7  1  0
  7  8  1  0
  8  9  2  0
  9 10  1  0
 10 11  2  0
 10 12  1  0
 12 13  1  0
 12 14  1  0
  6 15  1  0
 15 16  2  0
  2 17  1  0
 17 18  1  0
 18 19  1  0
 19 20  1  0
 20 21  1  6
 21 22  1  0
 22 23  1  0
 22 24  1  0
 22 25  1  0
 20 26  1  0
 26 27  2  0
 27 28  1  0
 28 29  2  0
 29 30  1  0
 30 31  2  0
 31 32  1  0
 20 33  1  0
 33 34  1  0
 34 35  2  0
 16  3  1  0
 34 17  1  0
 14  7  2  0
 31 26  1  0
  1 36  1  0
  1 37  1  0
  1 38  1  0
  2 39  1  1
  4 40  1  0
  5 41  1  0
  8 42  1  0
  9 43  1  0
 13 44  1  0
 13 45  1  0
 13 46  1  0
 14 47  1  0
 15 48  1  0
 16 49  1  0
 18 50  1  0
 18 51  1  0
 19 52  1  0
 19 53  1  0
 21 54  1  0
 21 55  1  0
 23 56  1  0
 23 57  1  0
 23 58  1  0
 24 59  1  0
 24 60  1  0
 24 61  1  0
 25 62  1  0
 27 63  1  0
 28 64  1  0
 29 65  1  0
 30 66  1  0
M  END
$$$$
