@<TRIPOS>MOLECULE
*****
 66 69 0 0 0
SMALL
GASTEIGER

@<TRIPOS>ATOM
      1 C           0.2145   -2.7725   -0.5917 C.3     1  UNL1       -0.0421
      2 C           0.4990   -1.8294    0.5487 C.3     1  UNL1        0.0515
      3 C           1.8216   -1.2016    0.3915 C.ar    1  UNL1       -0.0271
      4 C           2.0456   -0.0411    1.1272 C.ar    1  UNL1       -0.0562
      5 C           3.2591    0.5988    1.0299 C.ar    1  UNL1       -0.0537
      6 C           4.2532    0.1157    0.2218 C.ar    1  UNL1       -0.0165
      7 C           5.5223    0.8112    0.1400 C.ar    1  UNL1       -0.0015
      8 C           5.6297    2.1707    0.2715 C.ar    1  UNL1       -0.0475
      9 C           6.8718    2.7558    0.1816 C.ar    1  UNL1        0.0036
     10 C           7.9616    1.9215   -0.0407 C.ar    1  UNL1        0.2511
     11 O           9.0983    2.4492   -0.1239 O.2     1  UNL1       -0.2677
     12 N           7.8406    0.6030   -0.1662 N.ar    1  UNL1       -0.3177
     13 C           9.0303   -0.2160   -0.3990 C.3     1  UNL1        0.0147
     14 C           6.6476    0.0140   -0.0828 C.ar    1  UNL1        0.0153
     15 C           4.0164   -1.0262   -0.4946 C.ar    1  UNL1       -0.0537
     16 C           2.8010   -1.7145   -0.4313 C.ar    1  UNL1       -0.0562
     17 N          -0.4786   -0.7476    0.4697 N.am    1  UNL1       -0.2605
     18 C          -0.5437    0.1544   -0.6342 C.3     1  UNL1        0.0224
     19 C          -1.8108    0.9054   -0.7951 C.3     1  UNL1        0.0077
     20 C          -2.9682    0.3764    0.0467 C.3     1  UNL1        0.1466
     21 C          -3.3846   -0.9134   -0.5511 C.3     1  UNL1        0.0200
     22 C          -4.4997   -1.6490    0.0882 C.3     1  UNL1        0.0645
     23 C          -5.8144   -0.9559    0.1567 C.3     1  UNL1       -0.0362
     24 C          -4.7206   -2.9210   -0.7477 C.3     1  UNL1       -0.0362
     25 O          -4.2020   -2.1128    1.3688 O.3     1  UNL1       -0.3890
     26 C          -3.9572    1.4483    0.0895 C.ar    1  UNL1        0.0311
     27 C          -4.2895    2.0058    1.2988 C.ar    1  UNL1       -0.0520
     28 C          -5.2207    3.0386    1.4089 C.ar    1  UNL1       -0.0612
     29 C          -5.8259    3.5180    0.2918 C.ar    1  UNL1       -0.0590
     30 C          -5.5019    2.9674   -0.9314 C.ar    1  UNL1       -0.0260
     31 C          -4.5810    1.9468   -1.0342 C.ar    1  UNL1        0.1303
     32 F          -4.3123    1.4537   -2.2670 F       1  UNL1       -0.2051
     33 O          -2.5370    0.1118    1.3691 O.3     1  UNL1       -0.4386
     34 C          -1.3797   -0.6154    1.5569 C.2     1  UNL1        0.4042
     35 O          -1.1021   -1.1656    2.6699 O.2     1  UNL1       -0.2262
     36 H           0.2228   -2.3109   -1.5812 H       1  UNL1        0.0251
     37 H          -0.7815   -3.2592   -0.4390 H       1  UNL1        0.0251
     38 H           0.9562   -3.6048   -0.5017 H       1  UNL1        0.0251
     39 H           0.3940   -2.4089    1.4744 H       1  UNL1        0.0549
     40 H           1.2749    0.3615    1.7735 H       1  UNL1        0.0621
     41 H           3.3845    1.5082    1.6295 H       1  UNL1        0.0624
     42 H           4.7292    2.7620    0.4446 H       1  UNL1        0.0626
     43 H           7.0011    3.8060    0.2776 H       1  UNL1        0.0672
     44 H           8.6895   -1.0880   -1.0105 H       1  UNL1        0.0457
     45 H           9.4767   -0.5031    0.5593 H       1  UNL1        0.0457
     46 H           9.7071    0.3904   -1.0437 H       1  UNL1        0.0457
     47 H           6.5495   -1.0555   -0.1848 H       1  UNL1        0.0816
     48 H           4.7766   -1.4244   -1.1335 H       1  UNL1        0.0624
     49 H           2.6443   -2.5986   -0.9989 H       1  UNL1        0.0621
     50 H          -0.2702   -0.3351   -1.5979 H       1  UNL1        0.0467
     51 H           0.2922    0.9005   -0.4692 H       1  UNL1        0.0467
     52 H          -1.6640    1.9920   -0.5463 H       1  UNL1        0.0322
     53 H          -2.1311    0.8968   -1.8542 H       1  UNL1        0.0322
     54 H          -2.4847   -1.5913   -0.4875 H       1  UNL1        0.0335
     55 H          -3.5977   -0.8637   -1.6409 H       1  UNL1        0.0335
     56 H          -6.5859   -1.7804    0.2838 H       1  UNL1        0.0257
     57 H          -6.0976   -0.4900   -0.8098 H       1  UNL1        0.0257
     58 H          -5.9556   -0.3215    1.0377 H       1  UNL1        0.0257
     59 H          -4.9536   -3.7859   -0.1269 H       1  UNL1        0.0257
     60 H          -5.5332   -2.7231   -1.5033 H       1  UNL1        0.0257
     61 H          -3.8128   -3.1664   -1.3398 H       1  UNL1        0.0257
     62 H          -4.7348   -1.6358    2.0505 H       1  UNL1        0.2101
     63 H          -3.8551    1.6857    2.2477 H       1  UNL1        0.0622
     64 H          -5.4787    3.4745    2.3655 H       1  UNL1        0.0618
     65 H          -6.5523    4.3250    0.3857 H       1  UNL1        0.0618
     66 H          -5.9926    3.3596   -1.8183 H       1  UNL1        0.0646
@<TRIPOS>BOND
     1     1     2    1
     2     2     3    1
     3     3     4   ar
     4     4     5   ar
     5     5     6   ar
     6     6     7    1
     7     7     8   ar
     8     8     9   ar
     9     9    10   ar
    10    10    11    2
    11    10    12   ar
    12    12    13    1
    13    12    14   ar
    14     6    15   ar
    15    15    16   ar
    16     2    17    1
    17    17    18    1
    18    18    19    1
    19    19    20    1
    20    20    21    1
    21    21    22    1
    22    22    23    1
    23    22    24    1
    24    22    25    1
    25    20    26    1
    26    26    27   ar
    27    27    28   ar
    28    28    29   ar
    29    29    30   ar
    30    30    31   ar
    31    31    32    1
    32    20    33    1
    33    33    34    1
    34    34    35    2
    35    16     3   ar
    36    34    17   am
    37    14     7   ar
    38    31    26   ar
    39     1    36    1
    40     1    37    1
    41     1    38    1
    42     2    39    1
    43     4    40    1
    44     5    41    1
    45     8    42    1
    46     9    43    1
    47    13    44    1
    48    13    45    1
    49    13    46    1
    50    14    47    1
    51    15    48    1
    52    16    49    1
    53    18    50    1
    54    18    51    1
    55    19    52    1
    56    19    53    1
    57    21    54    1
    58    21    55    1
    59    23    56    1
    60    23    57    1
    61    23    58    1
    62    24    59    1
    63    24    60    1
    64    24    61    1
    65    25    62    1
    66    27    63    1
    67    28    64    1
    68    29    65    1
    69    30    66    1
