@<TRIPOS>MOLECULE
*****
 16 15 0 0 0
SMALL
GASTEIGER

@<TRIPOS>ATOM
      1 C          -2.5532    0.6195    0.0138 C.3     1  UNL1       -0.0061
      2 C          -1.4136   -0.3363    0.1956 C.2     1  UNL1        0.1308
      3 O          -1.5722   -1.4956    0.5665 O.2     1  UNL1       -0.2977
      4 C          -0.0739    0.1989   -0.0993 C.3     1  UNL1        0.0156
      5 C           0.9203   -0.9202    0.1475 C.3     1  UNL1        0.0514
      6 C           2.2869   -0.4259   -0.1377 C.2     1  UNL1        0.3051
      7 O           2.5934    0.8690   -0.5655 O.3     1  UNL1       -0.4806
      8 O           3.3418   -1.0944   -0.0351 O.2     1  UNL1       -0.2510
      9 H          -2.4144    1.4260    0.7601 H       1  UNL1        0.0306
     10 H          -3.4858    0.0859    0.2585 H       1  UNL1        0.0306
     11 H          -2.5451    1.0426   -1.0231 H       1  UNL1        0.0306
     12 H           0.2091    1.0365    0.5908 H       1  UNL1        0.0347
     13 H          -0.0387    0.6128   -1.1146 H       1  UNL1        0.0347
     14 H           0.7857   -1.2255    1.2083 H       1  UNL1        0.0382
     15 H           0.6060   -1.7693   -0.4908 H       1  UNL1        0.0382
     16 H           3.3538    1.3761   -0.1208 H       1  UNL1        0.2951
@<TRIPOS>BOND
     1     1     2    1
     2     2     3    2
     3     2     4    1
     4     4     5    1
     5     5     6    1
     6     6     7    1
     7     6     8    2
     8     1     9    1
     9     1    10    1
    10     1    11    1
    11     4    12    1
    12     4    13    1
    13     5    14    1
    14     5    15    1
    15     7    16    1
