@<TRIPOS>MOLECULE
*****
 31 33 0 0 0
SMALL
GASTEIGER

@<TRIPOS>ATOM
      1 C          -5.1511    0.7456    0.6464 C.3     1  UNL1       -0.0224
      2 C          -3.6827    0.7990    0.5508 C.ar    1  UNL1        0.0402
      3 C          -2.9277    1.9110    0.8334 C.ar    1  UNL1        0.0495
      4 N          -1.6440    1.5199    0.6159 N.ar    1  UNL1       -0.2327
      5 C          -1.6413    0.2216    0.2185 C.ar    1  UNL1        0.1782
      6 N          -2.9189   -0.2427    0.1739 N.ar    1  UNL1       -0.2997
      7 C          -3.1461   -1.5158   -0.1983 C.ar    1  UNL1        0.0297
      8 C          -2.0919   -2.3413   -0.5313 C.ar    1  UNL1        0.0463
      9 N          -0.8131   -1.9024   -0.4945 N.ar    1  UNL1       -0.2354
     10 C          -0.5810   -0.6234   -0.1209 C.ar    1  UNL1        0.1623
     11 N           0.7638   -0.1535   -0.0796 N.pl3   1  UNL1       -0.3221
     12 C           1.8906   -1.0152   -0.4292 C.3     1  UNL1        0.0359
     13 C           3.1521   -0.2456   -0.2898 C.ar    1  UNL1       -0.0275
     14 C           3.9037   -0.1647    0.8553 C.ar    1  UNL1       -0.0389
     15 C           5.0708    0.5778    0.8984 C.ar    1  UNL1        0.0279
     16 N           5.5098    1.2494   -0.1890 N.ar    1  UNL1       -0.2632
     17 C           4.8266    1.2198   -1.3539 C.ar    1  UNL1        0.0279
     18 C           3.6676    0.4704   -1.3625 C.ar    1  UNL1       -0.0389
     19 H          -5.5088   -0.2868    0.9264 H       1  UNL1        0.0292
     20 H          -5.5784    0.9369   -0.3695 H       1  UNL1        0.0292
     21 H          -5.5847    1.4177    1.4159 H       1  UNL1        0.0292
     22 H          -3.2253    2.9003    1.1588 H       1  UNL1        0.0848
     23 H          -4.1711   -1.8851   -0.2332 H       1  UNL1        0.0829
     24 H          -2.2347   -3.3706   -0.8353 H       1  UNL1        0.0845
     25 H           0.9380    0.8467    0.2131 H       1  UNL1        0.1479
     26 H           1.7971   -1.3174   -1.5022 H       1  UNL1        0.0511
     27 H           1.8837   -1.8996    0.2411 H       1  UNL1        0.0511
     28 H           3.5571   -0.7007    1.7304 H       1  UNL1        0.0636
     29 H           5.6742    0.6514    1.7935 H       1  UNL1        0.0829
     30 H           5.1447    1.7436   -2.2463 H       1  UNL1        0.0829
     31 H           3.1208    0.4538   -2.3148 H       1  UNL1        0.0636
@<TRIPOS>BOND
     1     1     2    1
     2     2     3   ar
     3     3     4   ar
     4     4     5   ar
     5     5     6   ar
     6     6     7   ar
     7     7     8   ar
     8     8     9   ar
     9     9    10   ar
    10    10    11    1
    11    11    12    1
    12    12    13    1
    13    13    14   ar
    14    14    15   ar
    15    15    16   ar
    16    16    17   ar
    17    17    18   ar
    18     6     2   ar
    19    18    13   ar
    20    10     5   ar
    21     1    19    1
    22     1    20    1
    23     1    21    1
    24     3    22    1
    25     7    23    1
    26     8    24    1
    27    11    25    1
    28    12    26    1
    29    12    27    1
    30    14    28    1
    31    15    29    1
    32    17    30    1
    33    18    31    1
