
     RDKit          3D

 43 45  0  0  0  0  0  0  0  0999 V2000
    6.3196    0.1005    0.1689 C   0  0  0  0  0  0  0  0  0  0  0  0
    4.8388    0.1761    0.2842 C   0  0  0  0  0  0  0  0  0  0  0  0
    4.2276    0.8937   -0.7290 C   0  0  0  0  0  0  0  0  0  0  0  0
    2.8537    1.0323   -0.7277 C   0  0  0  0  0  0  0  0  0  0  0  0
    2.0493    0.4760    0.2581 C   0  0  0  0  0  0  0  0  0  0  0  0
    0.2968    0.6492    0.2652 S   0  0  0  0  0  0  0  0  0  0  0  0
   -0.5440   -0.6353   -0.6081 C   0  0  0  0  0  0  0  0  0  0  0  0
    0.2660   -1.5954   -1.1755 C   0  0  0  0  0  0  0  0  0  0  0  0
   -0.2926   -2.6443   -1.8741 C   0  0  0  0  0  0  0  0  0  0  0  0
   -1.6666   -2.6905   -1.9785 C   0  0  0  0  0  0  0  0  0  0  0  0
   -2.4265   -1.7016   -1.3902 C   0  0  0  0  0  0  0  0  0  0  0  0
   -1.9207   -0.6321   -0.6814 C   0  0  0  0  0  0  0  0  0  0  0  0
   -2.7622    0.3549   -0.1100 N   0  0  0  0  0  0  0  0  0  0  0  0
   -4.2103    0.2698   -0.1186 C   0  0  0  0  0  0  0  0  0  0  0  0
   -4.6685    0.4650    1.3376 C   0  0  0  0  0  0  0  0  0  0  0  0
   -4.4957    1.8862    1.5920 N   0  0  0  0  0  0  0  0  0  0  0  0
   -3.4930    2.4630    0.7604 C   0  0  0  0  0  0  0  0  0  0  0  0
   -2.2873    1.5401    0.5252 C   0  0  0  0  0  0  0  0  0  0  0  0
    2.7130   -0.2307    1.2462 C   0  0  0  0  0  0  0  0  0  0  0  0
    1.8680   -0.8329    2.3093 C   0  0  0  0  0  0  0  0  0  0  0  0
    4.0720   -0.3817    1.2664 C   0  0  0  0  0  0  0  0  0  0  0  0
    6.7101    1.1088   -0.0584 H   0  0  0  0  0  0  0  0  0  0  0  0
    6.6163   -0.5540   -0.6524 H   0  0  0  0  0  0  0  0  0  0  0  0
    6.7715   -0.2400    1.1236 H   0  0  0  0  0  0  0  0  0  0  0  0
    4.7466    1.3770   -1.5572 H   0  0  0  0  0  0  0  0  0  0  0  0
    2.3540    1.5903   -1.5117 H   0  0  0  0  0  0  0  0  0  0  0  0
    1.3432   -1.5731   -1.1025 H   0  0  0  0  0  0  0  0  0  0  0  0
    0.3314   -3.3959   -2.3188 H   0  0  0  0  0  0  0  0  0  0  0  0
   -2.0610   -3.5287   -2.5338 H   0  0  0  0  0  0  0  0  0  0  0  0
   -3.4800   -1.8670   -1.5560 H   0  0  0  0  0  0  0  0  0  0  0  0
   -4.6671    1.0285   -0.7836 H   0  0  0  0  0  0  0  0  0  0  0  0
   -4.6067   -0.7144   -0.3971 H   0  0  0  0  0  0  0  0  0  0  0  0
   -3.9701   -0.0714    2.0032 H   0  0  0  0  0  0  0  0  0  0  0  0
   -5.6921    0.1098    1.4848 H   0  0  0  0  0  0  0  0  0  0  0  0
   -4.2536    2.0418    2.5980 H   0  0  0  0  0  0  0  0  0  0  0  0
   -3.8486    2.7942   -0.2287 H   0  0  0  0  0  0  0  0  0  0  0  0
   -3.1328    3.3888    1.2775 H   0  0  0  0  0  0  0  0  0  0  0  0
   -1.7811    1.4053    1.4922 H   0  0  0  0  0  0  0  0  0  0  0  0
   -1.6481    2.1699   -0.1659 H   0  0  0  0  0  0  0  0  0  0  0  0
    1.6172   -1.8704    1.9722 H   0  0  0  0  0  0  0  0  0  0  0  0
    0.9153   -0.2971    2.4302 H   0  0  0  0  0  0  0  0  0  0  0  0
    2.4095   -0.9344    3.2716 H   0  0  0  0  0  0  0  0  0  0  0  0
    4.5887   -0.9306    2.0337 H   0  0  0  0  0  0  0  0  0  0  0  0
  1  2  1  0
  2  3  2  0
  3  4  1  0
  4  5  2  0
  5  6  1  0
  6  7  1  0
  7  8  2  0
  8  9  1  0
  9 10  2  0
 10 11  1  0
 11 12  2  0
 12 13  1  0
 13 14  1  0
 14 15  1  0
 15 16  1  0
 16 17  1  0
 17 18  1  0
  5 19  1  0
 19 20  1  0
 19 21  2  0
 21  2  1  0
 12  7  1  0
 18 13  1  0
  1 22  1  0
  1 23  1  0
  1 24  1  0
  3 25  1  0
  4 26  1  0
  8 27  1  0
  9 28  1  0
 10 29  1  0
 11 30  1  0
 14 31  1  0
 14 32  1  0
 15 33  1  0
 15 34  1  0
 16 35  1  0
 17 36  1  0
 17 37  1  0
 18 38  1  0
 18 39  1  0
 20 40  1  0
 20 41  1  0
 20 42  1  0
 21 43  1  0
M  END
$$$$
