
     RDKit          3D

 54 57  0  0  0  0  0  0  0  0999 V2000
   -6.7494    2.1943   -0.2043 C   0  0  0  0  0  0  0  0  0  0  0  0
   -6.1621    0.9644    0.1474 O   0  0  0  0  0  0  0  0  0  0  0  0
   -4.7981    0.7396   -0.0240 C   0  0  0  0  0  0  0  0  0  0  0  0
   -3.9419    1.6879   -0.5409 C   0  0  0  0  0  0  0  0  0  0  0  0
   -2.5783    1.3985   -0.6879 C   0  0  0  0  0  0  0  0  0  0  0  0
   -2.0724    0.1843   -0.3266 C   0  0  0  0  0  0  0  0  0  0  0  0
   -2.9652   -0.7480    0.1913 C   0  0  0  0  0  0  0  0  0  0  0  0
   -4.3122   -0.4951    0.3489 C   0  0  0  0  0  0  0  0  0  0  0  0
   -5.1361   -1.4866    0.8760 O   0  0  0  0  0  0  0  0  0  0  0  0
   -4.6632   -2.7483    1.2629 C   0  0  0  0  0  0  0  0  0  0  0  0
   -0.6344   -0.1031   -0.4906 C   0  0  2  0  0  0  0  0  0  0  0  0
   -0.1341   -1.1619    0.4356 C   0  0  0  0  0  0  0  0  0  0  0  0
    1.3055   -1.1722    0.7186 C   0  0  2  0  0  0  0  0  0  0  0  0
    1.5870   -1.3647    2.1512 N   0  0  0  0  0  0  0  0  0  0  0  0
    2.0952    0.0004    0.2667 C   0  0  1  0  0  0  0  0  0  0  0  0
    3.4712   -0.3913   -0.1720 C   0  0  0  0  0  0  0  0  0  0  0  0
    3.6046   -1.3030   -1.1966 C   0  0  0  0  0  0  0  0  0  0  0  0
    4.8404   -1.7126   -1.6565 C   0  0  0  0  0  0  0  0  0  0  0  0
    5.9685   -1.1822   -1.0598 C   0  0  0  0  0  0  0  0  0  0  0  0
    5.8849   -0.2781   -0.0436 C   0  0  0  0  0  0  0  0  0  0  0  0
    7.1117    0.2852    0.5899 C   0  0  0  0  0  0  0  0  0  0  0  0
    4.6182    0.1116    0.3938 C   0  0  0  0  0  0  0  0  0  0  0  0
    1.4825    0.7667   -0.8631 C   0  0  0  0  0  0  0  0  0  0  0  0
    0.1169    1.1206   -0.4365 N   0  0  0  0  0  0  0  0  0  0  0  0
   -0.3666    2.0152   -1.4769 C   0  0  0  0  0  0  0  0  0  0  0  0
   -1.7582    2.4799   -1.2472 C   0  0  0  0  0  0  0  0  0  0  0  0
   -6.5117    2.9128    0.6317 H   0  0  0  0  0  0  0  0  0  0  0  0
   -7.8600    2.0634   -0.2779 H   0  0  0  0  0  0  0  0  0  0  0  0
   -6.3714    2.5914   -1.1752 H   0  0  0  0  0  0  0  0  0  0  0  0
   -4.3548    2.6473   -0.8239 H   0  0  0  0  0  0  0  0  0  0  0  0
   -2.5897   -1.7213    0.4869 H   0  0  0  0  0  0  0  0  0  0  0  0
   -4.0140   -2.6693    2.1447 H   0  0  0  0  0  0  0  0  0  0  0  0
   -5.4582   -3.4603    1.4853 H   0  0  0  0  0  0  0  0  0  0  0  0
   -4.0254   -3.1678    0.4348 H   0  0  0  0  0  0  0  0  0  0  0  0
   -0.5205   -0.4859   -1.5487 H   0  0  0  0  0  0  0  0  0  0  0  0
   -0.4874   -2.1524    0.0225 H   0  0  0  0  0  0  0  0  0  0  0  0
   -0.6978   -1.0517    1.4003 H   0  0  0  0  0  0  0  0  0  0  0  0
    1.7571   -2.0864    0.2297 H   0  0  0  0  0  0  0  0  0  0  0  0
    1.2626   -0.4888    2.6182 H   0  0  0  0  0  0  0  0  0  0  0  0
    1.0119   -2.1698    2.4475 H   0  0  0  0  0  0  0  0  0  0  0  0
    2.2532    0.7404    1.1050 H   0  0  0  0  0  0  0  0  0  0  0  0
    2.7400   -1.7456   -1.6944 H   0  0  0  0  0  0  0  0  0  0  0  0
    4.9445   -2.4282   -2.4605 H   0  0  0  0  0  0  0  0  0  0  0  0
    6.9569   -1.5036   -1.4206 H   0  0  0  0  0  0  0  0  0  0  0  0
    6.8449    1.2732    1.0238 H   0  0  0  0  0  0  0  0  0  0  0  0
    7.3859   -0.3985    1.4333 H   0  0  0  0  0  0  0  0  0  0  0  0
    7.9460    0.3780   -0.1391 H   0  0  0  0  0  0  0  0  0  0  0  0
    4.5189    0.8211    1.1914 H   0  0  0  0  0  0  0  0  0  0  0  0
    2.0237    1.7303   -0.9705 H   0  0  0  0  0  0  0  0  0  0  0  0
    1.4394    0.2018   -1.8084 H   0  0  0  0  0  0  0  0  0  0  0  0
    0.3715    2.8381   -1.6162 H   0  0  0  0  0  0  0  0  0  0  0  0
   -0.3623    1.4129   -2.4249 H   0  0  0  0  0  0  0  0  0  0  0  0
   -2.1945    2.7243   -2.2609 H   0  0  0  0  0  0  0  0  0  0  0  0
   -1.8229    3.3927   -0.6143 H   0  0  0  0  0  0  0  0  0  0  0  0
  1  2  1  0
  2  3  1  0
  3  4  2  0
  4  5  1  0
  5  6  2  0
  6  7  1  0
  7  8  2  0
  8  9  1  0
  9 10  1  0
  6 11  1  0
 11 12  1  0
 12 13  1  0
 13 14  1  0
 13 15  1  0
 15 16  1  0
 16 17  2  0
 17 18  1  0
 18 19  2  0
 19 20  1  0
 20 21  1  0
 20 22  2  0
 15 23  1  0
 23 24  1  0
 24 25  1  0
 25 26  1  0
  8  3  1  0
 24 11  1  0
 26  5  1  0
 22 16  1  0
  1 27  1  0
  1 28  1  0
  1 29  1  0
  4 30  1  0
  7 31  1  0
 10 32  1  0
 10 33  1  0
 10 34  1  0
 11 35  1  6
 12 36  1  0
 12 37  1  0
 13 38  1  6
 14 39  1  0
 14 40  1  0
 15 41  1  1
 17 42  1  0
 18 43  1  0
 19 44  1  0
 21 45  1  0
 21 46  1  0
 21 47  1  0
 22 48  1  0
 23 49  1  0
 23 50  1  0
 25 51  1  0
 25 52  1  0
 26 53  1  0
 26 54  1  0
M  END
$$$$
