@<TRIPOS>MOLECULE
*****
 54 57 0 0 0
SMALL
GASTEIGER

@<TRIPOS>ATOM
      1 C          -6.7494    2.1943   -0.2043 C.3     1  UNL1        0.0790
      2 O          -6.1621    0.9644    0.1474 O.3     1  UNL1       -0.4914
      3 C          -4.7981    0.7396   -0.0240 C.ar    1  UNL1        0.1618
      4 C          -3.9419    1.6879   -0.5409 C.ar    1  UNL1       -0.0128
      5 C          -2.5783    1.3985   -0.6879 C.ar    1  UNL1       -0.0378
      6 C          -2.0724    0.1843   -0.3266 C.ar    1  UNL1       -0.0233
      7 C          -2.9652   -0.7480    0.1913 C.ar    1  UNL1       -0.0114
      8 C          -4.3122   -0.4951    0.3489 C.ar    1  UNL1        0.1618
      9 O          -5.1361   -1.4866    0.8760 O.3     1  UNL1       -0.4914
     10 C          -4.6632   -2.7483    1.2629 C.3     1  UNL1        0.0790
     11 C          -0.6344   -0.1031   -0.4906 C.3     1  UNL1        0.0374
     12 C          -0.1341   -1.1619    0.4356 C.3     1  UNL1       -0.0173
     13 C           1.3055   -1.1722    0.7186 C.3     1  UNL1        0.0146
     14 N           1.5870   -1.3647    2.1512 N.3     1  UNL1       -0.3266
     15 C           2.0952    0.0004    0.2667 C.3     1  UNL1        0.0122
     16 C           3.4712   -0.3913   -0.1720 C.ar    1  UNL1       -0.0413
     17 C           3.6046   -1.3030   -1.1966 C.ar    1  UNL1       -0.0582
     18 C           4.8404   -1.7126   -1.6565 C.ar    1  UNL1       -0.0612
     19 C           5.9685   -1.1822   -1.0598 C.ar    1  UNL1       -0.0588
     20 C           5.8849   -0.2781   -0.0436 C.ar    1  UNL1       -0.0502
     21 C           7.1117    0.2852    0.5899 C.3     1  UNL1       -0.0397
     22 C           4.6182    0.1116    0.3938 C.ar    1  UNL1       -0.0553
     23 C           1.4825    0.7667   -0.8631 C.3     1  UNL1        0.0077
     24 N           0.1169    1.1206   -0.4365 N.3     1  UNL1       -0.2944
     25 C          -0.3666    2.0152   -1.4769 C.3     1  UNL1        0.0035
     26 C          -1.7582    2.4799   -1.2472 C.3     1  UNL1       -0.0144
     27 H          -6.5117    2.9128    0.6317 H       1  UNL1        0.0660
     28 H          -7.8600    2.0634   -0.2779 H       1  UNL1        0.0660
     29 H          -6.3714    2.5914   -1.1752 H       1  UNL1        0.0660
     30 H          -4.3548    2.6473   -0.8239 H       1  UNL1        0.0658
     31 H          -2.5897   -1.7213    0.4869 H       1  UNL1        0.0659
     32 H          -4.0140   -2.6693    2.1447 H       1  UNL1        0.0660
     33 H          -5.4582   -3.4603    1.4853 H       1  UNL1        0.0660
     34 H          -4.0254   -3.1678    0.4348 H       1  UNL1        0.0660
     35 H          -0.5205   -0.4859   -1.5487 H       1  UNL1        0.0513
     36 H          -0.4874   -2.1524    0.0225 H       1  UNL1        0.0299
     37 H          -0.6978   -1.0517    1.4003 H       1  UNL1        0.0299
     38 H           1.7571   -2.0864    0.2297 H       1  UNL1        0.0465
     39 H           1.2626   -0.4888    2.6182 H       1  UNL1        0.1185
     40 H           1.0119   -2.1698    2.4475 H       1  UNL1        0.1185
     41 H           2.2532    0.7404    1.1050 H       1  UNL1        0.0376
     42 H           2.7400   -1.7456   -1.6944 H       1  UNL1        0.0620
     43 H           4.9445   -2.4282   -2.4605 H       1  UNL1        0.0618
     44 H           6.9569   -1.5036   -1.4206 H       1  UNL1        0.0620
     45 H           6.8449    1.2732    1.0238 H       1  UNL1        0.0278
     46 H           7.3859   -0.3985    1.4333 H       1  UNL1        0.0278
     47 H           7.9460    0.3780   -0.1391 H       1  UNL1        0.0278
     48 H           4.5189    0.8211    1.1914 H       1  UNL1        0.0623
     49 H           2.0237    1.7303   -0.9705 H       1  UNL1        0.0433
     50 H           1.4394    0.2018   -1.8084 H       1  UNL1        0.0433
     51 H           0.3715    2.8381   -1.6162 H       1  UNL1        0.0430
     52 H          -0.3623    1.4129   -2.4249 H       1  UNL1        0.0430
     53 H          -2.1945    2.7243   -2.2609 H       1  UNL1        0.0326
     54 H          -1.8229    3.3927   -0.6143 H       1  UNL1        0.0326
@<TRIPOS>BOND
     1     1     2    1
     2     2     3    1
     3     3     4   ar
     4     4     5   ar
     5     5     6   ar
     6     6     7   ar
     7     7     8   ar
     8     8     9    1
     9     9    10    1
    10     6    11    1
    11    11    12    1
    12    12    13    1
    13    13    14    1
    14    13    15    1
    15    15    16    1
    16    16    17   ar
    17    17    18   ar
    18    18    19   ar
    19    19    20   ar
    20    20    21    1
    21    20    22   ar
    22    15    23    1
    23    23    24    1
    24    24    25    1
    25    25    26    1
    26     8     3   ar
    27    24    11    1
    28    26     5    1
    29    22    16   ar
    30     1    27    1
    31     1    28    1
    32     1    29    1
    33     4    30    1
    34     7    31    1
    35    10    32    1
    36    10    33    1
    37    10    34    1
    38    11    35    1
    39    12    36    1
    40    12    37    1
    41    13    38    1
    42    14    39    1
    43    14    40    1
    44    15    41    1
    45    17    42    1
    46    18    43    1
    47    19    44    1
    48    21    45    1
    49    21    46    1
    50    21    47    1
    51    22    48    1
    52    23    49    1
    53    23    50    1
    54    25    51    1
    55    25    52    1
    56    26    53    1
    57    26    54    1
