
     RDKit          3D

 58 62  0  0  0  0  0  0  0  0999 V2000
   -4.8588    0.7258    1.3657 C   0  0  2  0  0  0  0  0  0  0  0  0
   -3.8217    1.7710    1.2496 C   0  0  0  0  0  0  0  0  0  0  0  0
   -3.4637    0.3078    1.4918 C   0  0  2  0  0  0  0  0  0  0  0  0
   -2.8298   -0.3898    0.3421 C   0  0  1  0  0  0  0  0  0  0  0  0
   -2.8590   -1.8931    0.5990 C   0  0  0  0  0  0  0  0  0  0  0  0
   -3.5033   -0.1615   -0.9486 C   0  0  0  0  0  0  0  0  0  0  0  0
   -4.7684    0.1536   -1.0792 C   0  0  0  0  0  0  0  0  0  0  0  0
   -5.5651    0.2872    0.1428 C   0  0  0  0  0  0  0  0  0  0  0  0
   -6.8130    0.0268    0.1131 O   0  0  0  0  0  0  0  0  0  0  0  0
   -2.7447   -0.2843   -2.2067 C   0  0  0  0  0  0  0  0  0  0  0  0
   -3.4639   -0.1214   -3.7863 Cl  0  0  0  0  0  0  0  0  0  0  0  0
   -1.4597   -0.5282   -2.1657 C   0  0  0  0  0  0  0  0  0  0  0  0
   -0.6902   -0.6942   -0.9084 C   0  0  1  0  0  0  0  0  0  0  0  0
    0.6602   -0.0983   -1.0000 C   0  0  2  0  0  0  0  0  0  0  0  0
    1.5735   -0.6379   -2.0554 C   0  0  0  0  0  0  0  0  0  0  0  0
    2.8748    0.0446   -1.6028 C   0  0  0  0  0  0  0  0  0  0  0  0
    2.8052    0.0959   -0.0923 C   0  0  2  0  0  0  0  0  0  0  0  0
    2.8583    1.4072    0.4307 O   0  0  0  0  0  0  0  0  0  0  0  0
    3.9600    2.2000    0.1651 C   0  0  0  0  0  0  0  0  0  0  0  0
    4.1388    3.6046    0.6606 C   0  0  0  0  0  0  0  0  0  0  0  0
    4.9596    1.8495   -0.5272 O   0  0  0  0  0  0  0  0  0  0  0  0
    3.7800   -0.8069    0.5134 C   0  0  0  0  0  0  0  0  0  0  0  0
    4.5948   -1.9963    0.8512 C   0  0  0  0  0  0  0  0  0  0  0  0
    4.1816    0.0991    1.2538 O   0  0  0  0  0  0  0  0  0  0  0  0
    1.4182   -0.4122    0.2704 C   0  0  2  0  0  0  0  0  0  0  0  0
    1.4283   -1.8750    0.5981 C   0  0  0  0  0  0  0  0  0  0  0  0
    0.7677    0.3878    1.3551 C   0  0  0  0  0  0  0  0  0  0  0  0
   -0.6707    0.0434    1.4950 C   0  0  0  0  0  0  0  0  0  0  0  0
   -1.4086    0.0582    0.2006 C   0  0  2  0  0  0  0  0  0  0  0  0
   -5.4816    0.7334    2.2744 H   0  0  0  0  0  0  0  0  0  0  0  0
   -3.5464    2.2052    0.2831 H   0  0  0  0  0  0  0  0  0  0  0  0
   -3.6358    2.4252    2.1144 H   0  0  0  0  0  0  0  0  0  0  0  0
   -3.0993    0.0160    2.4863 H   0  0  0  0  0  0  0  0  0  0  0  0
   -2.4800   -2.4651   -0.2691 H   0  0  0  0  0  0  0  0  0  0  0  0
   -3.9389   -2.1569    0.6831 H   0  0  0  0  0  0  0  0  0  0  0  0
   -2.3401   -2.1649    1.5377 H   0  0  0  0  0  0  0  0  0  0  0  0
   -5.2462    0.3183   -2.0560 H   0  0  0  0  0  0  0  0  0  0  0  0
   -0.8164   -0.6360   -3.0491 H   0  0  0  0  0  0  0  0  0  0  0  0
   -0.6016   -1.7678   -0.6582 H   0  0  0  0  0  0  0  0  0  0  0  0
    0.6401    1.0012   -1.1190 H   0  0  0  0  0  0  0  0  0  0  0  0
    1.6573   -1.7227   -2.1096 H   0  0  0  0  0  0  0  0  0  0  0  0
    1.2423   -0.2863   -3.0448 H   0  0  0  0  0  0  0  0  0  0  0  0
    2.8153    1.0645   -2.0697 H   0  0  0  0  0  0  0  0  0  0  0  0
    3.7194   -0.5600   -1.9875 H   0  0  0  0  0  0  0  0  0  0  0  0
    4.9960    3.6433    1.3401 H   0  0  0  0  0  0  0  0  0  0  0  0
    3.2137    3.9299    1.1860 H   0  0  0  0  0  0  0  0  0  0  0  0
    4.2516    4.3139   -0.1991 H   0  0  0  0  0  0  0  0  0  0  0  0
    5.6793   -1.8181    0.6367 H   0  0  0  0  0  0  0  0  0  0  0  0
    4.5251   -2.2353    1.9315 H   0  0  0  0  0  0  0  0  0  0  0  0
    4.2329   -2.9139    0.3205 H   0  0  0  0  0  0  0  0  0  0  0  0
    1.7058   -2.5211   -0.2326 H   0  0  0  0  0  0  0  0  0  0  0  0
    2.1955   -2.0525    1.3912 H   0  0  0  0  0  0  0  0  0  0  0  0
    0.4741   -2.2057    1.0181 H   0  0  0  0  0  0  0  0  0  0  0  0
    1.2861    0.1742    2.3144 H   0  0  0  0  0  0  0  0  0  0  0  0
    0.8785    1.4598    1.1010 H   0  0  0  0  0  0  0  0  0  0  0  0
   -1.1246    0.8313    2.1466 H   0  0  0  0  0  0  0  0  0  0  0  0
   -0.8274   -0.9097    2.0692 H   0  0  0  0  0  0  0  0  0  0  0  0
   -1.4550    1.1361   -0.1287 H   0  0  0  0  0  0  0  0  0  0  0  0
  1  2  1  0
  2  3  1  0
  3  4  1  0
  4  5  1  1
  4  6  1  0
  6  7  2  0
  7  8  1  0
  8  9  2  0
  6 10  1  0
 10 11  1  0
 10 12  2  0
 12 13  1  0
 13 14  1  0
 14 15  1  0
 15 16  1  0
 16 17  1  0
 17 18  1  1
 18 19  1  0
 19 20  1  0
 19 21  2  0
 17 22  1  0
 22 23  1  0
 22 24  2  0
 17 25  1  0
 25 26  1  1
 25 27  1  0
 27 28  1  0
 28 29  1  0
  3  1  1  0
 29  4  1  0
  8  1  1  0
 29 13  1  0
 25 14  1  0
  1 30  1  1
  2 31  1  0
  2 32  1  0
  3 33  1  1
  5 34  1  0
  5 35  1  0
  5 36  1  0
  7 37  1  0
 12 38  1  0
 13 39  1  1
 14 40  1  6
 15 41  1  0
 15 42  1  0
 16 43  1  0
 16 44  1  0
 20 45  1  0
 20 46  1  0
 20 47  1  0
 23 48  1  0
 23 49  1  0
 23 50  1  0
 26 51  1  0
 26 52  1  0
 26 53  1  0
 27 54  1  0
 27 55  1  0
 28 56  1  0
 28 57  1  0
 29 58  1  6
M  END
$$$$
