
     RDKit          3D

 50 52  0  0  0  0  0  0  0  0999 V2000
   -1.5561   -2.6741   -0.2876 C   0  0  0  0  0  0  0  0  0  0  0  0
   -0.6561   -1.4974   -0.0482 C   0  0  0  0  0  0  0  0  0  0  0  0
    0.6488   -1.5247    0.3175 N   0  0  0  0  0  0  0  0  0  0  0  0
    1.1603   -0.2965    0.4460 C   0  0  0  0  0  0  0  0  0  0  0  0
    2.5202    0.0943    0.7937 C   0  0  0  0  0  0  0  0  0  0  0  0
    3.6085   -0.3345    0.1832 C   0  0  0  0  0  0  0  0  0  0  0  0
    3.6694   -1.2466   -0.9241 C   0  0  0  0  0  0  0  0  0  0  0  0
    2.7008   -1.7825   -1.5187 O   0  0  0  0  0  0  0  0  0  0  0  0
    5.0691   -1.4223   -1.2196 N   0  0  0  0  0  0  0  0  0  0  0  0
    5.8687   -0.6543   -0.3389 C   0  0  0  0  0  0  0  0  0  0  0  0
    7.2469   -0.4912   -0.2237 C   0  0  0  0  0  0  0  0  0  0  0  0
    7.7834    0.3337    0.7424 C   0  0  0  0  0  0  0  0  0  0  0  0
    6.9095    0.9941    1.5936 C   0  0  0  0  0  0  0  0  0  0  0  0
    7.4437    1.8151    2.5579 F   0  0  0  0  0  0  0  0  0  0  0  0
    5.5457    0.8263    1.4718 C   0  0  0  0  0  0  0  0  0  0  0  0
    5.0082    0.0041    0.5087 C   0  0  0  0  0  0  0  0  0  0  0  0
    0.1186    0.5715    0.1453 C   0  0  0  0  0  0  0  0  0  0  0  0
    0.2643    2.0457    0.1697 C   0  0  0  0  0  0  0  0  0  0  0  0
   -0.9809   -0.1637   -0.1542 C   0  0  0  0  0  0  0  0  0  0  0  0
   -2.2737    0.3425   -0.5245 N   0  0  0  0  0  0  0  0  0  0  0  0
   -3.2992    0.6416    0.3795 C   0  0  0  0  0  0  0  0  0  0  0  0
   -3.1050    0.4658    1.6056 O   0  0  0  0  0  0  0  0  0  0  0  0
   -4.6343    1.1674   -0.0379 C   0  0  1  0  0  0  0  0  0  0  0  0
   -5.2941    0.0597   -0.8265 C   0  0  0  0  0  0  0  0  0  0  0  0
   -6.7221   -0.0538   -0.3508 C   0  0  0  0  0  0  0  0  0  0  0  0
   -6.8626    1.1665    0.5377 C   0  0  0  0  0  0  0  0  0  0  0  0
   -5.5095    1.4004    1.0623 N   0  0  0  0  0  0  0  0  0  0  0  0
    0.6849    0.0000    0.0000 Cl  0  0  0  0  0  0  0  0  0  0  0  0
   -2.2790   -2.8271    0.5132 H   0  0  0  0  0  0  0  0  0  0  0  0
   -0.8890   -3.5637   -0.3652 H   0  0  0  0  0  0  0  0  0  0  0  0
   -2.0037   -2.5387   -1.2952 H   0  0  0  0  0  0  0  0  0  0  0  0
    1.1643   -2.4391    0.4934 H   0  0  0  0  0  0  0  0  0  0  0  0
    2.7119    0.8009    1.6219 H   0  0  0  0  0  0  0  0  0  0  0  0
    5.4364   -2.0267   -1.9719 H   0  0  0  0  0  0  0  0  0  0  0  0
    7.9318   -1.0027   -0.8847 H   0  0  0  0  0  0  0  0  0  0  0  0
    8.8273    0.4939    0.8736 H   0  0  0  0  0  0  0  0  0  0  0  0
    4.8944    1.3548    2.1496 H   0  0  0  0  0  0  0  0  0  0  0  0
   -0.1674    2.3949    1.1456 H   0  0  0  0  0  0  0  0  0  0  0  0
    1.3130    2.3754    0.0695 H   0  0  0  0  0  0  0  0  0  0  0  0
   -0.3878    2.5065   -0.6162 H   0  0  0  0  0  0  0  0  0  0  0  0
   -2.4346    0.4889   -1.5443 H   0  0  0  0  0  0  0  0  0  0  0  0
   -4.4979    2.0887   -0.6561 H   0  0  0  0  0  0  0  0  0  0  0  0
   -5.2310    0.3501   -1.8960 H   0  0  0  0  0  0  0  0  0  0  0  0
   -4.7699   -0.9109   -0.7115 H   0  0  0  0  0  0  0  0  0  0  0  0
   -7.3733   -0.0539   -1.2255 H   0  0  0  0  0  0  0  0  0  0  0  0
   -6.8192   -0.9994    0.2437 H   0  0  0  0  0  0  0  0  0  0  0  0
   -7.2110    1.9970   -0.0814 H   0  0  0  0  0  0  0  0  0  0  0  0
   -7.5669    0.9213    1.3567 H   0  0  0  0  0  0  0  0  0  0  0  0
   -5.3213    0.8027    1.8737 H   0  0  0  0  0  0  0  0  0  0  0  0
   -0.6849    0.0000    0.0000 H   0  0  0  0  0  0  0  0  0  0  0  0
  1  2  1  0
  2  3  1  0
  3  4  1  0
  4  5  1  0
  5  6  2  0
  6  7  1  0
  7  8  2  0
  7  9  1  0
  9 10  1  0
 10 11  2  0
 11 12  1  0
 12 13  2  0
 13 14  1  0
 13 15  1  0
 15 16  2  0
  4 17  2  0
 17 18  1  0
 17 19  1  0
 19 20  1  0
 20 21  1  0
 21 22  2  0
 21 23  1  0
 23 24  1  0
 24 25  1  0
 25 26  1  0
 26 27  1  0
 19  2  2  0
 27 23  1  0
 16  6  1  0
 16 10  1  0
  1 29  1  0
  1 30  1  0
  1 31  1  0
  3 32  1  0
  5 33  1  0
  9 34  1  0
 11 35  1  0
 12 36  1  0
 15 37  1  0
 18 38  1  0
 18 39  1  0
 18 40  1  0
 20 41  1  0
 23 42  1  6
 24 43  1  0
 24 44  1  0
 25 45  1  0
 25 46  1  0
 26 47  1  0
 26 48  1  0
 27 49  1  0
 28 50  1  0
M  END
$$$$
