@<TRIPOS>MOLECULE
*****
 50 52 0 0 0
SMALL
GASTEIGER

@<TRIPOS>ATOM
      1 C          -1.5561   -2.6741   -0.2876 C.3     1  UNL1       -0.0226
      2 C          -0.6561   -1.4974   -0.0482 C.ar    1  UNL1        0.0350
      3 N           0.6488   -1.5247    0.3175 N.ar    1  UNL1       -0.3569
      4 C           1.1603   -0.2965    0.4460 C.ar    1  UNL1        0.0449
      5 C           2.5202    0.0943    0.7937 C.2     1  UNL1       -0.0253
      6 C           3.6085   -0.3345    0.1832 C.2     1  UNL1        0.0479
      7 C           3.6694   -1.2466   -0.9241 C.2     1  UNL1        0.2490
      8 O           2.7008   -1.7825   -1.5187 O.2     1  UNL1       -0.2698
      9 N           5.0691   -1.4223   -1.2196 N.am    1  UNL1       -0.2809
     10 C           5.8687   -0.6543   -0.3389 C.ar    1  UNL1        0.0417
     11 C           7.2469   -0.4912   -0.2237 C.ar    1  UNL1       -0.0372
     12 C           7.7834    0.3337    0.7424 C.ar    1  UNL1       -0.0247
     13 C           6.9095    0.9941    1.5936 C.ar    1  UNL1        0.1241
     14 F           7.4437    1.8151    2.5579 F       1  UNL1       -0.2055
     15 C           5.5457    0.8263    1.4718 C.ar    1  UNL1       -0.0168
     16 C           5.0082    0.0041    0.5087 C.ar    1  UNL1        0.0111
     17 C           0.1186    0.5715    0.1453 C.ar    1  UNL1       -0.0043
     18 C           0.2643    2.0457    0.1697 C.3     1  UNL1       -0.0359
     19 C          -0.9809   -0.1637   -0.1542 C.ar    1  UNL1        0.0574
     20 N          -2.2737    0.3425   -0.5245 N.am    1  UNL1       -0.2825
     21 C          -3.2992    0.6416    0.3795 C.2     1  UNL1        0.2343
     22 O          -3.1050    0.4658    1.6056 O.2     1  UNL1       -0.2738
     23 C          -4.6343    1.1674   -0.0379 C.3     1  UNL1        0.0851
     24 C          -5.2941    0.0597   -0.8265 C.3     1  UNL1       -0.0279
     25 C          -6.7221   -0.0538   -0.3508 C.3     1  UNL1       -0.0386
     26 C          -6.8626    1.1665    0.5377 C.3     1  UNL1       -0.0034
     27 N          -5.5095    1.4004    1.0623 N.3     1  UNL1       -0.3056
     28 CL          0.6849    0.0000    0.0000 Cl      2  UNL2       -0.1454
     29 H          -2.2790   -2.8271    0.5132 H       1  UNL1        0.0292
     30 H          -0.8890   -3.5637   -0.3652 H       1  UNL1        0.0292
     31 H          -2.0037   -2.5387   -1.2952 H       1  UNL1        0.0292
     32 H           1.1643   -2.4391    0.4934 H       1  UNL1        0.1656
     33 H           2.7119    0.8009    1.6219 H       1  UNL1        0.0646
     34 H           5.4364   -2.0267   -1.9719 H       1  UNL1        0.1552
     35 H           7.9318   -1.0027   -0.8847 H       1  UNL1        0.0637
     36 H           8.8273    0.4939    0.8736 H       1  UNL1        0.0647
     37 H           4.8944    1.3548    2.1496 H       1  UNL1        0.0653
     38 H          -0.1674    2.3949    1.1456 H       1  UNL1        0.0279
     39 H           1.3130    2.3754    0.0695 H       1  UNL1        0.0279
     40 H          -0.3878    2.5065   -0.6162 H       1  UNL1        0.0279
     41 H          -2.4346    0.4889   -1.5443 H       1  UNL1        0.1549
     42 H          -4.4979    2.0887   -0.6561 H       1  UNL1        0.0556
     43 H          -5.2310    0.3501   -1.8960 H       1  UNL1        0.0285
     44 H          -4.7699   -0.9109   -0.7115 H       1  UNL1        0.0285
     45 H          -7.3733   -0.0539   -1.2255 H       1  UNL1        0.0278
     46 H          -6.8192   -0.9994    0.2437 H       1  UNL1        0.0278
     47 H          -7.2110    1.9970   -0.0814 H       1  UNL1        0.0424
     48 H          -7.5669    0.9213    1.3567 H       1  UNL1        0.0424
     49 H          -5.3213    0.8027    1.8737 H       1  UNL1        0.1226
     50 H          -0.6849    0.0000    0.0000 H       1  UNL1        0.1454
@<TRIPOS>BOND
     1     1     2    1
     2     2     3   ar
     3     3     4   ar
     4     4     5    1
     5     5     6    2
     6     6     7    1
     7     7     8    2
     8     7     9   am
     9     9    10    1
    10    10    11   ar
    11    11    12   ar
    12    12    13   ar
    13    13    14    1
    14    13    15   ar
    15    15    16   ar
    16     4    17   ar
    17    17    18    1
    18    17    19   ar
    19    19    20    1
    20    20    21   am
    21    21    22    2
    22    21    23    1
    23    23    24    1
    24    24    25    1
    25    25    26    1
    26    26    27    1
    27    19     2   ar
    28    27    23    1
    29    16     6    1
    30    16    10   ar
    31     1    29    1
    32     1    30    1
    33     1    31    1
    34     3    32    1
    35     5    33    1
    36     9    34    1
    37    11    35    1
    38    12    36    1
    39    15    37    1
    40    18    38    1
    41    18    39    1
    42    18    40    1
    43    20    41    1
    44    23    42    1
    45    24    43    1
    46    24    44    1
    47    25    45    1
    48    25    46    1
    49    26    47    1
    50    26    48    1
    51    27    49    1
    52    28    50    1
