@<TRIPOS>MOLECULE
*****
 37 39 0 0 0
SMALL
GASTEIGER

@<TRIPOS>ATOM
      1 N           6.5597    0.4056    0.0845 N.pl3   1  UNL1       -0.2466
      2 C           5.7136    0.8329   -0.9834 C.2     1  UNL1        0.3081
      3 N           6.5296    1.2277   -1.8985 N.2     1  UNL1       -0.0994
      4 C           4.2729    0.7470   -0.8400 C.ar    1  UNL1        0.0653
      5 C           3.4478    1.6667   -1.4906 C.ar    1  UNL1       -0.0463
      6 C           2.0714    1.5335   -1.3192 C.ar    1  UNL1       -0.0532
      7 C           1.5500    0.5225   -0.5302 C.ar    1  UNL1       -0.0171
      8 C           0.1780    0.4622   -0.4145 C.ar    1  UNL1       -0.0419
      9 C          -0.3215   -0.5605    0.3819 C.ar    1  UNL1        0.0376
     10 C           0.5395   -1.4443    1.0043 C.ar    1  UNL1       -0.0490
     11 C           1.9110   -1.3650    0.8742 C.ar    1  UNL1       -0.0533
     12 C           2.4155   -0.3525    0.0849 C.ar    1  UNL1       -0.0170
     13 C           3.7855   -0.2664   -0.0507 C.ar    1  UNL1       -0.0392
     14 C          -1.7402   -0.7917    0.6264 C.2     1  UNL1        0.2483
     15 O          -2.2009   -1.7155    1.3663 O.2     1  UNL1       -0.2699
     16 N          -2.7480    0.0109    0.0475 N.am    1  UNL1       -0.2815
     17 C          -4.1555   -0.1067    0.2025 C.ar    1  UNL1        0.0337
     18 C          -4.9249    0.5125    1.1625 C.ar    1  UNL1       -0.0405
     19 C          -6.2904    0.3451    1.2469 C.ar    1  UNL1       -0.0600
     20 C          -6.8793   -0.4925    0.3046 C.ar    1  UNL1       -0.0616
     21 C          -6.1603   -1.1469   -0.6896 C.ar    1  UNL1       -0.0600
     22 C          -4.7820   -0.9229   -0.7043 C.ar    1  UNL1       -0.0405
     23 H           7.1469    0.1320    0.8981 H       1  UNL1        0.2884
     24 H           7.1699    0.1032    0.8741 H       1  UNL1        0.2884
     25 H           7.5457    1.1825   -1.7445 H       1  UNL1        0.3633
     26 H           3.9673    2.4116   -2.0770 H       1  UNL1        0.0626
     27 H           1.4589    2.2582   -1.8339 H       1  UNL1        0.0624
     28 H          -0.5108    1.1259   -0.8800 H       1  UNL1        0.0631
     29 H           0.1833   -2.2503    1.6303 H       1  UNL1        0.0625
     30 H           2.5694   -2.0668    1.3694 H       1  UNL1        0.0624
     31 H           4.4158   -0.9745    0.4506 H       1  UNL1        0.0632
     32 H          -2.5039    0.8199   -0.5931 H       1  UNL1        0.1551
     33 H          -4.4027    1.1514    1.8655 H       1  UNL1        0.0636
     34 H          -6.8747    0.8421    2.0102 H       1  UNL1        0.0618
     35 H          -7.9647   -0.5964    0.4091 H       1  UNL1        0.0618
     36 H          -6.6892   -1.7810   -1.3847 H       1  UNL1        0.0618
     37 H          -4.2827   -1.4595   -1.4999 H       1  UNL1        0.0636
@<TRIPOS>BOND
     1     1     2    1
     2     2     3    2
     3     2     4    1
     4     4     5   ar
     5     5     6   ar
     6     6     7   ar
     7     7     8   ar
     8     8     9   ar
     9     9    10   ar
    10    10    11   ar
    11    11    12   ar
    12    12    13   ar
    13     9    14    1
    14    14    15    2
    15    14    16   am
    16    16    17    1
    17    17    18   ar
    18    18    19   ar
    19    19    20   ar
    20    20    21   ar
    21    21    22   ar
    22    13     4   ar
    23    22    17   ar
    24    12     7   ar
    25     1    23    1
    26     1    24    1
    27     3    25    1
    28     5    26    1
    29     6    27    1
    30     8    28    1
    31    10    29    1
    32    11    30    1
    33    13    31    1
    34    16    32    1
    35    18    33    1
    36    19    34    1
    37    20    35    1
    38    21    36    1
    39    22    37    1
