@<TRIPOS>MOLECULE
*****
 58 62 0 0 0
SMALL
GASTEIGER

@<TRIPOS>ATOM
      1 C          -6.1679    4.5549    1.0860 C.3     1  UNL1        0.0788
      2 O          -5.1723    3.9805    0.2714 O.3     1  UNL1       -0.4950
      3 C          -4.4126    2.9048    0.6869 C.ar    1  UNL1        0.1237
      4 C          -3.4474    2.3741   -0.1455 C.ar    1  UNL1       -0.0190
      5 C          -2.6961    1.2978    0.2857 C.ar    1  UNL1       -0.0439
      6 C          -2.9378    0.7849    1.5445 C.ar    1  UNL1        0.0662
      7 C          -2.3685   -0.2539    2.2342 C.ar    1  UNL1        0.1922
      8 N          -1.3125   -1.1045    1.7626 N.ar    1  UNL1       -0.2413
      9 C           0.0113   -0.9760    1.9261 C.ar    1  UNL1        0.3362
     10 O           0.5392   -0.0100    2.5690 O.2     1  UNL1       -0.2459
     11 N           0.6651   -1.9930    1.3245 N.ar    1  UNL1       -0.2873
     12 C           2.1044   -2.1617    1.3092 C.3     1  UNL1        0.0533
     13 C           2.7511   -1.4919    0.1555 C.ar    1  UNL1       -0.0241
     14 C           2.9547   -2.1726   -1.0313 C.ar    1  UNL1       -0.0553
     15 C           3.5501   -1.5755   -2.1174 C.ar    1  UNL1       -0.0395
     16 C           3.9783   -0.2644   -2.0858 C.ar    1  UNL1        0.0826
     17 CL          4.7368    0.4553   -3.5083 Cl      1  UNL1       -0.0798
     18 C           3.7920    0.4429   -0.9215 C.ar    1  UNL1        0.1402
     19 O           4.1502    1.7081   -0.7389 O.3     1  UNL1       -0.4765
     20 C           4.7175    2.7722   -1.3175 C.3     1  UNL1        0.1931
     21 C           5.9561    3.3105   -0.5992 C.3     1  UNL1       -0.0172
     22 C           3.7084    3.8917   -1.4522 C.2     1  UNL1        0.3456
     23 O           3.9887    4.9907   -1.9601 O.2     1  UNL1       -0.2468
     24 O           2.4337    3.6414   -0.9787 O.3     1  UNL1       -0.4781
     25 C           3.1780   -0.1922    0.1804 C.ar    1  UNL1       -0.0136
     26 C          -0.2443   -2.8043    0.7558 C.ar    1  UNL1        0.0712
     27 C          -0.1791   -3.9730    0.0227 C.ar    1  UNL1       -0.0244
     28 C          -1.2956   -4.6226   -0.4565 C.ar    1  UNL1        0.0569
     29 C          -1.1857   -5.8881   -1.2483 C.3     1  UNL1        0.4175
     30 F          -2.3726   -6.1364   -1.8734 F       1  UNL1       -0.1659
     31 F          -0.9223   -6.9614   -0.3956 F       1  UNL1       -0.1659
     32 F          -0.1342   -5.8242   -2.1445 F       1  UNL1       -0.1659
     33 C          -2.5253   -4.0532   -0.1738 C.ar    1  UNL1       -0.0480
     34 C          -2.6044   -2.8860    0.5577 C.ar    1  UNL1       -0.0351
     35 C          -1.4787   -2.2368    1.0372 C.ar    1  UNL1        0.0766
     36 N          -2.9895   -0.3150    3.4247 N.ar    1  UNL1       -0.0587
     37 O          -3.8860    0.6101    3.4948 O.2     1  UNL1       -0.3525
     38 C          -3.8938    1.2977    2.3898 C.ar    1  UNL1        0.1728
     39 C          -4.6550    2.3877    1.9537 C.ar    1  UNL1        0.0257
     40 H          -6.6769    5.3705    0.5607 H       1  UNL1        0.0660
     41 H          -5.7368    4.8810    2.0646 H       1  UNL1        0.0660
     42 H          -6.9571    3.7965    1.3368 H       1  UNL1        0.0660
     43 H          -3.2517    2.7702   -1.1332 H       1  UNL1        0.0654
     44 H          -1.9254    0.8464   -0.3339 H       1  UNL1        0.0627
     45 H           2.3465   -3.2620    1.3310 H       1  UNL1        0.0543
     46 H           2.5745   -1.7532    2.2419 H       1  UNL1        0.0543
     47 H           2.6347   -3.2025   -1.0981 H       1  UNL1        0.0621
     48 H           3.7061   -2.1276   -3.0548 H       1  UNL1        0.0633
     49 H           5.0257    2.5787   -2.3688 H       1  UNL1        0.0849
     50 H           6.8758    3.1439   -1.1670 H       1  UNL1        0.0271
     51 H           6.0154    2.8844    0.4248 H       1  UNL1        0.0271
     52 H           5.8458    4.4078   -0.4743 H       1  UNL1        0.0271
     53 H           1.7648    4.3773   -0.7717 H       1  UNL1        0.2952
     54 H           3.0215    0.3588    1.1189 H       1  UNL1        0.0658
     55 H           0.7837   -4.4126   -0.1930 H       1  UNL1        0.0644
     56 H          -3.4202   -4.5496   -0.5426 H       1  UNL1        0.0624
     57 H          -3.5594   -2.4190    0.7930 H       1  UNL1        0.0639
     58 H          -5.4008    2.8023    2.5895 H       1  UNL1        0.0692
@<TRIPOS>BOND
     1     1     2    1
     2     2     3    1
     3     3     4   ar
     4     4     5   ar
     5     5     6   ar
     6     6     7   ar
     7     7     8    1
     8     8     9   ar
     9     9    10    2
    10     9    11   ar
    11    11    12    1
    12    12    13    1
    13    13    14   ar
    14    14    15   ar
    15    15    16   ar
    16    16    17    1
    17    16    18   ar
    18    18    19    1
    19    19    20    1
    20    20    21    1
    21    20    22    1
    22    22    23    2
    23    22    24    1
    24    18    25   ar
    25    11    26   ar
    26    26    27   ar
    27    27    28   ar
    28    28    29    1
    29    29    30    1
    30    29    31    1
    31    29    32    1
    32    28    33   ar
    33    33    34   ar
    34    34    35   ar
    35     7    36   ar
    36    36    37   ar
    37    37    38   ar
    38    38    39   ar
    39    39     3   ar
    40    38     6   ar
    41    35     8   ar
    42    25    13   ar
    43    35    26   ar
    44     1    40    1
    45     1    41    1
    46     1    42    1
    47     4    43    1
    48     5    44    1
    49    12    45    1
    50    12    46    1
    51    14    47    1
    52    15    48    1
    53    20    49    1
    54    21    50    1
    55    21    51    1
    56    21    52    1
    57    24    53    1
    58    25    54    1
    59    27    55    1
    60    33    56    1
    61    34    57    1
    62    39    58    1
