
     RDKit          3D

 58 62  0  0  0  0  0  0  0  0999 V2000
   -6.1679    4.5549    1.0860 C   0  0  0  0  0  0  0  0  0  0  0  0
   -5.1723    3.9805    0.2714 O   0  0  0  0  0  0  0  0  0  0  0  0
   -4.4126    2.9048    0.6869 C   0  0  0  0  0  0  0  0  0  0  0  0
   -3.4474    2.3741   -0.1455 C   0  0  0  0  0  0  0  0  0  0  0  0
   -2.6961    1.2978    0.2857 C   0  0  0  0  0  0  0  0  0  0  0  0
   -2.9378    0.7849    1.5445 C   0  0  0  0  0  0  0  0  0  0  0  0
   -2.3685   -0.2539    2.2342 C   0  0  0  0  0  0  0  0  0  0  0  0
   -1.3125   -1.1045    1.7626 N   0  0  0  0  0  0  0  0  0  0  0  0
    0.0113   -0.9760    1.9261 C   0  0  0  0  0  0  0  0  0  0  0  0
    0.5392   -0.0100    2.5690 O   0  0  0  0  0  0  0  0  0  0  0  0
    0.6651   -1.9930    1.3245 N   0  0  0  0  0  0  0  0  0  0  0  0
    2.1044   -2.1617    1.3092 C   0  0  0  0  0  0  0  0  0  0  0  0
    2.7511   -1.4919    0.1555 C   0  0  0  0  0  0  0  0  0  0  0  0
    2.9547   -2.1726   -1.0313 C   0  0  0  0  0  0  0  0  0  0  0  0
    3.5501   -1.5755   -2.1174 C   0  0  0  0  0  0  0  0  0  0  0  0
    3.9783   -0.2644   -2.0858 C   0  0  0  0  0  0  0  0  0  0  0  0
    4.7368    0.4553   -3.5083 Cl  0  0  0  0  0  0  0  0  0  0  0  0
    3.7920    0.4429   -0.9215 C   0  0  0  0  0  0  0  0  0  0  0  0
    4.1502    1.7081   -0.7389 O   0  0  0  0  0  0  0  0  0  0  0  0
    4.7175    2.7722   -1.3175 C   0  0  2  0  0  0  0  0  0  0  0  0
    5.9561    3.3105   -0.5992 C   0  0  0  0  0  0  0  0  0  0  0  0
    3.7084    3.8917   -1.4522 C   0  0  0  0  0  0  0  0  0  0  0  0
    3.9887    4.9907   -1.9601 O   0  0  0  0  0  0  0  0  0  0  0  0
    2.4337    3.6414   -0.9787 O   0  0  0  0  0  0  0  0  0  0  0  0
    3.1780   -0.1922    0.1804 C   0  0  0  0  0  0  0  0  0  0  0  0
   -0.2443   -2.8043    0.7558 C   0  0  0  0  0  0  0  0  0  0  0  0
   -0.1791   -3.9730    0.0227 C   0  0  0  0  0  0  0  0  0  0  0  0
   -1.2956   -4.6226   -0.4565 C   0  0  0  0  0  0  0  0  0  0  0  0
   -1.1857   -5.8881   -1.2483 C   0  0  0  0  0  0  0  0  0  0  0  0
   -2.3726   -6.1364   -1.8734 F   0  0  0  0  0  0  0  0  0  0  0  0
   -0.9223   -6.9614   -0.3956 F   0  0  0  0  0  0  0  0  0  0  0  0
   -0.1342   -5.8242   -2.1445 F   0  0  0  0  0  0  0  0  0  0  0  0
   -2.5253   -4.0532   -0.1738 C   0  0  0  0  0  0  0  0  0  0  0  0
   -2.6044   -2.8860    0.5577 C   0  0  0  0  0  0  0  0  0  0  0  0
   -1.4787   -2.2368    1.0372 C   0  0  0  0  0  0  0  0  0  0  0  0
   -2.9895   -0.3150    3.4247 N   0  0  0  0  0  0  0  0  0  0  0  0
   -3.8860    0.6101    3.4948 O   0  0  0  0  0  0  0  0  0  0  0  0
   -3.8938    1.2977    2.3898 C   0  0  0  0  0  0  0  0  0  0  0  0
   -4.6550    2.3877    1.9537 C   0  0  0  0  0  0  0  0  0  0  0  0
   -6.6769    5.3705    0.5607 H   0  0  0  0  0  0  0  0  0  0  0  0
   -5.7368    4.8810    2.0646 H   0  0  0  0  0  0  0  0  0  0  0  0
   -6.9571    3.7965    1.3368 H   0  0  0  0  0  0  0  0  0  0  0  0
   -3.2517    2.7702   -1.1332 H   0  0  0  0  0  0  0  0  0  0  0  0
   -1.9254    0.8464   -0.3339 H   0  0  0  0  0  0  0  0  0  0  0  0
    2.3465   -3.2620    1.3310 H   0  0  0  0  0  0  0  0  0  0  0  0
    2.5745   -1.7532    2.2419 H   0  0  0  0  0  0  0  0  0  0  0  0
    2.6347   -3.2025   -1.0981 H   0  0  0  0  0  0  0  0  0  0  0  0
    3.7061   -2.1276   -3.0548 H   0  0  0  0  0  0  0  0  0  0  0  0
    5.0257    2.5787   -2.3688 H   0  0  0  0  0  0  0  0  0  0  0  0
    6.8758    3.1439   -1.1670 H   0  0  0  0  0  0  0  0  0  0  0  0
    6.0154    2.8844    0.4248 H   0  0  0  0  0  0  0  0  0  0  0  0
    5.8458    4.4078   -0.4743 H   0  0  0  0  0  0  0  0  0  0  0  0
    1.7648    4.3773   -0.7717 H   0  0  0  0  0  0  0  0  0  0  0  0
    3.0215    0.3588    1.1189 H   0  0  0  0  0  0  0  0  0  0  0  0
    0.7837   -4.4126   -0.1930 H   0  0  0  0  0  0  0  0  0  0  0  0
   -3.4202   -4.5496   -0.5426 H   0  0  0  0  0  0  0  0  0  0  0  0
   -3.5594   -2.4190    0.7930 H   0  0  0  0  0  0  0  0  0  0  0  0
   -5.4008    2.8023    2.5895 H   0  0  0  0  0  0  0  0  0  0  0  0
  1  2  1  0
  2  3  1  0
  3  4  2  0
  4  5  1  0
  5  6  2  0
  6  7  1  0
  7  8  1  0
  8  9  1  0
  9 10  2  0
  9 11  1  0
 11 12  1  0
 12 13  1  0
 13 14  2  0
 14 15  1  0
 15 16  2  0
 16 17  1  0
 16 18  1  0
 18 19  1  0
 19 20  1  0
 20 21  1  0
 20 22  1  0
 22 23  2  0
 22 24  1  0
 18 25  2  0
 11 26  1  0
 26 27  2  0
 27 28  1  0
 28 29  1  0
 29 30  1  0
 29 31  1  0
 29 32  1  0
 28 33  2  0
 33 34  1  0
 34 35  2  0
  7 36  2  0
 36 37  1  0
 37 38  1  0
 38 39  2  0
 39  3  1  0
 38  6  1  0
 35  8  1  0
 25 13  1  0
 35 26  1  0
  1 40  1  0
  1 41  1  0
  1 42  1  0
  4 43  1  0
  5 44  1  0
 12 45  1  0
 12 46  1  0
 14 47  1  0
 15 48  1  0
 20 49  1  6
 21 50  1  0
 21 51  1  0
 21 52  1  0
 24 53  1  0
 25 54  1  0
 27 55  1  0
 33 56  1  0
 34 57  1  0
 39 58  1  0
M  END
$$$$
