@<TRIPOS>MOLECULE
*****
 45 44 0 0 0
SMALL
GASTEIGER

@<TRIPOS>ATOM
      1 C           3.7522    0.6636    0.1699 C.3     1  UNL1        0.0653
      2 O           5.0958    1.1004    0.0579 O.3     1  UNL1       -0.3912
      3 C           3.3928    0.6992    1.6182 C.3     1  UNL1       -0.0263
      4 C           1.9824    0.2699    1.9292 C.3     1  UNL1       -0.0507
      5 C           0.9526    1.1246    1.2671 C.3     1  UNL1       -0.0530
      6 C          -0.4596    0.7269    1.5668 C.3     1  UNL1       -0.0531
      7 C          -0.8206   -0.6697    1.1393 C.3     1  UNL1       -0.0531
      8 C          -0.6659   -0.8499   -0.3186 C.3     1  UNL1       -0.0531
      9 C          -1.3975    0.0317   -1.2588 C.3     1  UNL1       -0.0531
     10 C          -2.8701    0.0737   -1.2682 C.3     1  UNL1       -0.0531
     11 C          -3.6178    0.5497   -0.0907 C.3     1  UNL1       -0.0533
     12 C          -5.1228    0.4881   -0.4857 C.3     1  UNL1       -0.0559
     13 C          -5.5014   -0.9219   -0.8290 C.3     1  UNL1       -0.0653
     14 C           3.7828   -0.7728   -0.3642 C.3     1  UNL1        0.0707
     15 C           4.2558   -0.7256   -1.7695 C.2     1  UNL1        0.3072
     16 O           5.5510   -1.1042   -2.1355 O.3     1  UNL1       -0.4806
     17 O           3.5644   -0.3541   -2.7367 O.2     1  UNL1       -0.2509
     18 H           3.1376    1.2778   -0.4906 H       1  UNL1        0.0598
     19 H           5.2210    1.9508    0.5194 H       1  UNL1        0.2098
     20 H           4.0590   -0.0390    2.1288 H       1  UNL1        0.0290
     21 H           3.6327    1.6768    2.0799 H       1  UNL1        0.0290
     22 H           1.8751   -0.7935    1.6295 H       1  UNL1        0.0266
     23 H           1.8526    0.3668    3.0267 H       1  UNL1        0.0266
     24 H           1.1149    1.1783    0.1592 H       1  UNL1        0.0265
     25 H           1.0703    2.1727    1.6408 H       1  UNL1        0.0265
     26 H          -0.5733    0.7577    2.6870 H       1  UNL1        0.0265
     27 H          -1.1205    1.4763    1.1195 H       1  UNL1        0.0265
     28 H          -0.0600   -1.3983    1.5998 H       1  UNL1        0.0265
     29 H          -1.7670   -1.0541    1.5148 H       1  UNL1        0.0265
     30 H          -0.9196   -1.9410   -0.5625 H       1  UNL1        0.0265
     31 H           0.4509   -0.8425   -0.5377 H       1  UNL1        0.0265
     32 H          -0.9802    1.0964   -1.2084 H       1  UNL1        0.0265
     33 H          -1.0139   -0.2713   -2.3022 H       1  UNL1        0.0265
     34 H          -3.1782    0.6667   -2.1919 H       1  UNL1        0.0265
     35 H          -3.2859   -0.9667   -1.5040 H       1  UNL1        0.0265
     36 H          -3.4221    1.6242    0.1353 H       1  UNL1        0.0265
     37 H          -3.5304    0.0008    0.8337 H       1  UNL1        0.0265
     38 H          -5.7396    0.8895    0.3380 H       1  UNL1        0.0263
     39 H          -5.1815    1.1448   -1.3936 H       1  UNL1        0.0263
     40 H          -4.8248   -1.6510   -0.3299 H       1  UNL1        0.0230
     41 H          -6.5371   -1.1735   -0.4585 H       1  UNL1        0.0230
     42 H          -5.4609   -1.0856   -1.9290 H       1  UNL1        0.0230
     43 H           2.7899   -1.2576   -0.2975 H       1  UNL1        0.0403
     44 H           4.4879   -1.3889    0.2311 H       1  UNL1        0.0403
     45 H           6.0291   -0.7496   -2.9290 H       1  UNL1        0.2951
@<TRIPOS>BOND
     1     1     2    1
     2     1     3    1
     3     3     4    1
     4     4     5    1
     5     5     6    1
     6     6     7    1
     7     7     8    1
     8     8     9    1
     9     9    10    1
    10    10    11    1
    11    11    12    1
    12    12    13    1
    13     1    14    1
    14    14    15    1
    15    15    16    1
    16    15    17    2
    17     1    18    1
    18     2    19    1
    19     3    20    1
    20     3    21    1
    21     4    22    1
    22     4    23    1
    23     5    24    1
    24     5    25    1
    25     6    26    1
    26     6    27    1
    27     7    28    1
    28     7    29    1
    29     8    30    1
    30     8    31    1
    31     9    32    1
    32     9    33    1
    33    10    34    1
    34    10    35    1
    35    11    36    1
    36    11    37    1
    37    12    38    1
    38    12    39    1
    39    13    40    1
    40    13    41    1
    41    13    42    1
    42    14    43    1
    43    14    44    1
    44    16    45    1
