@<TRIPOS>MOLECULE
*****
 60 64 0 0 0
SMALL
GASTEIGER

@<TRIPOS>ATOM
      1 C          -3.0809    3.3128   -0.1214 C.3     1  UNL1        0.0164
      2 N          -1.9825    2.4000   -0.2793 N.ar    1  UNL1       -0.2987
      3 C          -0.6691    2.7150   -0.2332 C.ar    1  UNL1        0.2573
      4 O          -0.4725    3.9532   -0.0338 O.2     1  UNL1       -0.2673
      5 C           0.4230    1.8788   -0.3731 C.ar    1  UNL1        0.0388
      6 C           1.7975    2.3590   -0.2795 C.3     1  UNL1       -0.0326
      7 C           0.0598    0.5732   -0.5852 C.ar    1  UNL1        0.0751
      8 N           1.0572   -0.2932   -0.7321 N.ar    1  UNL1       -0.2614
      9 C           0.7344   -1.6117   -0.9443 C.ar    1  UNL1        0.3372
     10 O           1.5537   -2.5571   -1.1031 O.2     1  UNL1       -0.2458
     11 N          -0.5256   -2.0890   -1.0144 N.ar    1  UNL1       -0.2569
     12 C          -0.9357   -3.4400   -1.2248 C.3     1  UNL1        0.0424
     13 C          -0.1556   -4.6408   -1.0443 C.3     1  UNL1       -0.0300
     14 C          -1.0761   -4.2043    0.1032 C.3     1  UNL1       -0.0300
     15 C          -1.5180   -1.1823   -0.8624 C.ar    1  UNL1        0.2678
     16 O          -2.7546   -1.4664   -0.9029 O.2     1  UNL1       -0.2667
     17 C          -1.2655    0.1505   -0.6474 C.ar    1  UNL1        0.1022
     18 C          -2.2596    1.0859   -0.4919 C.ar    1  UNL1        0.1202
     19 N          -3.6188    0.6945   -0.5746 N.pl3   1  UNL1       -0.2978
     20 C          -4.6763    0.4626    0.3049 C.ar    1  UNL1        0.0681
     21 C          -4.5955    0.6084    1.6659 C.ar    1  UNL1       -0.0367
     22 C          -5.7016    0.3681    2.4592 C.ar    1  UNL1       -0.0467
     23 C          -6.8984   -0.0251    1.8481 C.ar    1  UNL1        0.0162
     24 I          -8.6181   -0.3993    3.0232 I       1  UNL1       -0.0437
     25 C          -6.9849   -0.1754    0.4651 C.ar    1  UNL1       -0.0115
     26 C          -5.8638    0.0724   -0.2924 C.ar    1  UNL1        0.1454
     27 F          -5.9683   -0.0846   -1.6500 F       1  UNL1       -0.2035
     28 C           2.4657   -0.1693   -0.7397 C.ar    1  UNL1        0.0532
     29 C           3.5240   -0.0561    0.1840 C.ar    1  UNL1       -0.0164
     30 C           4.8204   -0.0384   -0.2190 C.ar    1  UNL1        0.0353
     31 N           5.7263    0.0796    0.8757 N.am    1  UNL1       -0.2857
     32 C           6.3790    1.1515    1.5548 C.2     1  UNL1        0.2141
     33 C           7.2586    0.7622    2.6886 C.3     1  UNL1        0.0125
     34 O           6.1145    2.2984    1.0937 O.2     1  UNL1       -0.2758
     35 C           5.2092   -0.1244   -1.5247 C.ar    1  UNL1       -0.0403
     36 C           4.2166   -0.2367   -2.4802 C.ar    1  UNL1       -0.0581
     37 C           2.8880   -0.2587   -2.0987 C.ar    1  UNL1       -0.0376
     38 H          -3.9446    2.9495   -0.7544 H       1  UNL1        0.0457
     39 H          -3.4264    3.4552    0.9084 H       1  UNL1        0.0457
     40 H          -2.8711    4.3295   -0.5208 H       1  UNL1        0.0457
     41 H           2.2312    2.2679    0.7489 H       1  UNL1        0.0280
     42 H           2.4632    2.2482   -1.1183 H       1  UNL1        0.0280
     43 H           1.6635    3.5049   -0.2878 H       1  UNL1        0.0280
     44 H          -1.8798   -3.5487   -1.8441 H       1  UNL1        0.0530
     45 H          -0.4710   -5.5459   -1.6455 H       1  UNL1        0.0286
     46 H           0.8862   -4.7358   -0.7368 H       1  UNL1        0.0286
     47 H          -0.5833   -3.7864    1.0109 H       1  UNL1        0.0286
     48 H          -1.9564   -4.8206    0.2831 H       1  UNL1        0.0286
     49 H          -3.7038    0.5882   -1.6220 H       1  UNL1        0.1536
     50 H          -3.6873    0.9054    2.1322 H       1  UNL1        0.0637
     51 H          -5.7239    0.4632    3.5513 H       1  UNL1        0.0628
     52 H          -7.9191   -0.4855   -0.0172 H       1  UNL1        0.0657
     53 H           3.0272    0.0007    1.1464 H       1  UNL1        0.0657
     54 H           5.8403   -0.9245    1.1340 H       1  UNL1        0.1548
     55 H           8.0013   -0.0080    2.4465 H       1  UNL1        0.0323
     56 H           7.7485    1.6996    3.0345 H       1  UNL1        0.0323
     57 H           6.6106    0.3161    3.4748 H       1  UNL1        0.0323
     58 H           6.2732   -0.0977   -1.7084 H       1  UNL1        0.0636
     59 H           4.5672   -0.3003   -3.5042 H       1  UNL1        0.0619
     60 H           2.2476   -0.3486   -2.9803 H       1  UNL1        0.0638
@<TRIPOS>BOND
     1     1     2    1
     2     2     3   ar
     3     3     4    2
     4     3     5   ar
     5     5     6    1
     6     5     7   ar
     7     7     8   ar
     8     8     9   ar
     9     9    10    2
    10     9    11   ar
    11    11    12    1
    12    12    13    1
    13    13    14    1
    14    11    15   ar
    15    15    16    2
    16    15    17   ar
    17    17    18   ar
    18    18    19    1
    19    19    20    1
    20    20    21   ar
    21    21    22   ar
    22    22    23   ar
    23    23    24    1
    24    23    25   ar
    25    25    26   ar
    26    26    27    1
    27     8    28    1
    28    28    29   ar
    29    29    30   ar
    30    30    31    1
    31    31    32   am
    32    32    33    1
    33    32    34    2
    34    30    35   ar
    35    35    36   ar
    36    36    37   ar
    37    18     2   ar
    38    26    20   ar
    39    37    28   ar
    40    17     7   ar
    41    14    12    1
    42     1    38    1
    43     1    39    1
    44     1    40    1
    45     6    41    1
    46     6    42    1
    47     6    43    1
    48    12    44    1
    49    13    45    1
    50    13    46    1
    51    14    47    1
    52    14    48    1
    53    19    49    1
    54    21    50    1
    55    22    51    1
    56    25    52    1
    57    29    53    1
    58    31    54    1
    59    33    55    1
    60    33    56    1
    61    33    57    1
    62    35    58    1
    63    36    59    1
    64    37    60    1
