@<TRIPOS>MOLECULE
*****
 56 59 0 0 0
SMALL
GASTEIGER

@<TRIPOS>ATOM
      1 C           7.6298    1.1045   -0.3461 C.3     1  UNL1        0.0596
      2 S           6.5647    1.6070   -1.6947 S.O2    1  UNL1       -0.0059
      3 O           6.8394    3.0580   -2.0053 O.2     1  UNL1       -0.1696
      4 O           6.9388    0.7811   -2.8968 O.2     1  UNL1       -0.1696
      5 C           4.8958    1.3481   -1.2556 C.ar    1  UNL1        0.0879
      6 C           4.2451    0.1437   -1.5194 C.ar    1  UNL1       -0.0363
      7 C           2.9255   -0.0431   -1.1650 C.ar    1  UNL1       -0.0521
      8 C           2.1988    0.9403   -0.5414 C.ar    1  UNL1       -0.0143
      9 C           0.8007    0.7891   -0.1418 C.ar    1  UNL1        0.0244
     10 C          -0.1698    1.5380   -0.8326 C.ar    1  UNL1       -0.0498
     11 C          -1.5167    1.4453   -0.5733 C.ar    1  UNL1       -0.0488
     12 C          -1.9715    0.5889    0.4019 C.ar    1  UNL1        0.0405
     13 C          -3.3846    0.4316    0.7369 C.2     1  UNL1        0.2484
     14 O          -3.7660   -0.3664    1.6398 O.2     1  UNL1       -0.2699
     15 N          -4.4000    1.1591    0.0738 N.am    1  UNL1       -0.2808
     16 C          -5.7854    0.9715    0.4381 C.ar    1  UNL1        0.0477
     17 C          -6.3324    1.7629    1.4246 C.ar    1  UNL1       -0.0397
     18 C          -7.6646    1.5811    1.7736 C.ar    1  UNL1       -0.0600
     19 C          -8.4147    0.6087    1.1231 C.ar    1  UNL1       -0.0609
     20 C          -7.8684   -0.1920    0.1279 C.ar    1  UNL1       -0.0460
     21 C          -6.5459    0.0089   -0.1987 C.ar    1  UNL1        0.0800
     22 C          -5.8856   -0.7846   -1.2320 C.2     1  UNL1        0.3386
     23 O          -4.6959   -0.6336   -1.5549 O.2     1  UNL1       -0.2451
     24 O          -6.6335   -1.7575   -1.8838 O.3     1  UNL1       -0.4771
     25 C          -1.0377   -0.1383    1.0751 C.ar    1  UNL1       -0.0066
     26 C           0.3589   -0.0634    0.8304 C.ar    1  UNL1        0.1368
     27 O           1.1393   -0.8599    1.6072 O.3     1  UNL1       -0.4554
     28 C           1.9877   -1.8473    1.3071 C.ar    1  UNL1        0.1285
     29 C           1.4702   -3.0318    0.7629 C.ar    1  UNL1       -0.0193
     30 C           2.2452   -4.0999    0.4276 C.ar    1  UNL1       -0.0583
     31 C           3.6050   -4.0115    0.6337 C.ar    1  UNL1       -0.0615
     32 C           4.1388   -2.8572    1.1676 C.ar    1  UNL1       -0.0583
     33 C           3.3709   -1.7803    1.5073 C.ar    1  UNL1       -0.0193
     34 C           2.8734    2.1342   -0.2897 C.ar    1  UNL1       -0.0521
     35 C           4.1899    2.3318   -0.6389 C.ar    1  UNL1       -0.0363
     36 H           8.5504    0.6182   -0.7282 H       1  UNL1        0.0468
     37 H           7.0338    0.4155    0.3094 H       1  UNL1        0.0468
     38 H           7.8582    1.9837    0.3100 H       1  UNL1        0.0468
     39 H           4.8433   -0.6139   -2.0121 H       1  UNL1        0.0637
     40 H           2.4763   -1.0058   -1.4032 H       1  UNL1        0.0624
     41 H           0.2223    2.2047   -1.5961 H       1  UNL1        0.0625
     42 H          -2.2215    2.0457   -1.1358 H       1  UNL1        0.0625
     43 H          -4.1630    1.8347   -0.6802 H       1  UNL1        0.1552
     44 H          -5.7749    2.5270    1.9483 H       1  UNL1        0.0636
     45 H          -8.0941    2.1864    2.5325 H       1  UNL1        0.0618
     46 H          -9.4529    0.4558    1.3842 H       1  UNL1        0.0618
     47 H          -8.4340   -0.9470   -0.3838 H       1  UNL1        0.0626
     48 H          -6.2376   -2.2625   -2.6693 H       1  UNL1        0.2954
     49 H          -1.3975   -0.8217    1.8531 H       1  UNL1        0.0662
     50 H           0.3848   -3.0991    0.5997 H       1  UNL1        0.0654
     51 H           1.8254   -5.0036    0.0094 H       1  UNL1        0.0619
     52 H           4.2020   -4.8671    0.3621 H       1  UNL1        0.0618
     53 H           5.2251   -2.8342    1.3129 H       1  UNL1        0.0619
     54 H           3.8048   -0.8631    1.9328 H       1  UNL1        0.0654
     55 H           2.3080    2.9120    0.2003 H       1  UNL1        0.0624
     56 H           4.6964    3.2673   -0.4344 H       1  UNL1        0.0637
@<TRIPOS>BOND
     1     1     2    1
     2     2     3    2
     3     2     4    2
     4     2     5    1
     5     5     6   ar
     6     6     7   ar
     7     7     8   ar
     8     8     9    1
     9     9    10   ar
    10    10    11   ar
    11    11    12   ar
    12    12    13    1
    13    13    14    2
    14    13    15   am
    15    15    16    1
    16    16    17   ar
    17    17    18   ar
    18    18    19   ar
    19    19    20   ar
    20    20    21   ar
    21    21    22    1
    22    22    23    2
    23    22    24    1
    24    12    25   ar
    25    25    26   ar
    26    26    27    1
    27    27    28    1
    28    28    29   ar
    29    29    30   ar
    30    30    31   ar
    31    31    32   ar
    32    32    33   ar
    33     8    34   ar
    34    34    35   ar
    35    35     5   ar
    36    26     9   ar
    37    33    28   ar
    38    21    16   ar
    39     1    36    1
    40     1    37    1
    41     1    38    1
    42     6    39    1
    43     7    40    1
    44    10    41    1
    45    11    42    1
    46    15    43    1
    47    17    44    1
    48    18    45    1
    49    19    46    1
    50    20    47    1
    51    24    48    1
    52    25    49    1
    53    29    50    1
    54    30    51    1
    55    31    52    1
    56    32    53    1
    57    33    54    1
    58    34    55    1
    59    35    56    1
