
     RDKit          3D

 56 59  0  0  0  0  0  0  0  0999 V2000
    7.6298    1.1045   -0.3461 C   0  0  0  0  0  0  0  0  0  0  0  0
    6.5647    1.6070   -1.6947 S   0  0  0  0  0  6  0  0  0  0  0  0
    6.8394    3.0580   -2.0053 O   0  0  0  0  0  0  0  0  0  0  0  0
    6.9388    0.7811   -2.8968 O   0  0  0  0  0  0  0  0  0  0  0  0
    4.8958    1.3481   -1.2556 C   0  0  0  0  0  0  0  0  0  0  0  0
    4.2451    0.1437   -1.5194 C   0  0  0  0  0  0  0  0  0  0  0  0
    2.9255   -0.0431   -1.1650 C   0  0  0  0  0  0  0  0  0  0  0  0
    2.1988    0.9403   -0.5414 C   0  0  0  0  0  0  0  0  0  0  0  0
    0.8007    0.7891   -0.1418 C   0  0  0  0  0  0  0  0  0  0  0  0
   -0.1698    1.5380   -0.8326 C   0  0  0  0  0  0  0  0  0  0  0  0
   -1.5167    1.4453   -0.5733 C   0  0  0  0  0  0  0  0  0  0  0  0
   -1.9715    0.5889    0.4019 C   0  0  0  0  0  0  0  0  0  0  0  0
   -3.3846    0.4316    0.7369 C   0  0  0  0  0  0  0  0  0  0  0  0
   -3.7660   -0.3664    1.6398 O   0  0  0  0  0  0  0  0  0  0  0  0
   -4.4000    1.1591    0.0738 N   0  0  0  0  0  0  0  0  0  0  0  0
   -5.7854    0.9715    0.4381 C   0  0  0  0  0  0  0  0  0  0  0  0
   -6.3324    1.7629    1.4246 C   0  0  0  0  0  0  0  0  0  0  0  0
   -7.6646    1.5811    1.7736 C   0  0  0  0  0  0  0  0  0  0  0  0
   -8.4147    0.6087    1.1231 C   0  0  0  0  0  0  0  0  0  0  0  0
   -7.8684   -0.1920    0.1279 C   0  0  0  0  0  0  0  0  0  0  0  0
   -6.5459    0.0089   -0.1987 C   0  0  0  0  0  0  0  0  0  0  0  0
   -5.8856   -0.7846   -1.2320 C   0  0  0  0  0  0  0  0  0  0  0  0
   -4.6959   -0.6336   -1.5549 O   0  0  0  0  0  0  0  0  0  0  0  0
   -6.6335   -1.7575   -1.8838 O   0  0  0  0  0  0  0  0  0  0  0  0
   -1.0377   -0.1383    1.0751 C   0  0  0  0  0  0  0  0  0  0  0  0
    0.3589   -0.0634    0.8304 C   0  0  0  0  0  0  0  0  0  0  0  0
    1.1393   -0.8599    1.6072 O   0  0  0  0  0  0  0  0  0  0  0  0
    1.9877   -1.8473    1.3071 C   0  0  0  0  0  0  0  0  0  0  0  0
    1.4702   -3.0318    0.7629 C   0  0  0  0  0  0  0  0  0  0  0  0
    2.2452   -4.0999    0.4276 C   0  0  0  0  0  0  0  0  0  0  0  0
    3.6050   -4.0115    0.6337 C   0  0  0  0  0  0  0  0  0  0  0  0
    4.1388   -2.8572    1.1676 C   0  0  0  0  0  0  0  0  0  0  0  0
    3.3709   -1.7803    1.5073 C   0  0  0  0  0  0  0  0  0  0  0  0
    2.8734    2.1342   -0.2897 C   0  0  0  0  0  0  0  0  0  0  0  0
    4.1899    2.3318   -0.6389 C   0  0  0  0  0  0  0  0  0  0  0  0
    8.5504    0.6182   -0.7282 H   0  0  0  0  0  0  0  0  0  0  0  0
    7.0338    0.4155    0.3094 H   0  0  0  0  0  0  0  0  0  0  0  0
    7.8582    1.9837    0.3100 H   0  0  0  0  0  0  0  0  0  0  0  0
    4.8433   -0.6139   -2.0121 H   0  0  0  0  0  0  0  0  0  0  0  0
    2.4763   -1.0058   -1.4032 H   0  0  0  0  0  0  0  0  0  0  0  0
    0.2223    2.2047   -1.5961 H   0  0  0  0  0  0  0  0  0  0  0  0
   -2.2215    2.0457   -1.1358 H   0  0  0  0  0  0  0  0  0  0  0  0
   -4.1630    1.8347   -0.6802 H   0  0  0  0  0  0  0  0  0  0  0  0
   -5.7749    2.5270    1.9483 H   0  0  0  0  0  0  0  0  0  0  0  0
   -8.0941    2.1864    2.5325 H   0  0  0  0  0  0  0  0  0  0  0  0
   -9.4529    0.4558    1.3842 H   0  0  0  0  0  0  0  0  0  0  0  0
   -8.4340   -0.9470   -0.3838 H   0  0  0  0  0  0  0  0  0  0  0  0
   -6.2376   -2.2625   -2.6693 H   0  0  0  0  0  0  0  0  0  0  0  0
   -1.3975   -0.8217    1.8531 H   0  0  0  0  0  0  0  0  0  0  0  0
    0.3848   -3.0991    0.5997 H   0  0  0  0  0  0  0  0  0  0  0  0
    1.8254   -5.0036    0.0094 H   0  0  0  0  0  0  0  0  0  0  0  0
    4.2020   -4.8671    0.3621 H   0  0  0  0  0  0  0  0  0  0  0  0
    5.2251   -2.8342    1.3129 H   0  0  0  0  0  0  0  0  0  0  0  0
    3.8048   -0.8631    1.9328 H   0  0  0  0  0  0  0  0  0  0  0  0
    2.3080    2.9120    0.2003 H   0  0  0  0  0  0  0  0  0  0  0  0
    4.6964    3.2673   -0.4344 H   0  0  0  0  0  0  0  0  0  0  0  0
  1  2  1  0
  2  3  2  0
  2  4  2  0
  2  5  1  0
  5  6  2  0
  6  7  1  0
  7  8  2  0
  8  9  1  0
  9 10  2  0
 10 11  1  0
 11 12  2  0
 12 13  1  0
 13 14  2  0
 13 15  1  0
 15 16  1  0
 16 17  2  0
 17 18  1  0
 18 19  2  0
 19 20  1  0
 20 21  2  0
 21 22  1  0
 22 23  2  0
 22 24  1  0
 12 25  1  0
 25 26  2  0
 26 27  1  0
 27 28  1  0
 28 29  2  0
 29 30  1  0
 30 31  2  0
 31 32  1  0
 32 33  2  0
  8 34  1  0
 34 35  2  0
 35  5  1  0
 26  9  1  0
 33 28  1  0
 21 16  1  0
  1 36  1  0
  1 37  1  0
  1 38  1  0
  6 39  1  0
  7 40  1  0
 10 41  1  0
 11 42  1  0
 15 43  1  0
 17 44  1  0
 18 45  1  0
 19 46  1  0
 20 47  1  0
 24 48  1  0
 25 49  1  0
 29 50  1  0
 30 51  1  0
 31 52  1  0
 32 53  1  0
 33 54  1  0
 34 55  1  0
 35 56  1  0
M  END
$$$$
