@<TRIPOS>MOLECULE
*****
 34 36 0 0 0
SMALL
GASTEIGER

@<TRIPOS>ATOM
      1 O           2.4091   -2.8162    1.0553 O.2     1  UNL1       -0.2451
      2 C           1.2128   -2.5320    1.0125 C.2     1  UNL1        0.3375
      3 O           0.3492   -3.5752    1.4341 O.3     1  UNL1       -0.4771
      4 C           0.6400   -1.2793    0.5873 C.ar    1  UNL1        0.0701
      5 C          -0.7598   -1.1092    0.5944 C.ar    1  UNL1       -0.0211
      6 C          -1.3566    0.0629    0.1987 C.ar    1  UNL1        0.0725
      7 C          -2.8058    0.2440    0.2043 C.ar    1  UNL1        0.0004
      8 C          -3.6415   -0.7649    0.6112 C.ar    1  UNL1       -0.0515
      9 C          -5.0288   -0.5973    0.6187 C.ar    1  UNL1       -0.0471
     10 C          -5.5741    0.5906    0.2148 C.ar    1  UNL1        0.0179
     11 BR         -7.4803    0.8111    0.2287 Br      1  UNL1       -0.0503
     12 C          -4.7485    1.6255   -0.2010 C.ar    1  UNL1       -0.0471
     13 C          -3.3929    1.4239   -0.1946 C.ar    1  UNL1       -0.0515
     14 N          -0.5290    1.0432   -0.1975 N.ar    1  UNL1       -0.2466
     15 C           0.8080    0.9817   -0.2410 C.ar    1  UNL1        0.0727
     16 C           1.5684    2.0511   -0.6661 C.ar    1  UNL1       -0.0322
     17 C           2.9322    1.9962   -0.7132 C.ar    1  UNL1       -0.0176
     18 C           3.5246    0.8262   -0.3179 C.ar    1  UNL1        0.1307
     19 O           4.9060    0.7423   -0.3554 O.3     1  UNL1       -0.4057
     20 C           5.4952    0.2707   -1.5647 C.3     1  UNL1        0.5752
     21 F           6.8492    0.2671   -1.3858 F       1  UNL1       -0.1328
     22 F           5.0985    1.0941   -2.6048 F       1  UNL1       -0.1328
     23 F           5.0284   -1.0197   -1.7423 F       1  UNL1       -0.1328
     24 C           2.7686   -0.2607    0.1133 C.ar    1  UNL1       -0.0097
     25 C           1.3980   -0.2235    0.1671 C.ar    1  UNL1        0.0178
     26 H           0.7176   -4.2080    2.1258 H       1  UNL1        0.2954
     27 H          -1.3291   -1.9547    0.9290 H       1  UNL1        0.0647
     28 H          -3.3104   -1.7269    0.9437 H       1  UNL1        0.0624
     29 H          -5.6959   -1.3933    0.9401 H       1  UNL1        0.0629
     30 H          -5.2194    2.5453   -0.5114 H       1  UNL1        0.0629
     31 H          -2.7447    2.2236   -0.5165 H       1  UNL1        0.0624
     32 H           1.0718    2.9559   -0.9698 H       1  UNL1        0.0640
     33 H           3.5423    2.8476   -1.0519 H       1  UNL1        0.0655
     34 H           3.2969   -1.1419    0.4070 H       1  UNL1        0.0661
@<TRIPOS>BOND
     1     1     2    2
     2     2     3    1
     3     2     4    1
     4     4     5   ar
     5     5     6   ar
     6     6     7    1
     7     7     8   ar
     8     8     9   ar
     9     9    10   ar
    10    10    11    1
    11    10    12   ar
    12    12    13   ar
    13     6    14   ar
    14    14    15   ar
    15    15    16   ar
    16    16    17   ar
    17    17    18   ar
    18    18    19    1
    19    19    20    1
    20    20    21    1
    21    20    22    1
    22    20    23    1
    23    18    24   ar
    24    24    25   ar
    25    25     4   ar
    26    13     7   ar
    27    25    15   ar
    28     3    26    1
    29     5    27    1
    30     8    28    1
    31     9    29    1
    32    12    30    1
    33    13    31    1
    34    16    32    1
    35    17    33    1
    36    24    34    1
