
     RDKit          3D

 83 87  0  0  0  0  0  0  0  0999 V2000
   -6.6390    2.2261   -3.0345 C   0  0  0  0  0  0  0  0  0  0  0  0
   -7.6404    1.5016   -3.7422 N   0  0  0  0  0  0  0  0  0  0  0  0
   -7.6837    0.0940   -3.5951 C   0  0  0  0  0  0  0  0  0  0  0  0
   -8.1615   -0.4476   -2.2880 C   0  0  0  0  0  0  0  0  0  0  0  0
   -7.3087   -0.0108   -1.1740 C   0  0  0  0  0  0  0  0  0  0  0  0
   -7.6697    1.1145   -0.4198 C   0  0  0  0  0  0  0  0  0  0  0  0
   -6.8450    1.4821    0.6110 C   0  0  0  0  0  0  0  0  0  0  0  0
   -5.6800    0.7776    0.9209 C   0  0  0  0  0  0  0  0  0  0  0  0
   -4.6923    1.3464    2.2752 Cl  0  0  0  0  0  0  0  0  0  0  0  0
   -5.3529   -0.3112    0.1731 C   0  0  0  0  0  0  0  0  0  0  0  0
   -4.1712   -1.1231    0.3968 C   0  0  0  0  0  0  0  0  0  0  0  0
   -3.1314   -0.7502    1.2883 N   0  0  0  0  0  0  0  0  0  0  0  0
   -2.0543    0.0368    0.7861 C   0  0  0  0  0  0  0  0  0  0  0  0
   -2.2174    0.4271   -0.4412 O   0  0  0  0  0  0  0  0  0  0  0  0
   -0.8181    0.4151    1.5076 C   0  0  1  0  0  0  0  0  0  0  0  0
   -0.9184    1.3599    2.6079 C   0  0  0  0  0  0  0  0  0  0  0  0
   -0.2280    1.0738    3.8340 N   0  0  0  0  0  0  0  0  0  0  0  0
    1.0127    0.3931    3.7124 C   0  0  0  0  0  0  0  0  0  0  0  0
    0.7063   -0.9214    3.0454 C   0  0  0  0  0  0  0  0  0  0  0  0
    0.0134   -0.8218    1.7488 C   0  0  2  0  0  0  0  0  0  0  0  0
    1.0167   -1.0643    0.6752 C   0  0  0  0  0  0  0  0  0  0  0  0
    1.0983   -2.2613   -0.0238 C   0  0  0  0  0  0  0  0  0  0  0  0
    1.9947   -2.5063   -1.0043 C   0  0  0  0  0  0  0  0  0  0  0  0
    2.9109   -1.5187   -1.3646 C   0  0  0  0  0  0  0  0  0  0  0  0
    3.8040   -1.7855   -2.3568 O   0  0  0  0  0  0  0  0  0  0  0  0
    4.8186   -1.0381   -2.9043 C   0  0  0  0  0  0  0  0  0  0  0  0
    5.9481   -0.6563   -2.0111 C   0  0  0  0  0  0  0  0  0  0  0  0
    6.9320    0.1136   -2.6864 O   0  0  0  0  0  0  0  0  0  0  0  0
    8.0651    0.5962   -2.0582 C   0  0  0  0  0  0  0  0  0  0  0  0
    8.0390    1.8541   -1.4647 C   0  0  0  0  0  0  0  0  0  0  0  0
    6.5741    2.8157   -1.5177 Cl  0  0  0  0  0  0  0  0  0  0  0  0
    9.1701    2.3372   -0.8372 C   0  0  0  0  0  0  0  0  0  0  0  0
   10.3424    1.6179   -0.7711 C   0  0  0  0  0  0  0  0  0  0  0  0
   11.5556    2.1632   -0.0883 C   0  0  0  0  0  0  0  0  0  0  0  0
   10.3606    0.3642   -1.3655 C   0  0  0  0  0  0  0  0  0  0  0  0
    9.2331   -0.1275   -1.9956 C   0  0  0  0  0  0  0  0  0  0  0  0
    9.3480   -1.7185   -2.7157 Cl  0  0  0  0  0  0  0  0  0  0  0  0
    2.8651   -0.3200   -0.7003 C   0  0  0  0  0  0  0  0  0  0  0  0
    1.9217   -0.1005    0.3127 C   0  0  0  0  0  0  0  0  0  0  0  0
   -3.0844   -1.1460    2.6852 C   0  0  0  0  0  0  0  0  0  0  0  0
   -3.1615   -2.7150    2.8510 C   0  0  0  0  0  0  0  0  0  0  0  0
   -4.1642   -1.8041    3.4021 C   0  0  0  0  0  0  0  0  0  0  0  0
   -6.1861   -0.7035   -0.8886 C   0  0  0  0  0  0  0  0  0  0  0  0
   -6.0495    2.8223   -3.8155 H   0  0  0  0  0  0  0  0  0  0  0  0
   -5.8651    1.6255   -2.5455 H   0  0  0  0  0  0  0  0  0  0  0  0
   -7.0243    3.0360   -2.3712 H   0  0  0  0  0  0  0  0  0  0  0  0
   -8.5963    1.9044   -3.6498 H   0  0  0  0  0  0  0  0  0  0  0  0
   -8.1877   -0.4126   -4.4631 H   0  0  0  0  0  0  0  0  0  0  0  0
   -6.6019   -0.2716   -3.7139 H   0  0  0  0  0  0  0  0  0  0  0  0
   -9.2414   -0.2000   -2.1064 H   0  0  0  0  0  0  0  0  0  0  0  0
   -8.0511   -1.5750   -2.3604 H   0  0  0  0  0  0  0  0  0  0  0  0
   -8.5597    1.6746   -0.6350 H   0  0  0  0  0  0  0  0  0  0  0  0
   -7.0750    2.3570    1.2371 H   0  0  0  0  0  0  0  0  0  0  0  0
   -3.6834   -1.2874   -0.6261 H   0  0  0  0  0  0  0  0  0  0  0  0
   -4.4744   -2.1758    0.6931 H   0  0  0  0  0  0  0  0  0  0  0  0
   -0.1989    0.9589    0.7026 H   0  0  0  0  0  0  0  0  0  0  0  0
   -0.5268    2.4067    2.3263 H   0  0  0  0  0  0  0  0  0  0  0  0
   -1.9616    1.5743    2.8811 H   0  0  0  0  0  0  0  0  0  0  0  0
   -0.3150    1.7701    4.5680 H   0  0  0  0  0  0  0  0  0  0  0  0
    1.7951    0.9815    3.2379 H   0  0  0  0  0  0  0  0  0  0  0  0
    1.3576    0.1363    4.7445 H   0  0  0  0  0  0  0  0  0  0  0  0
    1.6704   -1.4817    2.9537 H   0  0  0  0  0  0  0  0  0  0  0  0
    0.1106   -1.5094    3.7948 H   0  0  0  0  0  0  0  0  0  0  0  0
   -0.6826   -1.7013    1.6884 H   0  0  0  0  0  0  0  0  0  0  0  0
    0.3885   -3.0571    0.2384 H   0  0  0  0  0  0  0  0  0  0  0  0
    2.0346   -3.4507   -1.5313 H   0  0  0  0  0  0  0  0  0  0  0  0
    4.3786   -0.0834   -3.2975 H   0  0  0  0  0  0  0  0  0  0  0  0
    5.1861   -1.5962   -3.8126 H   0  0  0  0  0  0  0  0  0  0  0  0
    6.4616   -1.6067   -1.7041 H   0  0  0  0  0  0  0  0  0  0  0  0
    5.6743   -0.1255   -1.1074 H   0  0  0  0  0  0  0  0  0  0  0  0
    9.1012    3.3193   -0.3908 H   0  0  0  0  0  0  0  0  0  0  0  0
   11.5656    1.8324    0.9742 H   0  0  0  0  0  0  0  0  0  0  0  0
   11.5361    3.2679   -0.1990 H   0  0  0  0  0  0  0  0  0  0  0  0
   12.4291    1.7964   -0.6647 H   0  0  0  0  0  0  0  0  0  0  0  0
   11.2899   -0.1936   -1.3088 H   0  0  0  0  0  0  0  0  0  0  0  0
    3.5058    0.5120   -0.9066 H   0  0  0  0  0  0  0  0  0  0  0  0
    1.8826    0.8449    0.8408 H   0  0  0  0  0  0  0  0  0  0  0  0
   -2.2153   -0.7407    3.2428 H   0  0  0  0  0  0  0  0  0  0  0  0
   -2.3507   -3.1563    3.4671 H   0  0  0  0  0  0  0  0  0  0  0  0
   -3.3576   -3.2879    1.9363 H   0  0  0  0  0  0  0  0  0  0  0  0
   -4.1793   -1.6858    4.5124 H   0  0  0  0  0  0  0  0  0  0  0  0
   -5.1905   -1.9210    3.0012 H   0  0  0  0  0  0  0  0  0  0  0  0
   -5.9019   -1.5594   -1.4548 H   0  0  0  0  0  0  0  0  0  0  0  0
  1  2  1  0
  2  3  1  0
  3  4  1  0
  4  5  1  0
  5  6  2  0
  6  7  1  0
  7  8  2  0
  8  9  1  0
  8 10  1  0
 10 11  1  0
 11 12  1  0
 12 13  1  0
 13 14  2  0
 13 15  1  0
 15 16  1  0
 16 17  1  0
 17 18  1  0
 18 19  1  0
 19 20  1  0
 20 21  1  0
 21 22  2  0
 22 23  1  0
 23 24  2  0
 24 25  1  0
 25 26  1  0
 26 27  1  0
 27 28  1  0
 28 29  1  0
 29 30  2  0
 30 31  1  0
 30 32  1  0
 32 33  2  0
 33 34  1  0
 33 35  1  0
 35 36  2  0
 36 37  1  0
 24 38  1  0
 38 39  2  0
 12 40  1  0
 40 41  1  0
 41 42  1  0
 10 43  2  0
 43  5  1  0
 20 15  1  0
 39 21  1  0
 42 40  1  0
 36 29  1  0
  1 44  1  0
  1 45  1  0
  1 46  1  0
  2 47  1  0
  3 48  1  0
  3 49  1  0
  4 50  1  0
  4 51  1  0
  6 52  1  0
  7 53  1  0
 11 54  1  0
 11 55  1  0
 15 56  1  6
 16 57  1  0
 16 58  1  0
 17 59  1  0
 18 60  1  0
 18 61  1  0
 19 62  1  0
 19 63  1  0
 20 64  1  1
 22 65  1  0
 23 66  1  0
 26 67  1  0
 26 68  1  0
 27 69  1  0
 27 70  1  0
 32 71  1  0
 34 72  1  0
 34 73  1  0
 34 74  1  0
 35 75  1  0
 38 76  1  0
 39 77  1  0
 40 78  1  0
 41 79  1  0
 41 80  1  0
 42 81  1  0
 42 82  1  0
 43 83  1  0
M  END
$$$$
