@<TRIPOS>MOLECULE
*****
 83 87 0 0 0
SMALL
GASTEIGER

@<TRIPOS>ATOM
      1 C          -6.6390    2.2261   -3.0345 C.3     1  UNL1       -0.0158
      2 N          -7.6404    1.5016   -3.7422 N.3     1  UNL1       -0.3187
      3 C          -7.6837    0.0940   -3.5951 C.3     1  UNL1       -0.0004
      4 C          -8.1615   -0.4476   -2.2880 C.3     1  UNL1       -0.0151
      5 C          -7.3087   -0.0108   -1.1740 C.ar    1  UNL1       -0.0458
      6 C          -7.6697    1.1145   -0.4198 C.ar    1  UNL1       -0.0571
      7 C          -6.8450    1.4821    0.6110 C.ar    1  UNL1       -0.0428
      8 C          -5.6800    0.7776    0.9209 C.ar    1  UNL1        0.0457
      9 CL         -4.6923    1.3464    2.2752 Cl      1  UNL1       -0.0832
     10 C          -5.3529   -0.3112    0.1731 C.ar    1  UNL1       -0.0116
     11 C          -4.1712   -1.1231    0.3968 C.3     1  UNL1        0.0414
     12 N          -3.1314   -0.7502    1.2883 N.am    1  UNL1       -0.2938
     13 C          -2.0543    0.0368    0.7861 C.2     1  UNL1        0.2210
     14 O          -2.2174    0.4271   -0.4412 O.2     1  UNL1       -0.2752
     15 C          -0.8181    0.4151    1.5076 C.3     1  UNL1        0.0550
     16 C          -0.9184    1.3599    2.6079 C.3     1  UNL1        0.0076
     17 N          -0.2280    1.0738    3.8340 N.3     1  UNL1       -0.3152
     18 C           1.0127    0.3931    3.7124 C.3     1  UNL1       -0.0035
     19 C           0.7063   -0.9214    3.0454 C.3     1  UNL1       -0.0329
     20 C           0.0134   -0.8218    1.7488 C.3     1  UNL1       -0.0024
     21 C           1.0167   -1.0643    0.6752 C.ar    1  UNL1       -0.0432
     22 C           1.0983   -2.2613   -0.0238 C.ar    1  UNL1       -0.0548
     23 C           1.9947   -2.5063   -1.0043 C.ar    1  UNL1       -0.0197
     24 C           2.9109   -1.5187   -1.3646 C.ar    1  UNL1        0.1207
     25 O           3.8040   -1.7855   -2.3568 O.3     1  UNL1       -0.4886
     26 C           4.8186   -1.0381   -2.9043 C.3     1  UNL1        0.1235
     27 C           5.9481   -0.6563   -2.0111 C.3     1  UNL1        0.1236
     28 O           6.9320    0.1136   -2.6864 O.3     1  UNL1       -0.4857
     29 C           8.0651    0.5962   -2.0582 C.ar    1  UNL1        0.1571
     30 C           8.0390    1.8541   -1.4647 C.ar    1  UNL1        0.0842
     31 CL          6.5741    2.8157   -1.5177 Cl      1  UNL1       -0.0797
     32 C           9.1701    2.3372   -0.8372 C.ar    1  UNL1       -0.0368
     33 C          10.3424    1.6179   -0.7711 C.ar    1  UNL1       -0.0475
     34 C          11.5556    2.1632   -0.0883 C.3     1  UNL1       -0.0396
     35 C          10.3606    0.3642   -1.3655 C.ar    1  UNL1       -0.0368
     36 C           9.2331   -0.1275   -1.9956 C.ar    1  UNL1        0.0842
     37 CL          9.3480   -1.7185   -2.7157 Cl      1  UNL1       -0.0797
     38 C           2.8651   -0.3200   -0.7003 C.ar    1  UNL1       -0.0197
     39 C           1.9217   -0.1005    0.3127 C.ar    1  UNL1       -0.0548
     40 C          -3.0844   -1.1460    2.6852 C.3     1  UNL1        0.0265
     41 C          -3.1615   -2.7150    2.8510 C.3     1  UNL1       -0.0326
     42 C          -4.1642   -1.8041    3.4021 C.3     1  UNL1       -0.0326
     43 C          -6.1861   -0.7035   -0.8886 C.ar    1  UNL1       -0.0525
     44 H          -6.0495    2.8223   -3.8155 H       1  UNL1        0.0388
     45 H          -5.8651    1.6255   -2.5455 H       1  UNL1        0.0388
     46 H          -7.0243    3.0360   -2.3712 H       1  UNL1        0.0388
     47 H          -8.5963    1.9044   -3.6498 H       1  UNL1        0.1216
     48 H          -8.1877   -0.4126   -4.4631 H       1  UNL1        0.0427
     49 H          -6.6019   -0.2716   -3.7139 H       1  UNL1        0.0427
     50 H          -9.2414   -0.2000   -2.1064 H       1  UNL1        0.0325
     51 H          -8.0511   -1.5750   -2.3604 H       1  UNL1        0.0325
     52 H          -8.5597    1.6746   -0.6350 H       1  UNL1        0.0621
     53 H          -7.0750    2.3570    1.2371 H       1  UNL1        0.0632
     54 H          -3.6834   -1.2874   -0.6261 H       1  UNL1        0.0514
     55 H          -4.4744   -2.1758    0.6931 H       1  UNL1        0.0514
     56 H          -0.1989    0.9589    0.7026 H       1  UNL1        0.0413
     57 H          -0.5268    2.4067    2.3263 H       1  UNL1        0.0432
     58 H          -1.9616    1.5743    2.8811 H       1  UNL1        0.0432
     59 H          -0.3150    1.7701    4.5680 H       1  UNL1        0.1220
     60 H           1.7951    0.9815    3.2379 H       1  UNL1        0.0424
     61 H           1.3576    0.1363    4.7445 H       1  UNL1        0.0424
     62 H           1.6704   -1.4817    2.9537 H       1  UNL1        0.0283
     63 H           0.1106   -1.5094    3.7948 H       1  UNL1        0.0283
     64 H          -0.6826   -1.7013    1.6884 H       1  UNL1        0.0357
     65 H           0.3885   -3.0571    0.2384 H       1  UNL1        0.0622
     66 H           2.0346   -3.4507   -1.5313 H       1  UNL1        0.0654
     67 H           4.3786   -0.0834   -3.2975 H       1  UNL1        0.0731
     68 H           5.1861   -1.5962   -3.8126 H       1  UNL1        0.0731
     69 H           6.4616   -1.6067   -1.7041 H       1  UNL1        0.0731
     70 H           5.6743   -0.1255   -1.1074 H       1  UNL1        0.0731
     71 H           9.1012    3.3193   -0.3908 H       1  UNL1        0.0636
     72 H          11.5656    1.8324    0.9742 H       1  UNL1        0.0278
     73 H          11.5361    3.2679   -0.1990 H       1  UNL1        0.0278
     74 H          12.4291    1.7964   -0.6647 H       1  UNL1        0.0278
     75 H          11.2899   -0.1936   -1.3088 H       1  UNL1        0.0636
     76 H           3.5058    0.5120   -0.9066 H       1  UNL1        0.0654
     77 H           1.8826    0.8449    0.8408 H       1  UNL1        0.0622
     78 H          -2.2153   -0.7407    3.2428 H       1  UNL1        0.0500
     79 H          -2.3507   -3.1563    3.4671 H       1  UNL1        0.0284
     80 H          -3.3576   -3.2879    1.9363 H       1  UNL1        0.0284
     81 H          -4.1793   -1.6858    4.5124 H       1  UNL1        0.0284
     82 H          -5.1905   -1.9210    3.0012 H       1  UNL1        0.0284
     83 H          -5.9019   -1.5594   -1.4548 H       1  UNL1        0.0624
@<TRIPOS>BOND
     1     1     2    1
     2     2     3    1
     3     3     4    1
     4     4     5    1
     5     5     6   ar
     6     6     7   ar
     7     7     8   ar
     8     8     9    1
     9     8    10   ar
    10    10    11    1
    11    11    12    1
    12    12    13   am
    13    13    14    2
    14    13    15    1
    15    15    16    1
    16    16    17    1
    17    17    18    1
    18    18    19    1
    19    19    20    1
    20    20    21    1
    21    21    22   ar
    22    22    23   ar
    23    23    24   ar
    24    24    25    1
    25    25    26    1
    26    26    27    1
    27    27    28    1
    28    28    29    1
    29    29    30   ar
    30    30    31    1
    31    30    32   ar
    32    32    33   ar
    33    33    34    1
    34    33    35   ar
    35    35    36   ar
    36    36    37    1
    37    24    38   ar
    38    38    39   ar
    39    12    40    1
    40    40    41    1
    41    41    42    1
    42    10    43   ar
    43    43     5   ar
    44    20    15    1
    45    39    21   ar
    46    42    40    1
    47    36    29   ar
    48     1    44    1
    49     1    45    1
    50     1    46    1
    51     2    47    1
    52     3    48    1
    53     3    49    1
    54     4    50    1
    55     4    51    1
    56     6    52    1
    57     7    53    1
    58    11    54    1
    59    11    55    1
    60    15    56    1
    61    16    57    1
    62    16    58    1
    63    17    59    1
    64    18    60    1
    65    18    61    1
    66    19    62    1
    67    19    63    1
    68    20    64    1
    69    22    65    1
    70    23    66    1
    71    26    67    1
    72    26    68    1
    73    27    69    1
    74    27    70    1
    75    32    71    1
    76    34    72    1
    77    34    73    1
    78    34    74    1
    79    35    75    1
    80    38    76    1
    81    39    77    1
    82    40    78    1
    83    41    79    1
    84    41    80    1
    85    42    81    1
    86    42    82    1
    87    43    83    1
