@<TRIPOS>MOLECULE
*****
 31 33 0 0 0
SMALL
GASTEIGER

@<TRIPOS>ATOM
      1 O           5.2480    1.7320   -0.8806 O.2     1  UNL1       -0.2492
      2 C           4.2540    0.9770   -0.6991 C.2     1  UNL1        0.3228
      3 O           3.0250    1.3956   -1.1486 O.3     1  UNL1       -0.4795
      4 C           4.4166   -0.3297   -0.0159 C.3     1  UNL1        0.1212
      5 N           3.1223   -0.9853    0.0571 N.am    1  UNL1       -0.2069
      6 C           2.6057   -1.8577   -0.9241 C.2     1  UNL1        0.3101
      7 O           3.1883   -2.1961   -2.0051 O.2     1  UNL1       -0.2645
      8 C           1.2923   -2.2854   -0.4570 C.2     1  UNL1        0.3099
      9 O           0.5718   -3.0815   -1.1296 O.2     1  UNL1       -0.2645
     10 N           1.0228   -1.6756    0.7930 N.am    1  UNL1       -0.2113
     11 C          -0.1698   -1.8637    1.5485 C.3     1  UNL1        0.0728
     12 C          -1.2000   -0.8302    1.1577 C.ar    1  UNL1        0.0974
     13 N          -2.1120   -0.7887    0.2949 N.ar    1  UNL1       -0.2409
     14 C          -2.9126    0.2170    0.1115 C.ar    1  UNL1        0.0968
     15 C          -3.9517    0.3436   -0.8244 C.ar    1  UNL1        0.0674
     16 CL         -4.3000   -0.9878   -1.9517 Cl      1  UNL1       -0.0813
     17 C          -4.7158    1.4743   -0.8983 C.ar    1  UNL1       -0.0413
     18 C          -4.5260    2.5525   -0.0751 C.ar    1  UNL1       -0.0592
     19 C          -3.5037    2.4639    0.8670 C.ar    1  UNL1       -0.0458
     20 C          -2.7368    1.3096    0.9296 C.ar    1  UNL1        0.0407
     21 S          -1.3741    0.7608    1.9304 S.2     1  UNL1       -0.0705
     22 C           2.1451   -0.8744    1.1148 C.2     1  UNL1        0.3190
     23 O           2.3558   -0.1539    2.1184 O.2     1  UNL1       -0.2515
     24 H           2.8458    2.3829   -1.2073 H       1  UNL1        0.2951
     25 H           5.1297   -0.9732   -0.6004 H       1  UNL1        0.0585
     26 H           4.8770   -0.2079    0.9802 H       1  UNL1        0.0585
     27 H          -0.0283   -1.8688    2.6480 H       1  UNL1        0.0540
     28 H          -0.6601   -2.8326    1.3020 H       1  UNL1        0.0540
     29 H          -5.5265    1.5084   -1.6667 H       1  UNL1        0.0633
     30 H          -5.1198    3.4372   -0.1289 H       1  UNL1        0.0618
     31 H          -3.2626    3.2376    1.5597 H       1  UNL1        0.0629
@<TRIPOS>BOND
     1     1     2    2
     2     2     3    1
     3     2     4    1
     4     4     5    1
     5     5     6   am
     6     6     7    2
     7     6     8    1
     8     8     9    2
     9     8    10   am
    10    10    11    1
    11    11    12    1
    12    12    13   ar
    13    13    14   ar
    14    14    15   ar
    15    15    16    1
    16    15    17   ar
    17    17    18   ar
    18    18    19   ar
    19    19    20   ar
    20    20    21   ar
    21    10    22   am
    22    22    23    2
    23    22     5   am
    24    21    12   ar
    25    20    14   ar
    26     3    24    1
    27     4    25    1
    28     4    26    1
    29    11    27    1
    30    11    28    1
    31    17    29    1
    32    18    30    1
    33    19    31    1
