
     RDKit          3D

 31 33  0  0  0  0  0  0  0  0999 V2000
    5.2480    1.7320   -0.8806 O   0  0  0  0  0  0  0  0  0  0  0  0
    4.2540    0.9770   -0.6991 C   0  0  0  0  0  0  0  0  0  0  0  0
    3.0250    1.3956   -1.1486 O   0  0  0  0  0  0  0  0  0  0  0  0
    4.4166   -0.3297   -0.0159 C   0  0  0  0  0  0  0  0  0  0  0  0
    3.1223   -0.9853    0.0571 N   0  0  0  0  0  0  0  0  0  0  0  0
    2.6057   -1.8577   -0.9241 C   0  0  0  0  0  0  0  0  0  0  0  0
    3.1883   -2.1961   -2.0051 O   0  0  0  0  0  0  0  0  0  0  0  0
    1.2923   -2.2854   -0.4570 C   0  0  0  0  0  0  0  0  0  0  0  0
    0.5718   -3.0815   -1.1296 O   0  0  0  0  0  0  0  0  0  0  0  0
    1.0228   -1.6756    0.7930 N   0  0  0  0  0  0  0  0  0  0  0  0
   -0.1698   -1.8637    1.5485 C   0  0  0  0  0  0  0  0  0  0  0  0
   -1.2000   -0.8302    1.1577 C   0  0  0  0  0  0  0  0  0  0  0  0
   -2.1120   -0.7887    0.2949 N   0  0  0  0  0  0  0  0  0  0  0  0
   -2.9126    0.2170    0.1115 C   0  0  0  0  0  0  0  0  0  0  0  0
   -3.9517    0.3436   -0.8244 C   0  0  0  0  0  0  0  0  0  0  0  0
   -4.3000   -0.9878   -1.9517 Cl  0  0  0  0  0  0  0  0  0  0  0  0
   -4.7158    1.4743   -0.8983 C   0  0  0  0  0  0  0  0  0  0  0  0
   -4.5260    2.5525   -0.0751 C   0  0  0  0  0  0  0  0  0  0  0  0
   -3.5037    2.4639    0.8670 C   0  0  0  0  0  0  0  0  0  0  0  0
   -2.7368    1.3096    0.9296 C   0  0  0  0  0  0  0  0  0  0  0  0
   -1.3741    0.7608    1.9304 S   0  0  0  0  0  0  0  0  0  0  0  0
    2.1451   -0.8744    1.1148 C   0  0  0  0  0  0  0  0  0  0  0  0
    2.3558   -0.1539    2.1184 O   0  0  0  0  0  0  0  0  0  0  0  0
    2.8458    2.3829   -1.2073 H   0  0  0  0  0  0  0  0  0  0  0  0
    5.1297   -0.9732   -0.6004 H   0  0  0  0  0  0  0  0  0  0  0  0
    4.8770   -0.2079    0.9802 H   0  0  0  0  0  0  0  0  0  0  0  0
   -0.0283   -1.8688    2.6480 H   0  0  0  0  0  0  0  0  0  0  0  0
   -0.6601   -2.8326    1.3020 H   0  0  0  0  0  0  0  0  0  0  0  0
   -5.5265    1.5084   -1.6667 H   0  0  0  0  0  0  0  0  0  0  0  0
   -5.1198    3.4372   -0.1289 H   0  0  0  0  0  0  0  0  0  0  0  0
   -3.2626    3.2376    1.5597 H   0  0  0  0  0  0  0  0  0  0  0  0
  1  2  2  0
  2  3  1  0
  2  4  1  0
  4  5  1  0
  5  6  1  0
  6  7  2  0
  6  8  1  0
  8  9  2  0
  8 10  1  0
 10 11  1  0
 11 12  1  0
 12 13  2  0
 13 14  1  0
 14 15  2  0
 15 16  1  0
 15 17  1  0
 17 18  2  0
 18 19  1  0
 19 20  2  0
 20 21  1  0
 10 22  1  0
 22 23  2  0
 22  5  1  0
 21 12  1  0
 20 14  1  0
  3 24  1  0
  4 25  1  0
  4 26  1  0
 11 27  1  0
 11 28  1  0
 17 29  1  0
 18 30  1  0
 19 31  1  0
M  END
$$$$
