@<TRIPOS>MOLECULE
*****
 44 47 0 0 0
SMALL
GASTEIGER

@<TRIPOS>ATOM
      1 C           8.0970    0.3368   -0.4843 C.3     1  UNL1       -0.0453
      2 C           6.6133    0.5656   -0.5615 C.3     1  UNL1        0.0681
      3 S           5.8355   -0.3220    0.7576 S.O2    1  UNL1       -0.0033
      4 O           6.1042   -1.7922    0.6374 O.2     1  UNL1       -0.1694
      5 O           6.3221    0.2009    2.0907 O.2     1  UNL1       -0.1694
      6 C           4.1054   -0.0769    0.6973 C.ar    1  UNL1        0.0902
      7 C           3.5352    0.9793    1.3850 C.ar    1  UNL1       -0.0347
      8 C           2.1862    1.1909    1.3528 C.ar    1  UNL1       -0.0324
      9 C           1.3856    0.3366    0.6230 C.ar    1  UNL1        0.0896
     10 N           0.0535    0.2798    0.3985 N.ar    1  UNL1       -0.2276
     11 C          -0.2672   -0.7671   -0.4050 C.ar    1  UNL1        0.1420
     12 C          -1.6371   -1.0667   -0.8109 C.ar    1  UNL1        0.0530
     13 C          -2.6882   -0.2690   -0.3769 C.ar    1  UNL1       -0.0406
     14 C          -4.0045   -0.4919   -0.7195 C.ar    1  UNL1       -0.0170
     15 C          -5.0704    0.3794   -0.2338 C.ar    1  UNL1       -0.0179
     16 C          -6.2236    0.6408   -0.9385 C.ar    1  UNL1       -0.0540
     17 C          -7.2163    1.4793   -0.4379 C.ar    1  UNL1       -0.0612
     18 C          -7.0635    2.0811    0.8044 C.ar    1  UNL1       -0.0617
     19 C          -5.9181    1.8271    1.5143 C.ar    1  UNL1       -0.0612
     20 C          -4.9431    0.9943    1.0060 C.ar    1  UNL1       -0.0540
     21 C          -4.2963   -1.5668   -1.5392 C.ar    1  UNL1       -0.0513
     22 C          -3.2872   -2.3845   -1.9934 C.ar    1  UNL1       -0.0252
     23 C          -1.9597   -2.1224   -1.6208 C.ar    1  UNL1        0.1340
     24 F          -0.9622   -2.9308   -2.0697 F       1  UNL1       -0.2047
     25 N           0.8845   -1.3725   -0.6857 N.ar    1  UNL1       -0.3378
     26 C           1.9151   -0.7332   -0.0802 C.ar    1  UNL1        0.0683
     27 C           3.2802   -0.9133   -0.0229 C.ar    1  UNL1       -0.0114
     28 H           8.6372    1.2546   -0.1594 H       1  UNL1        0.0245
     29 H           8.3286   -0.4802    0.2175 H       1  UNL1        0.0245
     30 H           8.5312    0.0210   -1.4728 H       1  UNL1        0.0245
     31 H           6.1799    0.1856   -1.5096 H       1  UNL1        0.0501
     32 H           6.3293    1.6336   -0.4642 H       1  UNL1        0.0501
     33 H           4.2208    1.6302    1.9515 H       1  UNL1        0.0637
     34 H           1.7301    2.0017    1.8782 H       1  UNL1        0.0640
     35 H          -2.4748    0.5626    0.2555 H       1  UNL1        0.0632
     36 H          -6.3649    0.1846   -1.9063 H       1  UNL1        0.0624
     37 H          -8.1241    1.6901   -0.9834 H       1  UNL1        0.0618
     38 H          -7.8167    2.7285    1.2043 H       1  UNL1        0.0618
     39 H          -5.8166    2.3104    2.4901 H       1  UNL1        0.0618
     40 H          -4.0404    0.7873    1.5532 H       1  UNL1        0.0624
     41 H          -5.3272   -1.7785   -1.8345 H       1  UNL1        0.0624
     42 H          -3.4542   -3.2375   -2.6348 H       1  UNL1        0.0646
     43 H           0.9999   -2.2234   -1.2870 H       1  UNL1        0.1674
     44 H           3.6815   -1.7529   -0.5767 H       1  UNL1        0.0658
@<TRIPOS>BOND
     1     1     2    1
     2     2     3    1
     3     3     4    2
     4     3     5    2
     5     3     6    1
     6     6     7   ar
     7     7     8   ar
     8     8     9   ar
     9     9    10   ar
    10    10    11   ar
    11    11    12    1
    12    12    13   ar
    13    13    14   ar
    14    14    15    1
    15    15    16   ar
    16    16    17   ar
    17    17    18   ar
    18    18    19   ar
    19    19    20   ar
    20    14    21   ar
    21    21    22   ar
    22    22    23   ar
    23    23    24    1
    24    11    25   ar
    25    25    26   ar
    26    26    27   ar
    27    27     6   ar
    28    26     9   ar
    29    23    12   ar
    30    20    15   ar
    31     1    28    1
    32     1    29    1
    33     1    30    1
    34     2    31    1
    35     2    32    1
    36     7    33    1
    37     8    34    1
    38    13    35    1
    39    16    36    1
    40    17    37    1
    41    18    38    1
    42    19    39    1
    43    20    40    1
    44    21    41    1
    45    22    42    1
    46    25    43    1
    47    27    44    1
