@<TRIPOS>MOLECULE
*****
 32 33 0 0 0
SMALL
GASTEIGER

@<TRIPOS>ATOM
      1 O           5.7776   -1.0603   -0.5715 O.2     1  UNL1       -0.2687
      2 C           5.3222   -0.2695    0.2853 C.2     1  UNL1        0.2593
      3 C           3.8823   -0.0246    0.4202 C.2     1  UNL1        0.0027
      4 C           2.9934   -0.6214   -0.3487 C.2     1  UNL1       -0.0496
      5 C           1.5556   -0.4282   -0.2724 C.ar    1  UNL1       -0.0248
      6 C           0.7603   -1.1405   -1.1585 C.ar    1  UNL1       -0.0540
      7 C          -0.6085   -1.0198   -1.1579 C.ar    1  UNL1       -0.0535
      8 C          -1.2250   -0.1830   -0.2711 C.ar    1  UNL1       -0.0178
      9 C          -2.6547   -0.0057   -0.2110 C.ar    1  UNL1       -0.0177
     10 C          -3.5463   -0.9967   -0.5066 C.ar    1  UNL1       -0.0506
     11 C          -4.9254   -0.8386   -0.4532 C.ar    1  UNL1       -0.0196
     12 C          -5.3900    0.4229   -0.0703 C.ar    1  UNL1        0.1169
     13 O          -6.7673    0.5802   -0.0170 O.3     1  UNL1       -0.5068
     14 C          -4.5181    1.4454    0.2351 C.ar    1  UNL1       -0.0196
     15 C          -3.1542    1.2467    0.1694 C.ar    1  UNL1       -0.0506
     16 C          -0.4222    0.5183    0.6031 C.ar    1  UNL1       -0.0535
     17 C           0.9555    0.4054    0.6122 C.ar    1  UNL1       -0.0540
     18 N           6.2465    0.3918    1.1324 N.am    1  UNL1       -0.1940
     19 O           7.5972    0.1987    1.0472 O.3     1  UNL1       -0.2949
     20 H           3.5457    0.6659    1.1736 H       1  UNL1        0.0670
     21 H           3.4286   -1.3108   -1.0914 H       1  UNL1        0.0625
     22 H           1.2209   -1.8139   -1.8764 H       1  UNL1        0.0624
     23 H          -1.1668   -1.6021   -1.8736 H       1  UNL1        0.0624
     24 H          -3.1439   -1.9565   -0.7977 H       1  UNL1        0.0625
     25 H          -5.6069   -1.6512   -0.6952 H       1  UNL1        0.0654
     26 H          -7.2577    0.2485    0.8151 H       1  UNL1        0.2921
     27 H          -4.9397    2.4119    0.5292 H       1  UNL1        0.0654
     28 H          -2.4853    2.0661    0.4141 H       1  UNL1        0.0625
     29 H          -0.8403    1.2027    1.3378 H       1  UNL1        0.0624
     30 H           1.5623    0.9739    1.3161 H       1  UNL1        0.0624
     31 H           5.8390    1.0502    1.8425 H       1  UNL1        0.1825
     32 H           7.9649    1.0939    0.7969 H       1  UNL1        0.2414
@<TRIPOS>BOND
     1     1     2    2
     2     2     3    1
     3     3     4    2
     4     4     5    1
     5     5     6   ar
     6     6     7   ar
     7     7     8   ar
     8     8     9    1
     9     9    10   ar
    10    10    11   ar
    11    11    12   ar
    12    12    13    1
    13    12    14   ar
    14    14    15   ar
    15     8    16   ar
    16    16    17   ar
    17     2    18   am
    18    18    19    1
    19    17     5   ar
    20    15     9   ar
    21     3    20    1
    22     4    21    1
    23     6    22    1
    24     7    23    1
    25    10    24    1
    26    11    25    1
    27    13    26    1
    28    14    27    1
    29    15    28    1
    30    16    29    1
    31    17    30    1
    32    18    31    1
    33    19    32    1
