@<TRIPOS>MOLECULE
*****
 14 14 0 0 0
SMALL
GASTEIGER

@<TRIPOS>ATOM
      1 N           1.9381   -0.0547    0.3808 N.3     1  UNL1       -0.3183
      2 C           0.5465    0.3000    0.4134 C.3     1  UNL1        0.1065
      3 C          -0.3854   -0.8710    0.1767 C.3     1  UNL1        0.0071
      4 C          -1.6744   -0.0911   -0.0737 C.3     1  UNL1        0.0944
      5 O          -1.2113    0.9458   -0.8842 O.3     1  UNL1       -0.4635
      6 C           0.1562    1.1595   -0.7546 C.2     1  UNL1        0.3242
      7 O           0.8786    1.9124   -1.4725 O.2     1  UNL1       -0.2491
      8 H           2.1662   -0.9997    0.7286 H       1  UNL1        0.1190
      9 H           2.4493    0.2212   -0.4732 H       1  UNL1        0.1190
     10 H           0.2214    0.7982    1.3304 H       1  UNL1        0.0575
     11 H          -0.1406   -1.4243   -0.7641 H       1  UNL1        0.0318
     12 H          -0.4722   -1.5307    1.0460 H       1  UNL1        0.0318
     13 H          -2.4572   -0.7116   -0.5418 H       1  UNL1        0.0698
     14 H          -2.0152    0.3461    0.8883 H       1  UNL1        0.0698
@<TRIPOS>BOND
     1     1     2    1
     2     2     3    1
     3     3     4    1
     4     4     5    1
     5     5     6    1
     6     6     7    2
     7     6     2    1
     8     1     8    1
     9     1     9    1
    10     2    10    1
    11     3    11    1
    12     3    12    1
    13     4    13    1
    14     4    14    1
