@<TRIPOS>MOLECULE
*****
 67 72 0 0 0
SMALL
GASTEIGER

@<TRIPOS>ATOM
      1 O           4.5160   -0.2011   -2.6046 O.2     1  UNL1       -0.2700
      2 C           4.1417   -0.2151   -1.4037 C.2     1  UNL1        0.2468
      3 C           2.7197   -0.3114   -1.1322 C.ar    1  UNL1        0.0381
      4 C           1.7885    0.5335   -1.6993 C.ar    1  UNL1       -0.0411
      5 C           0.4149    0.4142   -1.4167 C.ar    1  UNL1        0.0166
      6 C          -0.4993    1.3496   -2.0643 C.3     1  UNL1        0.0522
      7 C          -1.0219    0.8619   -3.3817 C.3     1  UNL1       -0.0287
      8 C          -2.5298    0.8096   -3.2543 C.3     1  UNL1       -0.0352
      9 C          -2.7606    1.8430   -2.1669 C.3     1  UNL1        0.0129
     10 N          -1.6138    1.8059   -1.2917 N.pl3   1  UNL1       -0.3225
     11 C          -1.6735    2.1837    0.0877 C.ar    1  UNL1        0.0356
     12 C          -2.8589    2.4262    0.7424 C.ar    1  UNL1       -0.0052
     13 C          -2.9108    2.8031    2.0790 C.ar    1  UNL1        0.1279
     14 F          -4.1197    3.0211    2.6416 F       1  UNL1       -0.2053
     15 C          -1.7243    2.9351    2.7614 C.ar    1  UNL1        0.0089
     16 C          -0.5059    2.7006    2.1399 C.ar    1  UNL1        0.1279
     17 F           0.6721    2.8307    2.8148 F       1  UNL1       -0.2053
     18 C          -0.4933    2.3291    0.8149 C.ar    1  UNL1       -0.0052
     19 C           0.0163   -0.5716   -0.5553 C.ar    1  UNL1        0.1458
     20 O          -1.2758   -0.6775   -0.2950 O.2     1  UNL1       -0.4407
     21 C          -1.7296   -1.6120    0.5325 C.ar    1  UNL1        0.1931
     22 N          -3.1143   -1.7394    0.8228 N.pl3   1  UNL1       -0.2969
     23 C          -4.1230   -0.8848    0.2294 C.3     1  UNL1        0.0383
     24 C          -5.3126   -1.6601   -0.2262 C.3     1  UNL1        0.0635
     25 O          -5.4570   -2.8947    0.4008 O.3     1  UNL1       -0.3767
     26 C          -5.0809   -2.7255    1.7537 C.3     1  UNL1        0.0635
     27 C          -3.5685   -2.7528    1.7498 C.3     1  UNL1        0.0383
     28 C          -0.8437   -2.4846    1.1294 C.ar    1  UNL1        0.0434
     29 C           0.5134   -2.4210    0.8948 C.ar    1  UNL1        0.1944
     30 O           1.3562   -3.1855    1.4083 O.2     1  UNL1       -0.2870
     31 C           0.9481   -1.4425    0.0336 C.ar    1  UNL1        0.0651
     32 C           2.2909   -1.2956   -0.2675 C.ar    1  UNL1       -0.0352
     33 N           5.1246   -0.1365   -0.3878 N.am    1  UNL1       -0.2932
     34 C           4.7931   -0.1465    1.0296 C.3     1  UNL1        0.0385
     35 C           5.8126    0.7810    1.6975 C.3     1  UNL1        0.0635
     36 O           7.0649    0.2231    1.6135 O.3     1  UNL1       -0.3767
     37 C           7.2923   -0.5457    0.5021 C.3     1  UNL1        0.0635
     38 C           6.5321   -0.0396   -0.7218 C.3     1  UNL1        0.0385
     39 H           2.1510    1.2960   -2.3711 H       1  UNL1        0.0629
     40 H           0.0766    2.3063   -2.3256 H       1  UNL1        0.0551
     41 H          -0.7266    1.4921   -4.2484 H       1  UNL1        0.0287
     42 H          -0.6879   -0.1646   -3.6348 H       1  UNL1        0.0287
     43 H          -3.0284    1.1036   -4.1959 H       1  UNL1        0.0281
     44 H          -2.9109   -0.1613   -2.9369 H       1  UNL1        0.0281
     45 H          -2.6827    2.8375   -2.7019 H       1  UNL1        0.0464
     46 H          -3.7268    1.7358   -1.6838 H       1  UNL1        0.0464
     47 H          -3.8106    2.3225    0.2033 H       1  UNL1        0.0665
     48 H          -1.7370    3.2234    3.7877 H       1  UNL1        0.0675
     49 H           0.4556    2.1439    0.2919 H       1  UNL1        0.0665
     50 H          -3.6609   -0.4323   -0.6782 H       1  UNL1        0.0487
     51 H          -4.3818   -0.0300    0.8894 H       1  UNL1        0.0487
     52 H          -6.2164   -1.0412    0.0427 H       1  UNL1        0.0575
     53 H          -5.3553   -1.7419   -1.3290 H       1  UNL1        0.0575
     54 H          -5.4572   -3.5942    2.3131 H       1  UNL1        0.0575
     55 H          -5.4917   -1.7884    2.1654 H       1  UNL1        0.0575
     56 H          -3.2749   -3.7781    1.4315 H       1  UNL1        0.0487
     57 H          -3.1788   -2.5189    2.7732 H       1  UNL1        0.0487
     58 H          -1.2620   -3.2317    1.7993 H       1  UNL1        0.0707
     59 H           2.9711   -1.9702    0.1936 H       1  UNL1        0.0633
     60 H           4.9819   -1.1561    1.4713 H       1  UNL1        0.0487
     61 H           3.8045    0.2554    1.2395 H       1  UNL1        0.0487
     62 H           5.7264    1.7894    1.2521 H       1  UNL1        0.0575
     63 H           5.5125    0.8518    2.7530 H       1  UNL1        0.0575
     64 H           8.3773   -0.4216    0.2339 H       1  UNL1        0.0575
     65 H           7.1395   -1.6295    0.6598 H       1  UNL1        0.0575
     66 H           6.7924    1.0368   -0.8220 H       1  UNL1        0.0487
     67 H           6.8207   -0.6420   -1.5835 H       1  UNL1        0.0487
@<TRIPOS>BOND
     1     1     2    2
     2     2     3    1
     3     3     4   ar
     4     4     5   ar
     5     5     6    1
     6     6     7    1
     7     7     8    1
     8     8     9    1
     9     9    10    1
    10    10    11    1
    11    11    12   ar
    12    12    13   ar
    13    13    14    1
    14    13    15   ar
    15    15    16   ar
    16    16    17    1
    17    16    18   ar
    18     5    19   ar
    19    19    20   ar
    20    20    21   ar
    21    21    22    1
    22    22    23    1
    23    23    24    1
    24    24    25    1
    25    25    26    1
    26    26    27    1
    27    21    28   ar
    28    28    29   ar
    29    29    30    2
    30    29    31   ar
    31    31    32   ar
    32     2    33   am
    33    33    34    1
    34    34    35    1
    35    35    36    1
    36    36    37    1
    37    37    38    1
    38    32     3   ar
    39    38    33    1
    40    10     6    1
    41    18    11   ar
    42    31    19   ar
    43    27    22    1
    44     4    39    1
    45     6    40    1
    46     7    41    1
    47     7    42    1
    48     8    43    1
    49     8    44    1
    50     9    45    1
    51     9    46    1
    52    12    47    1
    53    15    48    1
    54    18    49    1
    55    23    50    1
    56    23    51    1
    57    24    52    1
    58    24    53    1
    59    26    54    1
    60    26    55    1
    61    27    56    1
    62    27    57    1
    63    28    58    1
    64    32    59    1
    65    34    60    1
    66    34    61    1
    67    35    62    1
    68    35    63    1
    69    37    64    1
    70    37    65    1
    71    38    66    1
    72    38    67    1
