
     RDKit          3D

 52 55  0  0  0  0  0  0  0  0999 V2000
    1.3868   -2.3889    3.1704 C   0  0  0  0  0  0  0  0  0  0  0  0
    1.3405   -1.2787    2.2390 N   0  0  0  0  0  0  0  0  0  0  0  0
    2.3428   -0.3902    2.1461 C   0  0  0  0  0  0  0  0  0  0  0  0
    3.3346   -0.5286    2.8812 O   0  0  0  0  0  0  0  0  0  0  0  0
    2.3229    0.6526    1.2861 N   0  0  0  0  0  0  0  0  0  0  0  0
    3.3846    1.6314    1.1571 C   0  0  0  0  0  0  0  0  0  0  0  0
    4.4109    1.2706    0.1646 C   0  0  0  0  0  0  0  0  0  0  0  0
    5.4967    0.5348    0.6059 C   0  0  0  0  0  0  0  0  0  0  0  0
    6.5118    0.1457   -0.2400 C   0  0  0  0  0  0  0  0  0  0  0  0
    6.4665    0.4908   -1.5828 C   0  0  0  0  0  0  0  0  0  0  0  0
    5.3865    1.2215   -2.0167 C   0  0  0  0  0  0  0  0  0  0  0  0
    4.3609    1.6163   -1.1693 C   0  0  0  0  0  0  0  0  0  0  0  0
    7.5317    0.0960   -2.5275 C   0  0  0  0  0  0  0  0  0  0  0  0
    8.6069   -0.6340   -2.0841 O   0  0  0  0  0  0  0  0  0  0  0  0
    7.5562    0.3692   -3.7380 O   0  0  0  0  0  0  0  0  0  0  0  0
    1.2212    0.7777    0.4928 C   0  0  0  0  0  0  0  0  0  0  0  0
    1.0808    1.7110   -0.3538 O   0  0  0  0  0  0  0  0  0  0  0  0
    0.1913   -0.1343    0.5876 C   0  0  0  0  0  0  0  0  0  0  0  0
    0.2329   -1.2000    1.4798 C   0  0  0  0  0  0  0  0  0  0  0  0
   -0.7920   -2.1339    1.5955 C   0  0  0  0  0  0  0  0  0  0  0  0
   -1.9024   -1.9946    0.7853 C   0  0  0  0  0  0  0  0  0  0  0  0
   -1.9272   -0.9407   -0.0868 C   0  0  0  0  0  0  0  0  0  0  0  0
   -0.9230   -0.0051   -0.2168 C   0  0  0  0  0  0  0  0  0  0  0  0
   -3.0749   -0.7783   -0.9393 C   0  0  0  0  0  0  0  0  0  0  0  0
   -4.0458   -0.6276   -1.6414 C   0  0  0  0  0  0  0  0  0  0  0  0
   -5.2259   -0.4245   -2.5099 C   0  0  0  0  0  0  0  0  0  0  0  0
   -6.3332    0.2032   -1.7138 C   0  0  0  0  0  0  0  0  0  0  0  0
   -7.2555   -0.5766   -1.0463 C   0  0  0  0  0  0  0  0  0  0  0  0
   -8.2806   -0.0189   -0.3092 C   0  0  0  0  0  0  0  0  0  0  0  0
   -8.3491    1.3386   -0.2643 C   0  0  0  0  0  0  0  0  0  0  0  0
   -7.4388    2.1434   -0.9232 C   0  0  0  0  0  0  0  0  0  0  0  0
   -6.4100    1.5989   -1.6630 C   0  0  0  0  0  0  0  0  0  0  0  0
    2.3888   -2.4707    3.6388 H   0  0  0  0  0  0  0  0  0  0  0  0
    0.5774   -2.2644    3.9205 H   0  0  0  0  0  0  0  0  0  0  0  0
    1.2437   -3.3530    2.6101 H   0  0  0  0  0  0  0  0  0  0  0  0
    2.8825    2.6007    0.9163 H   0  0  0  0  0  0  0  0  0  0  0  0
    3.8209    1.7649    2.1753 H   0  0  0  0  0  0  0  0  0  0  0  0
    5.6739    0.1896    1.6263 H   0  0  0  0  0  0  0  0  0  0  0  0
    7.3819   -0.4282    0.0476 H   0  0  0  0  0  0  0  0  0  0  0  0
    5.3575    1.4894   -3.0745 H   0  0  0  0  0  0  0  0  0  0  0  0
    3.5216    2.1892   -1.5279 H   0  0  0  0  0  0  0  0  0  0  0  0
    9.5613   -0.4132   -2.3947 H   0  0  0  0  0  0  0  0  0  0  0  0
   -0.7311   -2.9462    2.2939 H   0  0  0  0  0  0  0  0  0  0  0  0
   -2.7455   -2.6724    0.8069 H   0  0  0  0  0  0  0  0  0  0  0  0
   -0.9935    0.8179   -0.9301 H   0  0  0  0  0  0  0  0  0  0  0  0
   -5.6060   -1.3751   -2.9205 H   0  0  0  0  0  0  0  0  0  0  0  0
   -4.8946    0.2473   -3.3263 H   0  0  0  0  0  0  0  0  0  0  0  0
   -7.2086   -1.6703   -1.0765 H   0  0  0  0  0  0  0  0  0  0  0  0
   -8.9918   -0.6552    0.2056 H   0  0  0  0  0  0  0  0  0  0  0  0
   -9.1646    1.7559    0.3221 H   0  0  0  0  0  0  0  0  0  0  0  0
   -7.5774    3.1992   -0.8268 H   0  0  0  0  0  0  0  0  0  0  0  0
   -5.7048    2.2482   -2.1735 H   0  0  0  0  0  0  0  0  0  0  0  0
  1  2  1  0
  2  3  1  0
  3  4  2  0
  3  5  1  0
  5  6  1  0
  6  7  1  0
  7  8  2  0
  8  9  1  0
  9 10  2  0
 10 11  1  0
 11 12  2  0
 10 13  1  0
 13 14  1  0
 13 15  2  0
  5 16  1  0
 16 17  2  0
 16 18  1  0
 18 19  2  0
 19 20  1  0
 20 21  2  0
 21 22  1  0
 22 23  2  0
 22 24  1  0
 24 25  3  0
 25 26  1  0
 26 27  1  0
 27 28  2  0
 28 29  1  0
 29 30  2  0
 30 31  1  0
 31 32  2  0
 19  2  1  0
 32 27  1  0
 12  7  1  0
 23 18  1  0
  1 33  1  0
  1 34  1  0
  1 35  1  0
  6 36  1  0
  6 37  1  0
  8 38  1  0
  9 39  1  0
 11 40  1  0
 12 41  1  0
 14 42  1  0
 20 43  1  0
 21 44  1  0
 23 45  1  0
 26 46  1  0
 26 47  1  0
 28 48  1  0
 29 49  1  0
 30 50  1  0
 31 51  1  0
 32 52  1  0
M  END
$$$$
