@<TRIPOS>MOLECULE
*****
 41 44 0 0 0
SMALL
GASTEIGER

@<TRIPOS>ATOM
      1 C           3.0372    0.7093    1.3464 C.3     1  UNL1       -0.0127
      2 N           3.2021   -0.5181    0.6414 N.3     1  UNL1       -0.3047
      3 C           3.2287   -0.4035   -0.7692 C.3     1  UNL1        0.0023
      4 C           1.9239    0.2499   -1.3059 C.3     1  UNL1       -0.0180
      5 C           0.7302   -0.3796   -0.7369 C.2     1  UNL1       -0.0588
      6 C          -0.4257    0.1441   -0.6419 C.2     1  UNL1       -0.0100
      7 C          -1.5182   -0.6893   -0.0390 C.ar    1  UNL1       -0.0137
      8 C          -1.5344   -1.9494   -0.6102 C.ar    1  UNL1       -0.0537
      9 C          -2.4647   -2.8435   -0.1894 C.ar    1  UNL1       -0.0612
     10 C          -3.3647   -2.4631    0.7943 C.ar    1  UNL1       -0.0615
     11 C          -3.3181   -1.1746    1.3484 C.ar    1  UNL1       -0.0576
     12 C          -2.3828   -0.2494    0.9380 C.ar    1  UNL1       -0.0322
     13 C          -2.5641    1.0212    1.6439 C.3     1  UNL1        0.0367
     14 C          -2.0905    2.2292    1.0341 C.2     1  UNL1        0.1745
     15 O          -2.3043    3.2827    1.6830 O.2     1  UNL1       -0.2911
     16 C          -1.3832    2.4766   -0.2408 C.ar    1  UNL1        0.0626
     17 S          -1.3028    3.9429   -1.0954 S.2     1  UNL1       -0.0931
     18 C          -0.3003    3.3737   -2.4812 C.ar    1  UNL1       -0.0231
     19 C          -0.1124    2.0863   -2.1609 C.ar    1  UNL1       -0.0463
     20 C          -0.6457    1.5940   -1.0298 C.ar    1  UNL1        0.0002
     21 C           1.1509   -1.6532   -0.1394 C.3     1  UNL1       -0.0180
     22 C           2.2037   -1.4518    0.9878 C.3     1  UNL1        0.0023
     23 H           3.3830    0.5775    2.3916 H       1  UNL1        0.0391
     24 H           3.6401    1.5252    0.9062 H       1  UNL1        0.0391
     25 H           1.9547    0.9871    1.3255 H       1  UNL1        0.0391
     26 H           3.3683   -1.3322   -1.3150 H       1  UNL1        0.0429
     27 H           4.0182    0.3247   -1.0506 H       1  UNL1        0.0429
     28 H           1.9628    1.3384   -1.1137 H       1  UNL1        0.0323
     29 H           2.1065    0.1160   -2.3768 H       1  UNL1        0.0323
     30 H          -0.7804   -2.1166   -1.4006 H       1  UNL1        0.0624
     31 H          -2.4747   -3.8246   -0.6336 H       1  UNL1        0.0618
     32 H          -4.1068   -3.1902    1.1239 H       1  UNL1        0.0618
     33 H          -4.0495   -0.9668    2.1001 H       1  UNL1        0.0621
     34 H          -2.0675    0.9055    2.6517 H       1  UNL1        0.0394
     35 H          -3.6531    1.1213    1.8754 H       1  UNL1        0.0394
     36 H           0.0127    3.9856   -3.3008 H       1  UNL1        0.0694
     37 H           0.4736    1.4452   -2.8807 H       1  UNL1        0.0629
     38 H           1.6666   -2.3286   -0.8323 H       1  UNL1        0.0323
     39 H           0.3931   -2.1740    0.4927 H       1  UNL1        0.0323
     40 H           2.6684   -2.4518    1.0913 H       1  UNL1        0.0429
     41 H           1.7191   -1.2756    1.9685 H       1  UNL1        0.0429
@<TRIPOS>BOND
     1     1     2    1
     2     2     3    1
     3     3     4    1
     4     4     5    1
     5     5     6    2
     6     6     7    1
     7     7     8   ar
     8     8     9   ar
     9     9    10   ar
    10    10    11   ar
    11    11    12   ar
    12    12    13    1
    13    13    14    1
    14    14    15    2
    15    14    16    1
    16    16    17   ar
    17    17    18   ar
    18    18    19   ar
    19    19    20   ar
    20     5    21    1
    21    21    22    1
    22    22     2    1
    23    20     6    1
    24    12     7   ar
    25    20    16   ar
    26     1    23    1
    27     1    24    1
    28     1    25    1
    29     3    26    1
    30     3    27    1
    31     4    28    1
    32     4    29    1
    33     8    30    1
    34     9    31    1
    35    10    32    1
    36    11    33    1
    37    13    34    1
    38    13    35    1
    39    18    36    1
    40    19    37    1
    41    21    38    1
    42    21    39    1
    43    22    40    1
    44    22    41    1
