
     RDKit          3D

 77 79  0  0  0  0  0  0  0  0999 V2000
    7.4805    1.9751   -1.6424 C   0  0  0  0  0  0  0  0  0  0  0  0
    6.2706    2.1516   -0.7207 C   0  0  0  0  0  0  0  0  0  0  0  0
    5.0705    2.4844   -1.5706 C   0  0  0  0  0  0  0  0  0  0  0  0
    4.6931    1.4404   -2.5519 C   0  0  0  0  0  0  0  0  0  0  0  0
    4.2028    0.1364   -2.0525 C   0  0  0  0  0  0  0  0  0  0  0  0
    2.9052    0.2305   -1.3337 N   0  0  0  0  0  0  0  0  0  0  0  0
    2.9498    0.3690    0.0659 C   0  0  0  0  0  0  0  0  0  0  0  0
    2.9751   -1.0494    0.6677 C   0  0  0  0  0  0  0  0  0  0  0  0
    3.0029   -1.0441    2.1583 C   0  0  0  0  0  0  0  0  0  0  0  0
    4.2181   -0.3382    2.6904 C   0  0  0  0  0  0  0  0  0  0  0  0
    4.1302   -0.4092    4.2045 C   0  0  0  0  0  0  0  0  0  0  0  0
    1.7669    0.1371   -2.1349 C   0  0  0  0  0  0  0  0  0  0  0  0
    2.0189   -0.0568   -3.4429 O   0  0  0  0  0  0  0  0  0  0  0  0
    0.4025    0.2081   -1.8327 N   0  0  0  0  0  0  0  0  0  0  0  0
   -0.5299    0.0392   -2.9826 C   0  0  0  0  0  0  0  0  0  0  0  0
   -1.6198   -0.9058   -2.6279 C   0  0  0  0  0  0  0  0  0  0  0  0
   -2.2686   -0.5260   -1.3558 N   0  0  0  0  0  0  0  0  0  0  0  0
   -3.5308   -1.1026   -1.1408 C   0  0  0  0  0  0  0  0  0  0  0  0
   -3.9993   -1.8613   -2.1345 O   0  0  0  0  0  0  0  0  0  0  0  0
   -4.4265   -1.0516   -0.0861 N   0  0  0  0  0  0  0  0  0  0  0  0
   -4.2016   -0.4082    1.1388 C   0  0  0  0  0  0  0  0  0  0  0  0
   -3.6719   -1.2179    2.1615 C   0  0  0  0  0  0  0  0  0  0  0  0
   -3.4296   -0.7216    3.4252 C   0  0  0  0  0  0  0  0  0  0  0  0
   -3.7051    0.5919    3.7137 C   0  0  0  0  0  0  0  0  0  0  0  0
   -4.2235    1.3996    2.7276 C   0  0  0  0  0  0  0  0  0  0  0  0
   -4.4615    0.8870    1.4621 C   0  0  0  0  0  0  0  0  0  0  0  0
   -5.7407   -1.6915   -0.2007 C   0  0  0  0  0  0  0  0  0  0  0  0
   -6.7858   -0.9500   -0.6940 C   0  0  0  0  0  0  0  0  0  0  0  0
   -8.0576   -1.4517   -0.8440 C   0  0  0  0  0  0  0  0  0  0  0  0
   -8.2809   -2.7583   -0.4799 C   0  0  0  0  0  0  0  0  0  0  0  0
   -7.2438   -3.5198    0.0170 C   0  0  0  0  0  0  0  0  0  0  0  0
   -7.5960   -5.3325    0.5098 Br  0  0  0  0  0  0  0  0  0  0  0  0
   -5.9605   -2.9882    0.1610 C   0  0  0  0  0  0  0  0  0  0  0  0
   -1.6550    0.3843   -0.4620 C   0  0  2  0  0  0  0  0  0  0  0  0
   -2.1076    1.7876   -0.7155 C   0  0  0  0  0  0  0  0  0  0  0  0
   -2.9582    2.0041   -1.5953 O   0  0  0  0  0  0  0  0  0  0  0  0
   -1.5950    2.8349    0.0117 O   0  0  0  0  0  0  0  0  0  0  0  0
   -0.1265    0.4341   -0.5429 C   0  0  0  0  0  0  0  0  0  0  0  0
    8.3868    2.1088   -0.9974 H   0  0  0  0  0  0  0  0  0  0  0  0
    7.4191    2.7564   -2.4113 H   0  0  0  0  0  0  0  0  0  0  0  0
    7.5299    0.9747   -2.0797 H   0  0  0  0  0  0  0  0  0  0  0  0
    6.1178    1.2484   -0.1397 H   0  0  0  0  0  0  0  0  0  0  0  0
    6.4839    3.0024   -0.0570 H   0  0  0  0  0  0  0  0  0  0  0  0
    4.1976    2.7914   -0.9269 H   0  0  0  0  0  0  0  0  0  0  0  0
    5.3679    3.3950   -2.1722 H   0  0  0  0  0  0  0  0  0  0  0  0
    4.0094    1.8383   -3.3580 H   0  0  0  0  0  0  0  0  0  0  0  0
    5.6364    1.2069   -3.1428 H   0  0  0  0  0  0  0  0  0  0  0  0
    4.9686   -0.2727   -1.3582 H   0  0  0  0  0  0  0  0  0  0  0  0
    4.0367   -0.5356   -2.8985 H   0  0  0  0  0  0  0  0  0  0  0  0
    3.9786    0.8017    0.3665 H   0  0  0  0  0  0  0  0  0  0  0  0
    2.1843    1.0080    0.4883 H   0  0  0  0  0  0  0  0  0  0  0  0
    2.1557   -1.6662    0.2763 H   0  0  0  0  0  0  0  0  0  0  0  0
    3.9212   -1.4969    0.2412 H   0  0  0  0  0  0  0  0  0  0  0  0
    2.0766   -0.5603    2.5729 H   0  0  0  0  0  0  0  0  0  0  0  0
    3.0264   -2.0895    2.5448 H   0  0  0  0  0  0  0  0  0  0  0  0
    4.2282    0.7215    2.3490 H   0  0  0  0  0  0  0  0  0  0  0  0
    5.1227   -0.8337    2.3122 H   0  0  0  0  0  0  0  0  0  0  0  0
    4.9498    0.1865    4.6736 H   0  0  0  0  0  0  0  0  0  0  0  0
    3.1216   -0.0523    4.4749 H   0  0  0  0  0  0  0  0  0  0  0  0
    4.1798   -1.4841    4.4786 H   0  0  0  0  0  0  0  0  0  0  0  0
    0.0026   -0.2761   -3.8879 H   0  0  0  0  0  0  0  0  0  0  0  0
   -0.9516    1.0423   -3.1602 H   0  0  0  0  0  0  0  0  0  0  0  0
   -1.1871   -1.9137   -2.4514 H   0  0  0  0  0  0  0  0  0  0  0  0
   -2.4033   -0.9879   -3.3731 H   0  0  0  0  0  0  0  0  0  0  0  0
   -3.4501   -2.2503    1.9561 H   0  0  0  0  0  0  0  0  0  0  0  0
   -3.0226   -1.3240    4.2257 H   0  0  0  0  0  0  0  0  0  0  0  0
   -3.5313    1.0289    4.6972 H   0  0  0  0  0  0  0  0  0  0  0  0
   -4.4369    2.4200    2.9551 H   0  0  0  0  0  0  0  0  0  0  0  0
   -4.8730    1.5144    0.6680 H   0  0  0  0  0  0  0  0  0  0  0  0
   -6.6110    0.0825   -0.9831 H   0  0  0  0  0  0  0  0  0  0  0  0
   -8.8768   -0.8752   -1.2287 H   0  0  0  0  0  0  0  0  0  0  0  0
   -9.2858   -3.1942   -0.5841 H   0  0  0  0  0  0  0  0  0  0  0  0
   -5.1431   -3.5757    0.5496 H   0  0  0  0  0  0  0  0  0  0  0  0
   -1.8611    0.1012    0.5819 H   0  0  0  0  0  0  0  0  0  0  0  0
   -1.8115    3.8189   -0.1514 H   0  0  0  0  0  0  0  0  0  0  0  0
    0.1564    1.4783   -0.2410 H   0  0  0  0  0  0  0  0  0  0  0  0
    0.2757   -0.2483    0.2192 H   0  0  0  0  0  0  0  0  0  0  0  0
  1  2  1  0
  2  3  1  0
  3  4  1  0
  4  5  1  0
  5  6  1  0
  6  7  1  0
  7  8  1  0
  8  9  1  0
  9 10  1  0
 10 11  1  0
  6 12  1  0
 12 13  2  0
 12 14  1  0
 14 15  1  0
 15 16  1  0
 16 17  1  0
 17 18  1  0
 18 19  2  0
 18 20  1  0
 20 21  1  0
 21 22  2  0
 22 23  1  0
 23 24  2  0
 24 25  1  0
 25 26  2  0
 20 27  1  0
 27 28  2  0
 28 29  1  0
 29 30  2  0
 30 31  1  0
 31 32  1  0
 31 33  2  0
 17 34  1  0
 34 35  1  0
 35 36  2  0
 35 37  1  0
 34 38  1  0
 38 14  1  0
 26 21  1  0
 33 27  1  0
  1 39  1  0
  1 40  1  0
  1 41  1  0
  2 42  1  0
  2 43  1  0
  3 44  1  0
  3 45  1  0
  4 46  1  0
  4 47  1  0
  5 48  1  0
  5 49  1  0
  7 50  1  0
  7 51  1  0
  8 52  1  0
  8 53  1  0
  9 54  1  0
  9 55  1  0
 10 56  1  0
 10 57  1  0
 11 58  1  0
 11 59  1  0
 11 60  1  0
 15 61  1  0
 15 62  1  0
 16 63  1  0
 16 64  1  0
 22 65  1  0
 23 66  1  0
 24 67  1  0
 25 68  1  0
 26 69  1  0
 28 70  1  0
 29 71  1  0
 30 72  1  0
 33 73  1  0
 34 74  1  1
 37 75  1  0
 38 76  1  0
 38 77  1  0
M  END
$$$$
