@<TRIPOS>MOLECULE
*****
 77 79 0 0 0
SMALL
GASTEIGER

@<TRIPOS>ATOM
      1 C           7.4805    1.9751   -1.6424 C.3     1  UNL1       -0.0653
      2 C           6.2706    2.1516   -0.7207 C.3     1  UNL1       -0.0559
      3 C           5.0705    2.4844   -1.5706 C.3     1  UNL1       -0.0519
      4 C           4.6931    1.4404   -2.5519 C.3     1  UNL1       -0.0371
      5 C           4.2028    0.1364   -2.0525 C.3     1  UNL1        0.0161
      6 N           2.9052    0.2305   -1.3337 N.am    1  UNL1       -0.2855
      7 C           2.9498    0.3690    0.0659 C.3     1  UNL1        0.0161
      8 C           2.9751   -1.0494    0.6677 C.3     1  UNL1       -0.0371
      9 C           3.0029   -1.0441    2.1583 C.3     1  UNL1       -0.0519
     10 C           4.2181   -0.3382    2.6904 C.3     1  UNL1       -0.0559
     11 C           4.1302   -0.4092    4.2045 C.3     1  UNL1       -0.0653
     12 C           1.7669    0.1371   -2.1349 C.2     1  UNL1        0.3049
     13 O           2.0189   -0.0568   -3.4429 O.2     1  UNL1       -0.2524
     14 N           0.4025    0.2081   -1.8327 N.am    1  UNL1       -0.2817
     15 C          -0.5299    0.0392   -2.9826 C.3     1  UNL1        0.0321
     16 C          -1.6198   -0.9058   -2.6279 C.3     1  UNL1        0.0329
     17 N          -2.2686   -0.5260   -1.3558 N.am    1  UNL1       -0.2684
     18 C          -3.5308   -1.1026   -1.1408 C.2     1  UNL1        0.3143
     19 O          -3.9993   -1.8613   -2.1345 O.2     1  UNL1       -0.2517
     20 N          -4.4265   -1.0516   -0.0861 N.am    1  UNL1       -0.2242
     21 C          -4.2016   -0.4082    1.1388 C.ar    1  UNL1        0.0428
     22 C          -3.6719   -1.2179    2.1615 C.ar    1  UNL1       -0.0399
     23 C          -3.4296   -0.7216    3.4252 C.ar    1  UNL1       -0.0600
     24 C          -3.7051    0.5919    3.7137 C.ar    1  UNL1       -0.0616
     25 C          -4.2235    1.3996    2.7276 C.ar    1  UNL1       -0.0600
     26 C          -4.4615    0.8870    1.4621 C.ar    1  UNL1       -0.0399
     27 C          -5.7407   -1.6915   -0.2007 C.ar    1  UNL1        0.0438
     28 C          -6.7858   -0.9500   -0.6940 C.ar    1  UNL1       -0.0398
     29 C          -8.0576   -1.4517   -0.8440 C.ar    1  UNL1       -0.0589
     30 C          -8.2809   -2.7583   -0.4799 C.ar    1  UNL1       -0.0476
     31 C          -7.2438   -3.5198    0.0170 C.ar    1  UNL1        0.0196
     32 BR         -7.5960   -5.3325    0.5098 Br      1  UNL1       -0.0502
     33 C          -5.9605   -2.9882    0.1610 C.ar    1  UNL1       -0.0259
     34 C          -1.6550    0.3843   -0.4620 C.3     1  UNL1        0.1399
     35 C          -2.1076    1.7876   -0.7155 C.2     1  UNL1        0.3271
     36 O          -2.9582    2.0041   -1.5953 O.2     1  UNL1       -0.2488
     37 O          -1.5950    2.8349    0.0117 O.3     1  UNL1       -0.4793
     38 C          -0.1265    0.4341   -0.5429 C.3     1  UNL1        0.0452
     39 H           8.3868    2.1088   -0.9974 H       1  UNL1        0.0230
     40 H           7.4191    2.7564   -2.4113 H       1  UNL1        0.0230
     41 H           7.5299    0.9747   -2.0797 H       1  UNL1        0.0230
     42 H           6.1178    1.2484   -0.1397 H       1  UNL1        0.0263
     43 H           6.4839    3.0024   -0.0570 H       1  UNL1        0.0263
     44 H           4.1976    2.7914   -0.9269 H       1  UNL1        0.0266
     45 H           5.3679    3.3950   -2.1722 H       1  UNL1        0.0266
     46 H           4.0094    1.8383   -3.3580 H       1  UNL1        0.0280
     47 H           5.6364    1.2069   -3.1428 H       1  UNL1        0.0280
     48 H           4.9686   -0.2727   -1.3582 H       1  UNL1        0.0465
     49 H           4.0367   -0.5356   -2.8985 H       1  UNL1        0.0465
     50 H           3.9786    0.8017    0.3665 H       1  UNL1        0.0465
     51 H           2.1843    1.0080    0.4883 H       1  UNL1        0.0465
     52 H           2.1557   -1.6662    0.2763 H       1  UNL1        0.0280
     53 H           3.9212   -1.4969    0.2412 H       1  UNL1        0.0280
     54 H           2.0766   -0.5603    2.5729 H       1  UNL1        0.0266
     55 H           3.0264   -2.0895    2.5448 H       1  UNL1        0.0266
     56 H           4.2282    0.7215    2.3490 H       1  UNL1        0.0263
     57 H           5.1227   -0.8337    2.3122 H       1  UNL1        0.0263
     58 H           4.9498    0.1865    4.6736 H       1  UNL1        0.0230
     59 H           3.1216   -0.0523    4.4749 H       1  UNL1        0.0230
     60 H           4.1798   -1.4841    4.4786 H       1  UNL1        0.0230
     61 H           0.0026   -0.2761   -3.8879 H       1  UNL1        0.0480
     62 H          -0.9516    1.0423   -3.1602 H       1  UNL1        0.0480
     63 H          -1.1871   -1.9137   -2.4514 H       1  UNL1        0.0481
     64 H          -2.4033   -0.9879   -3.3731 H       1  UNL1        0.0481
     65 H          -3.4501   -2.2503    1.9561 H       1  UNL1        0.0636
     66 H          -3.0226   -1.3240    4.2257 H       1  UNL1        0.0618
     67 H          -3.5313    1.0289    4.6972 H       1  UNL1        0.0618
     68 H          -4.4369    2.4200    2.9551 H       1  UNL1        0.0618
     69 H          -4.8730    1.5144    0.6680 H       1  UNL1        0.0636
     70 H          -6.6110    0.0825   -0.9831 H       1  UNL1        0.0636
     71 H          -8.8768   -0.8752   -1.2287 H       1  UNL1        0.0618
     72 H          -9.2858   -3.1942   -0.5841 H       1  UNL1        0.0629
     73 H          -5.1431   -3.5757    0.5496 H       1  UNL1        0.0647
     74 H          -1.8611    0.1012    0.5819 H       1  UNL1        0.0633
     75 H          -1.8115    3.8189   -0.1514 H       1  UNL1        0.2951
     76 H           0.1564    1.4783   -0.2410 H       1  UNL1        0.0489
     77 H           0.2757   -0.2483    0.2192 H       1  UNL1        0.0489
@<TRIPOS>BOND
     1     1     2    1
     2     2     3    1
     3     3     4    1
     4     4     5    1
     5     5     6    1
     6     6     7    1
     7     7     8    1
     8     8     9    1
     9     9    10    1
    10    10    11    1
    11     6    12   am
    12    12    13    2
    13    12    14   am
    14    14    15    1
    15    15    16    1
    16    16    17    1
    17    17    18   am
    18    18    19    2
    19    18    20   am
    20    20    21    1
    21    21    22   ar
    22    22    23   ar
    23    23    24   ar
    24    24    25   ar
    25    25    26   ar
    26    20    27    1
    27    27    28   ar
    28    28    29   ar
    29    29    30   ar
    30    30    31   ar
    31    31    32    1
    32    31    33   ar
    33    17    34    1
    34    34    35    1
    35    35    36    2
    36    35    37    1
    37    34    38    1
    38    38    14    1
    39    26    21   ar
    40    33    27   ar
    41     1    39    1
    42     1    40    1
    43     1    41    1
    44     2    42    1
    45     2    43    1
    46     3    44    1
    47     3    45    1
    48     4    46    1
    49     4    47    1
    50     5    48    1
    51     5    49    1
    52     7    50    1
    53     7    51    1
    54     8    52    1
    55     8    53    1
    56     9    54    1
    57     9    55    1
    58    10    56    1
    59    10    57    1
    60    11    58    1
    61    11    59    1
    62    11    60    1
    63    15    61    1
    64    15    62    1
    65    16    63    1
    66    16    64    1
    67    22    65    1
    68    23    66    1
    69    24    67    1
    70    25    68    1
    71    26    69    1
    72    28    70    1
    73    29    71    1
    74    30    72    1
    75    33    73    1
    76    34    74    1
    77    37    75    1
    78    38    76    1
    79    38    77    1
