@<TRIPOS>MOLECULE
*****
 48 51 0 0 0
SMALL
GASTEIGER

@<TRIPOS>ATOM
      1 C          -3.4320   -0.5162    3.1569 C.3     1  UNL1       -0.0569
      2 C          -4.0631    0.6246    2.3518 C.3     1  UNL1       -0.0007
      3 C          -2.9565    1.4921    1.8049 C.3     1  UNL1        0.0264
      4 N          -2.5944    0.8435    0.5716 N.am    1  UNL1       -0.2702
      5 C          -1.3469    0.8752   -0.0941 C.2     1  UNL1        0.2271
      6 O          -1.1499    0.2649   -1.1724 O.2     1  UNL1       -0.2748
      7 C          -0.2116    1.6441    0.4702 C.3     1  UNL1        0.0826
      8 C           0.9955    1.5473   -0.3757 C.ar    1  UNL1        0.1206
      9 N           1.8609    0.5684   -0.1519 N.ar    1  UNL1       -0.2186
     10 C           2.9876    0.4498   -0.9156 C.ar    1  UNL1        0.1285
     11 N           3.9198   -0.5931   -0.6852 N.pl3   1  UNL1       -0.3106
     12 C           3.6413   -1.5360    0.3904 C.3     1  UNL1        0.0370
     13 C           4.9096   -1.9730    1.0823 C.3     1  UNL1        0.0634
     14 O           6.0533   -1.6682    0.3842 O.3     1  UNL1       -0.3767
     15 C           5.9513   -1.8201   -0.9813 C.3     1  UNL1        0.0634
     16 C           5.0967   -0.6888   -1.5080 C.3     1  UNL1        0.0370
     17 C           3.2336    1.3501   -1.9278 C.ar    1  UNL1        0.0427
     18 C           2.3247    2.3603   -2.1465 C.ar    1  UNL1        0.2533
     19 O           2.5188    3.2058   -3.0684 O.2     1  UNL1       -0.2677
     20 N           1.2407    2.4207   -1.3626 N.ar    1  UNL1       -0.3104
     21 C          -3.7615    0.1342    0.1199 C.ar    1  UNL1        0.0398
     22 C          -4.0265   -0.3635   -1.1541 C.ar    1  UNL1       -0.0400
     23 C          -5.2253   -1.0115   -1.3561 C.ar    1  UNL1       -0.0600
     24 C          -6.1355   -1.1637   -0.3312 C.ar    1  UNL1       -0.0614
     25 C          -5.8648   -0.6697    0.9205 C.ar    1  UNL1       -0.0565
     26 C          -4.6646   -0.0138    1.1479 C.ar    1  UNL1       -0.0216
     27 H          -4.1643   -1.3682    3.2093 H       1  UNL1        0.0236
     28 H          -3.0719   -0.1913    4.1317 H       1  UNL1        0.0236
     29 H          -2.5933   -0.8876    2.5161 H       1  UNL1        0.0236
     30 H          -4.7993    1.1794    2.9552 H       1  UNL1        0.0362
     31 H          -2.1329    1.5109    2.5457 H       1  UNL1        0.0474
     32 H          -3.3162    2.5302    1.6044 H       1  UNL1        0.0474
     33 H          -0.5039    2.7357    0.4669 H       1  UNL1        0.0438
     34 H          -0.0075    1.3912    1.5338 H       1  UNL1        0.0438
     35 H           3.1284   -2.4042   -0.0631 H       1  UNL1        0.0487
     36 H           2.9373   -1.0872    1.1195 H       1  UNL1        0.0487
     37 H           4.8982   -3.0498    1.3632 H       1  UNL1        0.0575
     38 H           4.9811   -1.4252    2.0676 H       1  UNL1        0.0575
     39 H           6.9654   -1.6868   -1.4098 H       1  UNL1        0.0575
     40 H           5.5598   -2.8140   -1.2751 H       1  UNL1        0.0575
     41 H           4.8499   -0.8027   -2.5795 H       1  UNL1        0.0487
     42 H           5.6647    0.2548   -1.3814 H       1  UNL1        0.0487
     43 H           4.1294    1.2649   -2.5433 H       1  UNL1        0.0706
     44 H           0.5292    3.1815   -1.5065 H       1  UNL1        0.1700
     45 H          -3.2927   -0.2353   -1.9612 H       1  UNL1        0.0636
     46 H          -5.4393   -1.4053   -2.3566 H       1  UNL1        0.0618
     47 H          -7.0796   -1.6900   -0.5458 H       1  UNL1        0.0618
     48 H          -6.5437   -0.7644    1.7503 H       1  UNL1        0.0621
@<TRIPOS>BOND
     1     1     2    1
     2     2     3    1
     3     3     4    1
     4     4     5   am
     5     5     6    2
     6     5     7    1
     7     7     8    1
     8     8     9   ar
     9     9    10   ar
    10    10    11    1
    11    11    12    1
    12    12    13    1
    13    13    14    1
    14    14    15    1
    15    15    16    1
    16    10    17   ar
    17    17    18   ar
    18    18    19    2
    19    18    20   ar
    20     4    21    1
    21    21    22   ar
    22    22    23   ar
    23    23    24   ar
    24    24    25   ar
    25    25    26   ar
    26    26     2    1
    27    20     8   ar
    28    26    21   ar
    29    16    11    1
    30     1    27    1
    31     1    28    1
    32     1    29    1
    33     2    30    1
    34     3    31    1
    35     3    32    1
    36     7    33    1
    37     7    34    1
    38    12    35    1
    39    12    36    1
    40    13    37    1
    41    13    38    1
    42    15    39    1
    43    15    40    1
    44    16    41    1
    45    16    42    1
    46    17    43    1
    47    20    44    1
    48    22    45    1
    49    23    46    1
    50    24    47    1
    51    25    48    1
