
     RDKit          3D

 49 52  0  0  0  0  0  0  0  0999 V2000
    7.8262   -1.6253    0.4795 C   0  0  0  0  0  0  0  0  0  0  0  0
    8.5892   -0.7434   -0.1144 C   0  0  0  0  0  0  0  0  0  0  0  0
    8.1538   -0.0609   -1.3501 C   0  0  0  0  0  0  0  0  0  0  0  0
    6.9019   -0.3905   -1.8290 O   0  0  0  0  0  0  0  0  0  0  0  0
    5.7103   -0.1466   -1.1896 C   0  0  0  0  0  0  0  0  0  0  0  0
    4.5083   -0.5461   -1.7776 C   0  0  0  0  0  0  0  0  0  0  0  0
    3.3575   -0.2929   -1.1353 N   0  0  0  0  0  0  0  0  0  0  0  0
    3.2938    0.3251    0.0456 C   0  0  0  0  0  0  0  0  0  0  0  0
    2.0033    0.5902    0.7300 C   0  0  0  0  0  0  0  0  0  0  0  0
    2.0744    1.1717    1.8227 O   0  0  0  0  0  0  0  0  0  0  0  0
    0.7929    0.1905    0.1426 N   0  0  0  0  0  0  0  0  0  0  0  0
   -0.4749    0.4016    0.7214 C   0  0  0  0  0  0  0  0  0  0  0  0
   -0.7162    1.0195    1.9234 C   0  0  0  0  0  0  0  0  0  0  0  0
   -2.0235    1.1612    2.3766 C   0  0  0  0  0  0  0  0  0  0  0  0
   -3.1116    0.7173    1.6915 C   0  0  0  0  0  0  0  0  0  0  0  0
   -4.3852    0.8493    2.1215 F   0  0  0  0  0  0  0  0  0  0  0  0
   -2.8833    0.0906    0.4742 C   0  0  0  0  0  0  0  0  0  0  0  0
   -4.0540   -0.4367   -0.3113 C   0  0  1  0  0  0  0  0  0  0  0  0
   -3.5237   -1.0713   -1.5716 C   0  0  0  0  0  0  0  0  0  0  0  0
   -4.6088   -1.5991   -2.3062 F   0  0  0  0  0  0  0  0  0  0  0  0
   -2.9213   -0.1271   -2.3982 F   0  0  0  0  0  0  0  0  0  0  0  0
   -4.7183   -1.4316    0.4802 N   0  0  0  0  0  0  0  0  0  0  0  0
   -5.9050   -1.4419    0.9078 C   0  0  0  0  0  0  0  0  0  0  0  0
   -6.4785   -2.4830    1.6927 N   0  0  0  0  0  0  0  0  0  0  0  0
   -6.7247   -0.3626    0.5968 O   0  0  0  0  0  0  0  0  0  0  0  0
   -6.2649    0.7821   -0.0597 C   0  0  2  0  0  0  0  0  0  0  0  0
   -6.0626    0.6527   -1.5821 C   0  0  0  0  0  0  0  0  0  0  0  0
   -4.9383    0.7533   -0.6471 C   0  0  2  0  0  0  0  0  0  0  0  0
   -1.6066   -0.0571    0.0151 C   0  0  0  0  0  0  0  0  0  0  0  0
    4.4886    0.7107    0.6082 C   0  0  0  0  0  0  0  0  0  0  0  0
    5.6402    0.4693   -0.0119 N   0  0  0  0  0  0  0  0  0  0  0  0
    6.8678   -1.8882    0.0992 H   0  0  0  0  0  0  0  0  0  0  0  0
    8.1791   -2.1028    1.3849 H   0  0  0  0  0  0  0  0  0  0  0  0
    9.5907   -0.4841    0.2989 H   0  0  0  0  0  0  0  0  0  0  0  0
    8.1717    1.0461   -1.0924 H   0  0  0  0  0  0  0  0  0  0  0  0
    8.9464   -0.1640   -2.1537 H   0  0  0  0  0  0  0  0  0  0  0  0
    4.5461   -1.0546   -2.7470 H   0  0  0  0  0  0  0  0  0  0  0  0
    0.8805   -0.2960   -0.7923 H   0  0  0  0  0  0  0  0  0  0  0  0
    0.0940    1.3991    2.5256 H   0  0  0  0  0  0  0  0  0  0  0  0
   -2.1624    1.6501    3.3207 H   0  0  0  0  0  0  0  0  0  0  0  0
   -2.8211   -1.8917   -1.4262 H   0  0  0  0  0  0  0  0  0  0  0  0
   -6.9251   -2.1827    2.5918 H   0  0  0  0  0  0  0  0  0  0  0  0
   -6.4769   -3.4740    1.4328 H   0  0  0  0  0  0  0  0  0  0  0  0
   -6.7469    1.7232    0.2610 H   0  0  0  0  0  0  0  0  0  0  0  0
   -6.3432    1.5541   -2.1866 H   0  0  0  0  0  0  0  0  0  0  0  0
   -6.4498   -0.2689   -2.0143 H   0  0  0  0  0  0  0  0  0  0  0  0
   -4.3903    1.7415   -0.6727 H   0  0  0  0  0  0  0  0  0  0  0  0
   -1.3754   -0.5570   -0.9332 H   0  0  0  0  0  0  0  0  0  0  0  0
    4.4759    1.2106    1.5578 H   0  0  0  0  0  0  0  0  0  0  0  0
  1  2  2  3
  2  3  1  0
  3  4  1  0
  4  5  1  0
  5  6  2  0
  6  7  1  0
  7  8  2  0
  8  9  1  0
  9 10  2  0
  9 11  1  0
 11 12  1  0
 12 13  2  0
 13 14  1  0
 14 15  2  0
 15 16  1  0
 15 17  1  0
 17 18  1  0
 18 19  1  6
 19 20  1  0
 19 21  1  0
 18 22  1  0
 22 23  2  0
 23 24  1  0
 23 25  1  0
 25 26  1  0
 26 27  1  0
 27 28  1  0
 17 29  2  0
  8 30  1  0
 30 31  2  0
 31  5  1  0
 29 12  1  0
 28 18  1  0
 28 26  1  0
  1 32  1  0
  1 33  1  0
  2 34  1  0
  3 35  1  0
  3 36  1  0
  6 37  1  0
 11 38  1  0
 13 39  1  0
 14 40  1  0
 19 41  1  0
 24 42  1  0
 24 43  1  0
 26 44  1  6
 27 45  1  0
 27 46  1  0
 28 47  1  6
 29 48  1  0
 30 49  1  0
M  END
$$$$
