@<TRIPOS>MOLECULE
*****
 49 52 0 0 0
SMALL
GASTEIGER

@<TRIPOS>ATOM
      1 C           7.8262   -1.6253    0.4795 C.2     1  UNL1       -0.0995
      2 C           8.5892   -0.7434   -0.1144 C.2     1  UNL1       -0.0542
      3 C           8.1538   -0.0609   -1.3501 C.3     1  UNL1        0.1093
      4 O           6.9019   -0.3905   -1.8290 O.3     1  UNL1       -0.4712
      5 C           5.7103   -0.1466   -1.1896 C.ar    1  UNL1        0.2338
      6 C           4.5083   -0.5461   -1.7776 C.ar    1  UNL1        0.0899
      7 N           3.3575   -0.2929   -1.1353 N.ar    1  UNL1       -0.2435
      8 C           3.2938    0.3251    0.0456 C.ar    1  UNL1        0.1439
      9 C           2.0033    0.5902    0.7300 C.2     1  UNL1        0.2681
     10 O           2.0744    1.1717    1.8227 O.2     1  UNL1       -0.2681
     11 N           0.7929    0.1905    0.1426 N.am    1  UNL1       -0.2802
     12 C          -0.4749    0.4016    0.7214 C.ar    1  UNL1        0.0342
     13 C          -0.7162    1.0195    1.9234 C.ar    1  UNL1       -0.0377
     14 C          -2.0235    1.1612    2.3766 C.ar    1  UNL1       -0.0243
     15 C          -3.1116    0.7173    1.6915 C.ar    1  UNL1        0.1292
     16 F          -4.3852    0.8493    2.1215 F       1  UNL1       -0.2051
     17 C          -2.8833    0.0906    0.4742 C.ar    1  UNL1        0.0228
     18 C          -4.0540   -0.4367   -0.3113 C.3     1  UNL1        0.1603
     19 C          -3.5237   -1.0713   -1.5716 C.3     1  UNL1        0.2686
     20 F          -4.6088   -1.5991   -2.3062 F       1  UNL1       -0.2062
     21 F          -2.9213   -0.1271   -2.3982 F       1  UNL1       -0.2062
     22 N          -4.7183   -1.4316    0.4802 N.2     1  UNL1       -0.2194
     23 C          -5.9050   -1.4419    0.9078 C.2     1  UNL1        0.2764
     24 N          -6.4785   -2.4830    1.6927 N.pl3   1  UNL1       -0.3134
     25 O          -6.7247   -0.3626    0.5968 O.2     1  UNL1       -0.4622
     26 C          -6.2649    0.7821   -0.0597 C.3     1  UNL1        0.1091
     27 C          -6.0626    0.6527   -1.5821 C.3     1  UNL1       -0.0064
     28 C          -4.9383    0.7533   -0.6471 C.3     1  UNL1        0.0344
     29 C          -1.6066   -0.0571    0.0151 C.ar    1  UNL1       -0.0321
     30 C           4.4886    0.7107    0.6082 C.ar    1  UNL1        0.0619
     31 N           5.6402    0.4693   -0.0119 N.ar    1  UNL1       -0.2177
     32 H           6.8678   -1.8882    0.0992 H       1  UNL1        0.0533
     33 H           8.1791   -2.1028    1.3849 H       1  UNL1        0.0533
     34 H           9.5907   -0.4841    0.2989 H       1  UNL1        0.0600
     35 H           8.1717    1.0461   -1.0924 H       1  UNL1        0.0742
     36 H           8.9464   -0.1640   -2.1537 H       1  UNL1        0.0742
     37 H           4.5461   -1.0546   -2.7470 H       1  UNL1        0.0884
     38 H           0.8805   -0.2960   -0.7923 H       1  UNL1        0.1552
     39 H           0.0940    1.3991    2.5256 H       1  UNL1        0.0637
     40 H          -2.1624    1.6501    3.3207 H       1  UNL1        0.0647
     41 H          -2.8211   -1.8917   -1.4262 H       1  UNL1        0.1047
     42 H          -6.9251   -2.1827    2.5918 H       1  UNL1        0.1466
     43 H          -6.4769   -3.4740    1.4328 H       1  UNL1        0.1466
     44 H          -6.7469    1.7232    0.2610 H       1  UNL1        0.0737
     45 H          -6.3432    1.5541   -2.1866 H       1  UNL1        0.0306
     46 H          -6.4498   -0.2689   -2.0143 H       1  UNL1        0.0306
     47 H          -4.3903    1.7415   -0.6727 H       1  UNL1        0.0366
     48 H          -1.3754   -0.5570   -0.9332 H       1  UNL1        0.0640
     49 H           4.4759    1.2106    1.5578 H       1  UNL1        0.0854
@<TRIPOS>BOND
     1     1     2    2
     2     2     3    1
     3     3     4    1
     4     4     5    1
     5     5     6   ar
     6     6     7   ar
     7     7     8   ar
     8     8     9    1
     9     9    10    2
    10     9    11   am
    11    11    12    1
    12    12    13   ar
    13    13    14   ar
    14    14    15   ar
    15    15    16    1
    16    15    17   ar
    17    17    18    1
    18    18    19    1
    19    19    20    1
    20    19    21    1
    21    18    22    1
    22    22    23    2
    23    23    24    1
    24    23    25    1
    25    25    26    1
    26    26    27    1
    27    27    28    1
    28    17    29   ar
    29     8    30   ar
    30    30    31   ar
    31    31     5   ar
    32    29    12   ar
    33    28    18    1
    34    28    26    1
    35     1    32    1
    36     1    33    1
    37     2    34    1
    38     3    35    1
    39     3    36    1
    40     6    37    1
    41    11    38    1
    42    13    39    1
    43    14    40    1
    44    19    41    1
    45    24    42    1
    46    24    43    1
    47    26    44    1
    48    27    45    1
    49    27    46    1
    50    28    47    1
    51    29    48    1
    52    30    49    1
