
     RDKit          3D

 35 38  0  0  0  0  0  0  0  0999 V2000
   -3.8933    1.3833   -0.7509 O   0  0  0  0  0  0  0  0  0  0  0  0
   -3.0601    0.5153   -0.3570 C   0  0  0  0  0  0  0  0  0  0  0  0
   -3.4955   -0.6499    0.2350 C   0  0  0  0  0  0  0  0  0  0  0  0
   -4.7491   -1.1011    0.5086 C   0  0  0  0  0  0  0  0  0  0  0  0
   -4.5936   -2.3103    1.0984 N   0  0  0  0  0  0  0  0  0  0  0  0
   -3.2993   -2.6037    1.1902 N   0  0  0  0  0  0  0  0  0  0  0  0
   -2.5925   -1.5969    0.6651 C   0  0  0  0  0  0  0  0  0  0  0  0
   -1.2560   -1.3399    0.4837 C   0  0  0  0  0  0  0  0  0  0  0  0
   -0.3427   -2.2467    0.8900 N   0  0  0  0  0  0  0  0  0  0  0  0
    0.9701   -2.0238    0.7228 C   0  0  0  0  0  0  0  0  0  0  0  0
    1.3932   -0.8576    0.1297 C   0  0  0  0  0  0  0  0  0  0  0  0
    2.8146   -0.6036   -0.0628 C   0  0  0  0  0  0  0  0  0  0  0  0
    3.3313    0.6283    0.2978 C   0  0  0  0  0  0  0  0  0  0  0  0
    4.6750    0.8843    0.1273 C   0  0  0  0  0  0  0  0  0  0  0  0
    5.4430   -0.1199   -0.4027 C   0  0  0  0  0  0  0  0  0  0  0  0
    4.9379   -1.3151   -0.7519 N   0  0  0  0  0  0  0  0  0  0  0  0
    3.6121   -1.5928   -0.5932 C   0  0  0  0  0  0  0  0  0  0  0  0
    2.9891   -3.1742   -1.0710 Cl  0  0  0  0  0  0  0  0  0  0  0  0
    0.4920    0.0897   -0.2969 C   0  0  0  0  0  0  0  0  0  0  0  0
   -0.8656   -0.1660   -0.1109 C   0  0  0  0  0  0  0  0  0  0  0  0
   -1.7259    0.7550   -0.5295 N   0  0  0  0  0  0  0  0  0  0  0  0
   -1.3631    2.0112   -1.1441 C   0  0  0  0  0  0  0  0  0  0  0  0
   -1.2237    3.1142   -0.1165 C   0  0  0  0  0  0  0  0  0  0  0  0
   -0.2687    2.8506    0.8278 F   0  0  0  0  0  0  0  0  0  0  0  0
   -2.4139    3.3320    0.5556 F   0  0  0  0  0  0  0  0  0  0  0  0
   -0.8889    4.3162   -0.7077 F   0  0  0  0  0  0  0  0  0  0  0  0
   -5.6636   -0.5769    0.2876 H   0  0  0  0  0  0  0  0  0  0  0  0
   -2.9032   -3.4786    1.6054 H   0  0  0  0  0  0  0  0  0  0  0  0
    1.6959   -2.7852    1.0695 H   0  0  0  0  0  0  0  0  0  0  0  0
    2.7060    1.4148    0.7176 H   0  0  0  0  0  0  0  0  0  0  0  0
    5.0693    1.8588    0.4154 H   0  0  0  0  0  0  0  0  0  0  0  0
    6.5034    0.0830   -0.5368 H   0  0  0  0  0  0  0  0  0  0  0  0
    0.7825    1.0086   -0.7665 H   0  0  0  0  0  0  0  0  0  0  0  0
   -0.5539    1.9696   -1.8684 H   0  0  0  0  0  0  0  0  0  0  0  0
   -2.2626    2.3271   -1.7606 H   0  0  0  0  0  0  0  0  0  0  0  0
  1  2  2  0
  2  3  1  0
  3  4  1  0
  4  5  2  0
  5  6  1  0
  6  7  1  0
  7  8  1  0
  8  9  2  0
  9 10  1  0
 10 11  2  0
 11 12  1  0
 12 13  2  0
 13 14  1  0
 14 15  2  0
 15 16  1  0
 16 17  2  0
 17 18  1  0
 11 19  1  0
 19 20  2  0
 20 21  1  0
 21 22  1  0
 22 23  1  0
 23 24  1  0
 23 25  1  0
 23 26  1  0
 21  2  1  0
  7  3  2  0
 20  8  1  0
 17 12  1  0
  4 27  1  0
  6 28  1  0
 10 29  1  0
 13 30  1  0
 14 31  1  0
 15 32  1  0
 19 33  1  0
 22 34  1  0
 22 35  1  0
M  END
$$$$
