@<TRIPOS>MOLECULE
*****
 35 38 0 0 0
SMALL
GASTEIGER

@<TRIPOS>ATOM
      1 O          -3.8933    1.3833   -0.7509 O.2     1  UNL1       -0.2669
      2 C          -3.0601    0.5153   -0.3570 C.ar    1  UNL1        0.2628
      3 C          -3.4955   -0.6499    0.2350 C.ar    1  UNL1        0.0860
      4 C          -4.7491   -1.1011    0.5086 C.ar    1  UNL1        0.0622
      5 N          -4.5936   -2.3103    1.0984 N.ar    1  UNL1       -0.1809
      6 N          -3.2993   -2.6037    1.1902 N.ar    1  UNL1       -0.2747
      7 C          -2.5925   -1.5969    0.6651 C.ar    1  UNL1        0.0982
      8 C          -1.2560   -1.3399    0.4837 C.ar    1  UNL1        0.1128
      9 N          -0.3427   -2.2467    0.8900 N.ar    1  UNL1       -0.2508
     10 C           0.9701   -2.0238    0.7228 C.ar    1  UNL1        0.0362
     11 C           1.3932   -0.8576    0.1297 C.ar    1  UNL1        0.0051
     12 C           2.8146   -0.6036   -0.0628 C.ar    1  UNL1        0.0205
     13 C           3.3313    0.6283    0.2978 C.ar    1  UNL1       -0.0497
     14 C           4.6750    0.8843    0.1273 C.ar    1  UNL1       -0.0429
     15 C           5.4430   -0.1199   -0.4027 C.ar    1  UNL1        0.0293
     16 N           4.9379   -1.3151   -0.7519 N.ar    1  UNL1       -0.2429
     17 C           3.6121   -1.5928   -0.5932 C.ar    1  UNL1        0.1369
     18 CL          2.9891   -3.1742   -1.0710 Cl      1  UNL1       -0.0614
     19 C           0.4920    0.0897   -0.2969 C.ar    1  UNL1       -0.0267
     20 C          -0.8656   -0.1660   -0.1109 C.ar    1  UNL1        0.0733
     21 N          -1.7259    0.7550   -0.5295 N.ar    1  UNL1       -0.2974
     22 C          -1.3631    2.0112   -1.1441 C.3     1  UNL1        0.1219
     23 C          -1.2237    3.1142   -0.1165 C.3     1  UNL1        0.4074
     24 F          -0.2687    2.8506    0.8278 F       1  UNL1       -0.1687
     25 F          -2.4139    3.3320    0.5556 F       1  UNL1       -0.1687
     26 F          -0.8889    4.3162   -0.7077 F       1  UNL1       -0.1687
     27 H          -5.6636   -0.5769    0.2876 H       1  UNL1        0.0856
     28 H          -2.9032   -3.4786    1.6054 H       1  UNL1        0.1890
     29 H           1.6959   -2.7852    1.0695 H       1  UNL1        0.0836
     30 H           2.7060    1.4148    0.7176 H       1  UNL1        0.0625
     31 H           5.0693    1.8588    0.4154 H       1  UNL1        0.0633
     32 H           6.5034    0.0830   -0.5368 H       1  UNL1        0.0830
     33 H           0.7825    1.0086   -0.7665 H       1  UNL1        0.0645
     34 H          -0.5539    1.9696   -1.8684 H       1  UNL1        0.0582
     35 H          -2.2626    2.3271   -1.7606 H       1  UNL1        0.0582
@<TRIPOS>BOND
     1     1     2    2
     2     2     3   ar
     3     3     4   ar
     4     4     5   ar
     5     5     6   ar
     6     6     7   ar
     7     7     8   ar
     8     8     9   ar
     9     9    10   ar
    10    10    11   ar
    11    11    12    1
    12    12    13   ar
    13    13    14   ar
    14    14    15   ar
    15    15    16   ar
    16    16    17   ar
    17    17    18    1
    18    11    19   ar
    19    19    20   ar
    20    20    21   ar
    21    21    22    1
    22    22    23    1
    23    23    24    1
    24    23    25    1
    25    23    26    1
    26    21     2   ar
    27     7     3   ar
    28    20     8   ar
    29    17    12   ar
    30     4    27    1
    31     6    28    1
    32    10    29    1
    33    13    30    1
    34    14    31    1
    35    15    32    1
    36    19    33    1
    37    22    34    1
    38    22    35    1
