@<TRIPOS>MOLECULE
*****
 39 40 0 0 0
SMALL
GASTEIGER

@<TRIPOS>ATOM
      1 C           4.5061   -1.5490    0.0718 C.3     1  UNL1       -0.0653
      2 C           5.0667   -0.1371   -0.1046 C.3     1  UNL1       -0.0559
      3 C           4.2976    0.5087   -1.2293 C.3     1  UNL1       -0.0530
      4 C           2.8306    0.5619   -0.8910 C.3     1  UNL1       -0.0491
      5 C           2.5149    1.3454    0.3494 C.3     1  UNL1       -0.0276
      6 C           1.0333    1.2935    0.5219 C.ar    1  UNL1       -0.0437
      7 C           0.1768    2.2256   -0.0236 C.ar    1  UNL1       -0.0549
      8 C          -1.1890    2.1640    0.1447 C.ar    1  UNL1       -0.0154
      9 C          -1.7780    1.1321    0.8915 C.ar    1  UNL1        0.1696
     10 O          -3.1510    1.1252    1.0239 O.3     1  UNL1       -0.4524
     11 C          -3.9916    0.0980    0.5975 C.ar    1  UNL1        0.1286
     12 C          -4.4108    0.0769   -0.7297 C.ar    1  UNL1       -0.0193
     13 C          -5.2390   -0.9145   -1.1925 C.ar    1  UNL1       -0.0583
     14 C          -5.6726   -1.9161   -0.3376 C.ar    1  UNL1       -0.0615
     15 C          -5.2637   -1.9045    0.9778 C.ar    1  UNL1       -0.0583
     16 C          -4.4398   -0.9087    1.4174 C.ar    1  UNL1       -0.0193
     17 C          -0.9207    0.2060    1.4330 C.ar    1  UNL1        0.1593
     18 O          -1.4428   -0.8301    2.1765 O.3     1  UNL1       -0.5033
     19 C           0.4677    0.2790    1.2550 C.ar    1  UNL1       -0.0133
     20 H           3.5096   -1.5472    0.5193 H       1  UNL1        0.0230
     21 H           5.1766   -2.1403    0.7376 H       1  UNL1        0.0230
     22 H           4.4399   -2.0199   -0.9276 H       1  UNL1        0.0230
     23 H           4.9515    0.3854    0.8547 H       1  UNL1        0.0263
     24 H           6.1422   -0.2599   -0.3712 H       1  UNL1        0.0263
     25 H           4.7201    1.5142   -1.4142 H       1  UNL1        0.0265
     26 H           4.4674   -0.0829   -2.1503 H       1  UNL1        0.0265
     27 H           2.3890   -0.4471   -0.7831 H       1  UNL1        0.0268
     28 H           2.3262    0.9983   -1.7953 H       1  UNL1        0.0268
     29 H           2.8217    2.4040    0.2807 H       1  UNL1        0.0313
     30 H           3.0391    0.9156    1.2247 H       1  UNL1        0.0313
     31 H           0.6392    3.0217   -0.6006 H       1  UNL1        0.0621
     32 H          -1.8508    2.9083   -0.2931 H       1  UNL1        0.0655
     33 H          -4.0591    0.8668   -1.3717 H       1  UNL1        0.0654
     34 H          -5.5348   -0.8789   -2.2437 H       1  UNL1        0.0619
     35 H          -6.3204   -2.6852   -0.7149 H       1  UNL1        0.0618
     36 H          -5.6135   -2.7061    1.6528 H       1  UNL1        0.0619
     37 H          -4.1318   -0.9081    2.4589 H       1  UNL1        0.0654
     38 H          -1.6115   -1.7228    1.7220 H       1  UNL1        0.2923
     39 H           1.1046   -0.4721    1.6995 H       1  UNL1        0.0658
@<TRIPOS>BOND
     1     1     2    1
     2     2     3    1
     3     3     4    1
     4     4     5    1
     5     5     6    1
     6     6     7   ar
     7     7     8   ar
     8     8     9   ar
     9     9    10    1
    10    10    11    1
    11    11    12   ar
    12    12    13   ar
    13    13    14   ar
    14    14    15   ar
    15    15    16   ar
    16     9    17   ar
    17    17    18    1
    18    17    19   ar
    19    19     6   ar
    20    16    11   ar
    21     1    20    1
    22     1    21    1
    23     1    22    1
    24     2    23    1
    25     2    24    1
    26     3    25    1
    27     3    26    1
    28     4    27    1
    29     4    28    1
    30     5    29    1
    31     5    30    1
    32     7    31    1
    33     8    32    1
    34    12    33    1
    35    13    34    1
    36    14    35    1
    37    15    36    1
    38    16    37    1
    39    18    38    1
    40    19    39    1
