@<TRIPOS>MOLECULE
*****
 46 48 0 0 0
SMALL
GASTEIGER

@<TRIPOS>ATOM
      1 C           1.9191    0.7445    3.0767 C.3     1  UNL1       -0.0390
      2 C           2.1444    0.3825    1.6738 C.ar    1  UNL1       -0.0380
      3 C           3.3852    0.4399    1.0647 C.ar    1  UNL1       -0.0182
      4 C           3.5082    0.0737   -0.2584 C.ar    1  UNL1        0.1217
      5 N           4.8139    0.1393   -0.8188 N.pl3   1  UNL1       -0.3213
      6 C           5.6261   -1.0744   -0.8131 C.3     1  UNL1        0.0017
      7 C           5.3573    1.3447   -1.3821 C.3     1  UNL1        0.0017
      8 N           2.4562   -0.3396   -0.9799 N.ar    1  UNL1       -0.2318
      9 C           1.2443   -0.4074   -0.4245 C.ar    1  UNL1        0.0763
     10 C           0.1718   -0.8383   -1.1663 C.ar    1  UNL1       -0.0242
     11 C           0.3542   -1.2155   -2.5915 C.3     1  UNL1       -0.0377
     12 C          -1.0722   -0.9007   -0.5445 C.ar    1  UNL1       -0.0533
     13 C          -1.2725   -0.5563    0.7508 C.ar    1  UNL1       -0.0420
     14 C          -2.5431   -0.6085    1.4939 C.3     1  UNL1        0.0023
     15 C          -3.6735    0.0461    0.7714 C.ar    1  UNL1        0.0146
     16 C          -3.9095    1.4067    0.9377 C.ar    1  UNL1        0.0379
     17 N          -4.8848    1.9786    0.2133 N.ar    1  UNL1       -0.2227
     18 C          -5.6639    1.3365   -0.6718 C.ar    1  UNL1        0.2142
     19 N          -6.6865    1.9982   -1.4230 N.pl3   1  UNL1       -0.3274
     20 N          -5.4473    0.0172   -0.8413 N.ar    1  UNL1       -0.1999
     21 C          -4.4692   -0.6192   -0.1314 C.ar    1  UNL1        0.1247
     22 N          -4.2910   -2.0190   -0.2789 N.pl3   1  UNL1       -0.3428
     23 C          -0.1590   -0.1195    1.4827 C.ar    1  UNL1       -0.0488
     24 C           1.0814   -0.0455    0.9076 C.ar    1  UNL1        0.0039
     25 H           1.4565    1.7375    3.2355 H       1  UNL1        0.0278
     26 H           2.9398    0.8157    3.5564 H       1  UNL1        0.0278
     27 H           1.4123   -0.0586    3.6563 H       1  UNL1        0.0278
     28 H           4.2326    0.7732    1.6511 H       1  UNL1        0.0655
     29 H           4.9977   -1.8972   -1.2524 H       1  UNL1        0.0428
     30 H           5.8582   -1.3166    0.2547 H       1  UNL1        0.0428
     31 H           6.5292   -0.9210   -1.4317 H       1  UNL1        0.0428
     32 H           4.9451    1.5675   -2.4031 H       1  UNL1        0.0428
     33 H           6.4697    1.3003   -1.4618 H       1  UNL1        0.0428
     34 H           5.1338    2.2060   -0.7250 H       1  UNL1        0.0428
     35 H          -0.5617   -1.0042   -3.1876 H       1  UNL1        0.0278
     36 H           0.6451   -2.2681   -2.7417 H       1  UNL1        0.0278
     37 H           1.2033   -0.6028   -3.0005 H       1  UNL1        0.0278
     38 H          -1.9052   -1.2321   -1.1296 H       1  UNL1        0.0624
     39 H          -2.7649   -1.6773    1.6908 H       1  UNL1        0.0363
     40 H          -2.4111   -0.1367    2.4841 H       1  UNL1        0.0363
     41 H          -3.2999    1.9667    1.6469 H       1  UNL1        0.0834
     42 H          -6.7355    1.9724   -2.4535 H       1  UNL1        0.1452
     43 H          -7.4127    2.5329   -0.9049 H       1  UNL1        0.1452
     44 H          -4.3612   -2.4197   -1.2366 H       1  UNL1        0.1437
     45 H          -4.0960   -2.6703    0.5021 H       1  UNL1        0.1437
     46 H          -0.2647    0.1686    2.5275 H       1  UNL1        0.0627
@<TRIPOS>BOND
     1     1     2    1
     2     2     3   ar
     3     3     4   ar
     4     4     5    1
     5     5     6    1
     6     5     7    1
     7     4     8   ar
     8     8     9   ar
     9     9    10   ar
    10    10    11    1
    11    10    12   ar
    12    12    13   ar
    13    13    14    1
    14    14    15    1
    15    15    16   ar
    16    16    17   ar
    17    17    18   ar
    18    18    19    1
    19    18    20   ar
    20    20    21   ar
    21    21    22    1
    22    13    23   ar
    23    23    24   ar
    24    24     2   ar
    25    24     9   ar
    26    21    15   ar
    27     1    25    1
    28     1    26    1
    29     1    27    1
    30     3    28    1
    31     6    29    1
    32     6    30    1
    33     6    31    1
    34     7    32    1
    35     7    33    1
    36     7    34    1
    37    11    35    1
    38    11    36    1
    39    11    37    1
    40    12    38    1
    41    14    39    1
    42    14    40    1
    43    16    41    1
    44    19    42    1
    45    19    43    1
    46    22    44    1
    47    22    45    1
    48    23    46    1
