
     RDKit          3D

 46 48  0  0  0  0  0  0  0  0999 V2000
    1.9191    0.7445    3.0767 C   0  0  0  0  0  0  0  0  0  0  0  0
    2.1444    0.3825    1.6738 C   0  0  0  0  0  0  0  0  0  0  0  0
    3.3852    0.4399    1.0647 C   0  0  0  0  0  0  0  0  0  0  0  0
    3.5082    0.0737   -0.2584 C   0  0  0  0  0  0  0  0  0  0  0  0
    4.8139    0.1393   -0.8188 N   0  0  0  0  0  0  0  0  0  0  0  0
    5.6261   -1.0744   -0.8131 C   0  0  0  0  0  0  0  0  0  0  0  0
    5.3573    1.3447   -1.3821 C   0  0  0  0  0  0  0  0  0  0  0  0
    2.4562   -0.3396   -0.9799 N   0  0  0  0  0  0  0  0  0  0  0  0
    1.2443   -0.4074   -0.4245 C   0  0  0  0  0  0  0  0  0  0  0  0
    0.1718   -0.8383   -1.1663 C   0  0  0  0  0  0  0  0  0  0  0  0
    0.3542   -1.2155   -2.5915 C   0  0  0  0  0  0  0  0  0  0  0  0
   -1.0722   -0.9007   -0.5445 C   0  0  0  0  0  0  0  0  0  0  0  0
   -1.2725   -0.5563    0.7508 C   0  0  0  0  0  0  0  0  0  0  0  0
   -2.5431   -0.6085    1.4939 C   0  0  0  0  0  0  0  0  0  0  0  0
   -3.6735    0.0461    0.7714 C   0  0  0  0  0  0  0  0  0  0  0  0
   -3.9095    1.4067    0.9377 C   0  0  0  0  0  0  0  0  0  0  0  0
   -4.8848    1.9786    0.2133 N   0  0  0  0  0  0  0  0  0  0  0  0
   -5.6639    1.3365   -0.6718 C   0  0  0  0  0  0  0  0  0  0  0  0
   -6.6865    1.9982   -1.4230 N   0  0  0  0  0  0  0  0  0  0  0  0
   -5.4473    0.0172   -0.8413 N   0  0  0  0  0  0  0  0  0  0  0  0
   -4.4692   -0.6192   -0.1314 C   0  0  0  0  0  0  0  0  0  0  0  0
   -4.2910   -2.0190   -0.2789 N   0  0  0  0  0  0  0  0  0  0  0  0
   -0.1590   -0.1195    1.4827 C   0  0  0  0  0  0  0  0  0  0  0  0
    1.0814   -0.0455    0.9076 C   0  0  0  0  0  0  0  0  0  0  0  0
    1.4565    1.7375    3.2355 H   0  0  0  0  0  0  0  0  0  0  0  0
    2.9398    0.8157    3.5564 H   0  0  0  0  0  0  0  0  0  0  0  0
    1.4123   -0.0586    3.6563 H   0  0  0  0  0  0  0  0  0  0  0  0
    4.2326    0.7732    1.6511 H   0  0  0  0  0  0  0  0  0  0  0  0
    4.9977   -1.8972   -1.2524 H   0  0  0  0  0  0  0  0  0  0  0  0
    5.8582   -1.3166    0.2547 H   0  0  0  0  0  0  0  0  0  0  0  0
    6.5292   -0.9210   -1.4317 H   0  0  0  0  0  0  0  0  0  0  0  0
    4.9451    1.5675   -2.4031 H   0  0  0  0  0  0  0  0  0  0  0  0
    6.4697    1.3003   -1.4618 H   0  0  0  0  0  0  0  0  0  0  0  0
    5.1338    2.2060   -0.7250 H   0  0  0  0  0  0  0  0  0  0  0  0
   -0.5617   -1.0042   -3.1876 H   0  0  0  0  0  0  0  0  0  0  0  0
    0.6451   -2.2681   -2.7417 H   0  0  0  0  0  0  0  0  0  0  0  0
    1.2033   -0.6028   -3.0005 H   0  0  0  0  0  0  0  0  0  0  0  0
   -1.9052   -1.2321   -1.1296 H   0  0  0  0  0  0  0  0  0  0  0  0
   -2.7649   -1.6773    1.6908 H   0  0  0  0  0  0  0  0  0  0  0  0
   -2.4111   -0.1367    2.4841 H   0  0  0  0  0  0  0  0  0  0  0  0
   -3.2999    1.9667    1.6469 H   0  0  0  0  0  0  0  0  0  0  0  0
   -6.7355    1.9724   -2.4535 H   0  0  0  0  0  0  0  0  0  0  0  0
   -7.4127    2.5329   -0.9049 H   0  0  0  0  0  0  0  0  0  0  0  0
   -4.3612   -2.4197   -1.2366 H   0  0  0  0  0  0  0  0  0  0  0  0
   -4.0960   -2.6703    0.5021 H   0  0  0  0  0  0  0  0  0  0  0  0
   -0.2647    0.1686    2.5275 H   0  0  0  0  0  0  0  0  0  0  0  0
  1  2  1  0
  2  3  2  0
  3  4  1  0
  4  5  1  0
  5  6  1  0
  5  7  1  0
  4  8  2  0
  8  9  1  0
  9 10  2  0
 10 11  1  0
 10 12  1  0
 12 13  2  0
 13 14  1  0
 14 15  1  0
 15 16  2  0
 16 17  1  0
 17 18  2  0
 18 19  1  0
 18 20  1  0
 20 21  2  0
 21 22  1  0
 13 23  1  0
 23 24  2  0
 24  2  1  0
 24  9  1  0
 21 15  1  0
  1 25  1  0
  1 26  1  0
  1 27  1  0
  3 28  1  0
  6 29  1  0
  6 30  1  0
  6 31  1  0
  7 32  1  0
  7 33  1  0
  7 34  1  0
 11 35  1  0
 11 36  1  0
 11 37  1  0
 12 38  1  0
 14 39  1  0
 14 40  1  0
 16 41  1  0
 19 42  1  0
 19 43  1  0
 22 44  1  0
 22 45  1  0
 23 46  1  0
M  END
$$$$
