@<TRIPOS>MOLECULE
*****
 55 58 0 0 0
SMALL
GASTEIGER

@<TRIPOS>ATOM
      1 C          -2.4726   -2.6031    3.3930 C.3     1  UNL1       -0.0307
      2 C          -1.5697   -1.4172    3.2572 C.3     1  UNL1        0.0868
      3 O          -1.4205   -0.9222    1.9585 O.3     1  UNL1       -0.4912
      4 C          -2.4437   -0.4187    1.1892 C.ar    1  UNL1        0.1392
      5 C          -3.7510   -0.3705    1.7112 C.ar    1  UNL1       -0.0024
      6 C          -4.7705    0.1298    0.9428 C.ar    1  UNL1        0.0167
      7 N          -4.5994    0.5877   -0.3041 N.ar    1  UNL1       -0.2833
      8 C          -5.7010    1.1034   -1.0723 C.ar    1  UNL1        0.0496
      9 C          -6.1812    0.4806   -2.2016 C.ar    1  UNL1       -0.0350
     10 C          -7.2558    1.0155   -2.9210 C.ar    1  UNL1       -0.0245
     11 C          -7.8433    2.1868   -2.4910 C.ar    1  UNL1        0.1235
     12 F          -8.8936    2.6867   -3.2156 F       1  UNL1       -0.2055
     13 C          -7.3737    2.8230   -1.3612 C.ar    1  UNL1       -0.0245
     14 C          -6.2964    2.2673   -0.6580 C.ar    1  UNL1       -0.0350
     15 C          -3.3706    0.5514   -0.8156 C.ar    1  UNL1        0.2715
     16 O          -3.1880    0.9777   -1.9868 O.2     1  UNL1       -0.2664
     17 C          -2.2704    0.0493   -0.0819 C.ar    1  UNL1        0.1431
     18 C          -0.9744    0.0805   -0.7333 C.2     1  UNL1        0.2571
     19 O          -0.9209    0.3581   -1.9873 O.2     1  UNL1       -0.2695
     20 N           0.2427   -0.1670   -0.1055 N.am    1  UNL1       -0.2812
     21 C           1.5516   -0.1582   -0.6868 C.ar    1  UNL1        0.0366
     22 C           2.6320   -0.4419    0.1550 C.ar    1  UNL1       -0.0368
     23 C           3.9233   -0.4559   -0.3158 C.ar    1  UNL1       -0.0147
     24 C           4.2114   -0.1889   -1.6450 C.ar    1  UNL1        0.1636
     25 O           5.4831   -0.1841   -2.1793 O.3     1  UNL1       -0.4515
     26 C           6.6046   -0.3896   -1.4083 C.ar    1  UNL1        0.1516
     27 C           7.3813   -1.4988   -1.6530 C.ar    1  UNL1        0.0004
     28 C           8.5119   -1.6830   -0.8593 C.ar    1  UNL1        0.0333
     29 N           8.7984   -0.7810    0.1046 N.ar    1  UNL1       -0.2390
     30 C           8.0624    0.2978    0.3580 C.ar    1  UNL1        0.1382
     31 N           8.3750    1.2404    1.3762 N.pl3   1  UNL1       -0.3419
     32 C           6.9236    0.5093   -0.4214 C.ar    1  UNL1        0.1225
     33 CL          5.9411    1.9227   -0.1538 Cl      1  UNL1       -0.0762
     34 C           3.1450    0.0888   -2.4669 C.ar    1  UNL1        0.1672
     35 F           3.3755    0.3551   -3.7724 F       1  UNL1       -0.2016
     36 C           1.8366    0.1042   -1.9968 C.ar    1  UNL1       -0.0015
     37 H          -3.2394   -2.4817    4.1851 H       1  UNL1        0.0262
     38 H          -2.9800   -2.9051    2.4601 H       1  UNL1        0.0262
     39 H          -1.8916   -3.5156    3.7226 H       1  UNL1        0.0262
     40 H          -2.0275   -0.6062    3.9013 H       1  UNL1        0.0694
     41 H          -0.5948   -1.6236    3.7525 H       1  UNL1        0.0694
     42 H          -3.8954   -0.7312    2.7215 H       1  UNL1        0.0669
     43 H          -5.7626    0.1528    1.3725 H       1  UNL1        0.0815
     44 H          -5.7302   -0.4269   -2.5396 H       1  UNL1        0.0639
     45 H          -7.6388    0.5320   -3.8094 H       1  UNL1        0.0647
     46 H          -7.8493    3.7435   -1.0389 H       1  UNL1        0.0647
     47 H          -5.9172    2.7622    0.2366 H       1  UNL1        0.0639
     48 H           0.2569   -0.3799    0.9336 H       1  UNL1        0.1551
     49 H           2.4960   -0.6631    1.2156 H       1  UNL1        0.0637
     50 H           4.7544   -0.6968    0.3667 H       1  UNL1        0.0656
     51 H           7.1592   -2.2260   -2.4227 H       1  UNL1        0.0670
     52 H           9.1224   -2.5570   -1.0533 H       1  UNL1        0.0831
     53 H           7.6417    1.8462    1.8010 H       1  UNL1        0.1437
     54 H           9.3600    1.3067    1.6846 H       1  UNL1        0.1437
     55 H           1.0337    0.3339   -2.7098 H       1  UNL1        0.0666
@<TRIPOS>BOND
     1     1     2    1
     2     2     3    1
     3     3     4    1
     4     4     5   ar
     5     5     6   ar
     6     6     7   ar
     7     7     8    1
     8     8     9   ar
     9     9    10   ar
    10    10    11   ar
    11    11    12    1
    12    11    13   ar
    13    13    14   ar
    14     7    15   ar
    15    15    16    2
    16    15    17   ar
    17    17    18    1
    18    18    19    2
    19    18    20   am
    20    20    21    1
    21    21    22   ar
    22    22    23   ar
    23    23    24   ar
    24    24    25    1
    25    25    26    1
    26    26    27   ar
    27    27    28   ar
    28    28    29   ar
    29    29    30   ar
    30    30    31    1
    31    30    32   ar
    32    32    33    1
    33    24    34   ar
    34    34    35    1
    35    34    36   ar
    36    17     4   ar
    37    36    21   ar
    38    14     8   ar
    39    32    26   ar
    40     1    37    1
    41     1    38    1
    42     1    39    1
    43     2    40    1
    44     2    41    1
    45     5    42    1
    46     6    43    1
    47     9    44    1
    48    10    45    1
    49    13    46    1
    50    14    47    1
    51    20    48    1
    52    22    49    1
    53    23    50    1
    54    27    51    1
    55    28    52    1
    56    31    53    1
    57    31    54    1
    58    36    55    1
