@<TRIPOS>MOLECULE
*****
 59 62 0 0 0
SMALL
GASTEIGER

@<TRIPOS>ATOM
      1 C          -4.5158   -4.7410   -0.6096 C.3     1  UNL1        0.0302
      2 N          -3.7212   -3.6301   -0.0661 N.ar    1  UNL1       -0.2739
      3 C          -3.4806   -2.4529   -0.6521 C.ar    1  UNL1        0.0330
      4 C          -2.6869   -1.7170    0.2238 C.ar    1  UNL1        0.0228
      5 C          -2.2172   -0.3404   -0.0001 C.ar    1  UNL1        0.0253
      6 C          -3.1993    0.6575   -0.0950 C.ar    1  UNL1       -0.0427
      7 C          -2.8505    1.9732   -0.2959 C.ar    1  UNL1        0.0203
      8 C          -3.8931    2.9941   -0.3909 C.3     1  UNL1        0.2830
      9 O          -4.7920    2.7356   -1.4517 O.3     1  UNL1       -0.3692
     10 C          -3.3575    4.3727   -0.6146 C.3     1  UNL1        0.4311
     11 F          -4.4851    5.2107   -0.6796 F       1  UNL1       -0.1669
     12 F          -2.6387    4.8103    0.4774 F       1  UNL1       -0.1669
     13 F          -2.7137    4.5456   -1.8138 F       1  UNL1       -0.1669
     14 C          -4.7603    3.0511    0.8594 C.3     1  UNL1        0.4311
     15 F          -3.9928    3.3447    1.9687 F       1  UNL1       -0.1669
     16 F          -5.6592    4.0987    0.6562 F       1  UNL1       -0.1669
     17 F          -5.5151    1.9212    1.0282 F       1  UNL1       -0.1669
     18 C          -1.5170    2.2978   -0.4029 C.ar    1  UNL1        0.0362
     19 N          -0.5905    1.3406   -0.3113 N.ar    1  UNL1       -0.2393
     20 C          -0.8992    0.0183   -0.1115 C.ar    1  UNL1        0.1292
     21 N           0.1687   -0.9059   -0.0397 N.pl3   1  UNL1       -0.3122
     22 C           0.5397   -1.4590    1.2336 C.3     1  UNL1        0.0280
     23 C           2.0580   -1.2467    1.3293 C.3     1  UNL1        0.0363
     24 N           2.6707   -2.0954    0.3581 N.3     1  UNL1       -0.1735
     25 S           4.3893   -2.1006    0.5235 S.O2    1  UNL1        0.0624
     26 O           4.7190   -2.5709    1.9306 O.2     1  UNL1       -0.1528
     27 O           4.9975   -3.0595   -0.4583 O.2     1  UNL1       -0.1528
     28 C           5.0439   -0.4994    0.2708 C.ar    1  UNL1        0.1236
     29 C           5.1831    0.3728    1.3171 C.ar    1  UNL1       -0.0306
     30 C           5.7036    1.6154    1.0587 C.ar    1  UNL1       -0.0202
     31 C           6.0760    1.9818   -0.2054 C.ar    1  UNL1        0.1162
     32 N           6.6196    3.2889   -0.4562 N.pl3   1  UNL1       -0.3431
     33 N           5.9397    1.1281   -1.2288 N.ar    1  UNL1       -0.2388
     34 C           5.4308   -0.0927   -0.9884 C.ar    1  UNL1        0.0560
     35 C           2.2239   -1.9327   -0.9806 C.3     1  UNL1        0.0363
     36 C           0.9041   -1.3254   -1.1921 C.3     1  UNL1        0.0280
     37 C          -2.4942   -2.5146    1.3102 C.ar    1  UNL1        0.0572
     38 N          -3.1467   -3.6983    1.1051 N.ar    1  UNL1       -0.1793
     39 H          -5.4150   -4.8225    0.0427 H       1  UNL1        0.0473
     40 H          -4.7738   -4.5459   -1.6634 H       1  UNL1        0.0473
     41 H          -3.9354   -5.6695   -0.4872 H       1  UNL1        0.0473
     42 H          -3.8140   -2.1170   -1.5957 H       1  UNL1        0.0832
     43 H          -4.2266    0.3284   -0.0017 H       1  UNL1        0.0629
     44 H          -5.5716    3.3428   -1.3181 H       1  UNL1        0.2112
     45 H          -1.2542    3.3298   -0.5598 H       1  UNL1        0.0834
     46 H           0.0309   -0.9508    2.0808 H       1  UNL1        0.0477
     47 H           0.3980   -2.5414    1.1989 H       1  UNL1        0.0477
     48 H           2.3284   -0.1957    1.1455 H       1  UNL1        0.0459
     49 H           2.4262   -1.5535    2.3304 H       1  UNL1        0.0459
     50 H           4.8956    0.1043    2.3220 H       1  UNL1        0.0639
     51 H           5.8242    2.3275    1.8747 H       1  UNL1        0.0652
     52 H           7.4876    3.3105   -1.0497 H       1  UNL1        0.1437
     53 H           6.1686    4.1273   -0.0685 H       1  UNL1        0.1437
     54 H           5.3156   -0.8016   -1.8228 H       1  UNL1        0.0850
     55 H           2.9929   -1.2986   -1.5106 H       1  UNL1        0.0459
     56 H           2.3223   -2.9366   -1.4914 H       1  UNL1        0.0459
     57 H           0.9414   -0.4603   -1.9179 H       1  UNL1        0.0477
     58 H           0.2512   -2.0787   -1.7259 H       1  UNL1        0.0477
     59 H          -1.9334   -2.2755    2.2208 H       1  UNL1        0.0854
@<TRIPOS>BOND
     1     1     2    1
     2     2     3   ar
     3     3     4   ar
     4     4     5    1
     5     5     6   ar
     6     6     7   ar
     7     7     8    1
     8     8     9    1
     9     8    10    1
    10    10    11    1
    11    10    12    1
    12    10    13    1
    13     8    14    1
    14    14    15    1
    15    14    16    1
    16    14    17    1
    17     7    18   ar
    18    18    19   ar
    19    19    20   ar
    20    20    21    1
    21    21    22    1
    22    22    23    1
    23    23    24    1
    24    24    25    1
    25    25    26    2
    26    25    27    2
    27    25    28    1
    28    28    29   ar
    29    29    30   ar
    30    30    31   ar
    31    31    32    1
    32    31    33   ar
    33    33    34   ar
    34    24    35    1
    35    35    36    1
    36     4    37   ar
    37    37    38   ar
    38    38     2   ar
    39    20     5   ar
    40    36    21    1
    41    34    28   ar
    42     1    39    1
    43     1    40    1
    44     1    41    1
    45     3    42    1
    46     6    43    1
    47     9    44    1
    48    18    45    1
    49    22    46    1
    50    22    47    1
    51    23    48    1
    52    23    49    1
    53    29    50    1
    54    30    51    1
    55    32    52    1
    56    32    53    1
    57    34    54    1
    58    35    55    1
    59    35    56    1
    60    36    57    1
    61    36    58    1
    62    37    59    1
