
     RDKit          3D

 59 62  0  0  0  0  0  0  0  0999 V2000
   -4.5158   -4.7410   -0.6096 C   0  0  0  0  0  0  0  0  0  0  0  0
   -3.7212   -3.6301   -0.0661 N   0  0  0  0  0  0  0  0  0  0  0  0
   -3.4806   -2.4529   -0.6521 C   0  0  0  0  0  0  0  0  0  0  0  0
   -2.6869   -1.7170    0.2238 C   0  0  0  0  0  0  0  0  0  0  0  0
   -2.2172   -0.3404   -0.0001 C   0  0  0  0  0  0  0  0  0  0  0  0
   -3.1993    0.6575   -0.0950 C   0  0  0  0  0  0  0  0  0  0  0  0
   -2.8505    1.9732   -0.2959 C   0  0  0  0  0  0  0  0  0  0  0  0
   -3.8931    2.9941   -0.3909 C   0  0  0  0  0  0  0  0  0  0  0  0
   -4.7920    2.7356   -1.4517 O   0  0  0  0  0  0  0  0  0  0  0  0
   -3.3575    4.3727   -0.6146 C   0  0  0  0  0  0  0  0  0  0  0  0
   -4.4851    5.2107   -0.6796 F   0  0  0  0  0  0  0  0  0  0  0  0
   -2.6387    4.8103    0.4774 F   0  0  0  0  0  0  0  0  0  0  0  0
   -2.7137    4.5456   -1.8138 F   0  0  0  0  0  0  0  0  0  0  0  0
   -4.7603    3.0511    0.8594 C   0  0  0  0  0  0  0  0  0  0  0  0
   -3.9928    3.3447    1.9687 F   0  0  0  0  0  0  0  0  0  0  0  0
   -5.6592    4.0987    0.6562 F   0  0  0  0  0  0  0  0  0  0  0  0
   -5.5151    1.9212    1.0282 F   0  0  0  0  0  0  0  0  0  0  0  0
   -1.5170    2.2978   -0.4029 C   0  0  0  0  0  0  0  0  0  0  0  0
   -0.5905    1.3406   -0.3113 N   0  0  0  0  0  0  0  0  0  0  0  0
   -0.8992    0.0183   -0.1115 C   0  0  0  0  0  0  0  0  0  0  0  0
    0.1687   -0.9059   -0.0397 N   0  0  0  0  0  0  0  0  0  0  0  0
    0.5397   -1.4590    1.2336 C   0  0  0  0  0  0  0  0  0  0  0  0
    2.0580   -1.2467    1.3293 C   0  0  0  0  0  0  0  0  0  0  0  0
    2.6707   -2.0954    0.3581 N   0  0  0  0  0  0  0  0  0  0  0  0
    4.3893   -2.1006    0.5235 S   0  0  0  0  0  6  0  0  0  0  0  0
    4.7190   -2.5709    1.9306 O   0  0  0  0  0  0  0  0  0  0  0  0
    4.9975   -3.0595   -0.4583 O   0  0  0  0  0  0  0  0  0  0  0  0
    5.0439   -0.4994    0.2708 C   0  0  0  0  0  0  0  0  0  0  0  0
    5.1831    0.3728    1.3171 C   0  0  0  0  0  0  0  0  0  0  0  0
    5.7036    1.6154    1.0587 C   0  0  0  0  0  0  0  0  0  0  0  0
    6.0760    1.9818   -0.2054 C   0  0  0  0  0  0  0  0  0  0  0  0
    6.6196    3.2889   -0.4562 N   0  0  0  0  0  0  0  0  0  0  0  0
    5.9397    1.1281   -1.2288 N   0  0  0  0  0  0  0  0  0  0  0  0
    5.4308   -0.0927   -0.9884 C   0  0  0  0  0  0  0  0  0  0  0  0
    2.2239   -1.9327   -0.9806 C   0  0  0  0  0  0  0  0  0  0  0  0
    0.9041   -1.3254   -1.1921 C   0  0  0  0  0  0  0  0  0  0  0  0
   -2.4942   -2.5146    1.3102 C   0  0  0  0  0  0  0  0  0  0  0  0
   -3.1467   -3.6983    1.1051 N   0  0  0  0  0  0  0  0  0  0  0  0
   -5.4150   -4.8225    0.0427 H   0  0  0  0  0  0  0  0  0  0  0  0
   -4.7738   -4.5459   -1.6634 H   0  0  0  0  0  0  0  0  0  0  0  0
   -3.9354   -5.6695   -0.4872 H   0  0  0  0  0  0  0  0  0  0  0  0
   -3.8140   -2.1170   -1.5957 H   0  0  0  0  0  0  0  0  0  0  0  0
   -4.2266    0.3284   -0.0017 H   0  0  0  0  0  0  0  0  0  0  0  0
   -5.5716    3.3428   -1.3181 H   0  0  0  0  0  0  0  0  0  0  0  0
   -1.2542    3.3298   -0.5598 H   0  0  0  0  0  0  0  0  0  0  0  0
    0.0309   -0.9508    2.0808 H   0  0  0  0  0  0  0  0  0  0  0  0
    0.3980   -2.5414    1.1989 H   0  0  0  0  0  0  0  0  0  0  0  0
    2.3284   -0.1957    1.1455 H   0  0  0  0  0  0  0  0  0  0  0  0
    2.4262   -1.5535    2.3304 H   0  0  0  0  0  0  0  0  0  0  0  0
    4.8956    0.1043    2.3220 H   0  0  0  0  0  0  0  0  0  0  0  0
    5.8242    2.3275    1.8747 H   0  0  0  0  0  0  0  0  0  0  0  0
    7.4876    3.3105   -1.0497 H   0  0  0  0  0  0  0  0  0  0  0  0
    6.1686    4.1273   -0.0685 H   0  0  0  0  0  0  0  0  0  0  0  0
    5.3156   -0.8016   -1.8228 H   0  0  0  0  0  0  0  0  0  0  0  0
    2.9929   -1.2986   -1.5106 H   0  0  0  0  0  0  0  0  0  0  0  0
    2.3223   -2.9366   -1.4914 H   0  0  0  0  0  0  0  0  0  0  0  0
    0.9414   -0.4603   -1.9179 H   0  0  0  0  0  0  0  0  0  0  0  0
    0.2512   -2.0787   -1.7259 H   0  0  0  0  0  0  0  0  0  0  0  0
   -1.9334   -2.2755    2.2208 H   0  0  0  0  0  0  0  0  0  0  0  0
  1  2  1  0
  2  3  1  0
  3  4  2  0
  4  5  1  0
  5  6  2  0
  6  7  1  0
  7  8  1  0
  8  9  1  0
  8 10  1  0
 10 11  1  0
 10 12  1  0
 10 13  1  0
  8 14  1  0
 14 15  1  0
 14 16  1  0
 14 17  1  0
  7 18  2  0
 18 19  1  0
 19 20  2  0
 20 21  1  0
 21 22  1  0
 22 23  1  0
 23 24  1  0
 24 25  1  0
 25 26  2  0
 25 27  2  0
 25 28  1  0
 28 29  2  0
 29 30  1  0
 30 31  2  0
 31 32  1  0
 31 33  1  0
 33 34  2  0
 24 35  1  0
 35 36  1  0
  4 37  1  0
 37 38  2  0
 38  2  1  0
 20  5  1  0
 36 21  1  0
 34 28  1  0
  1 39  1  0
  1 40  1  0
  1 41  1  0
  3 42  1  0
  6 43  1  0
  9 44  1  0
 18 45  1  0
 22 46  1  0
 22 47  1  0
 23 48  1  0
 23 49  1  0
 29 50  1  0
 30 51  1  0
 32 52  1  0
 32 53  1  0
 34 54  1  0
 35 55  1  0
 35 56  1  0
 36 57  1  0
 36 58  1  0
 37 59  1  0
M  END
$$$$
