
     RDKit          3D

 65 69  0  0  0  0  0  0  0  0999 V2000
   -5.7404    1.5782    2.4231 C   0  0  0  0  0  0  0  0  0  0  0  0
   -5.0897    2.8893    2.0962 C   0  0  0  0  0  0  0  0  0  0  0  0
   -3.6901    2.9450    2.0457 C   0  0  0  0  0  0  0  0  0  0  0  0
   -2.8248    1.9309    2.4951 N   0  0  0  0  0  0  0  0  0  0  0  0
   -1.4684    2.3313    2.7135 C   0  0  0  0  0  0  0  0  0  0  0  0
   -1.2605    3.4376    3.5903 C   0  0  0  0  0  0  0  0  0  0  0  0
   -2.2885    3.9409    4.3357 C   0  0  0  0  0  0  0  0  0  0  0  0
   -3.2132    4.4051    5.0327 N   0  0  0  0  0  0  0  0  0  0  0  0
    0.0196    3.9616    3.7249 C   0  0  0  0  0  0  0  0  0  0  0  0
    1.0900    3.4110    3.0105 N   0  0  0  0  0  0  0  0  0  0  0  0
    0.8171    2.3918    2.2386 C   0  0  0  0  0  0  0  0  0  0  0  0
   -0.4303    1.7913    2.0390 C   0  0  0  0  0  0  0  0  0  0  0  0
   -0.5371    0.4770    1.4388 C   0  0  0  0  0  0  0  0  0  0  0  0
    0.3591   -0.0714    0.6091 C   0  0  0  0  0  0  0  0  0  0  0  0
    0.4032   -1.3316    0.0017 C   0  0  0  0  0  0  0  0  0  0  0  0
   -0.6306   -2.3001   -0.0833 C   0  0  0  0  0  0  0  0  0  0  0  0
   -0.4304   -3.5792   -0.5228 C   0  0  0  0  0  0  0  0  0  0  0  0
    0.8171   -4.0130   -0.9133 C   0  0  0  0  0  0  0  0  0  0  0  0
    1.8890   -3.1267   -0.8620 C   0  0  0  0  0  0  0  0  0  0  0  0
    3.4988   -3.7261   -1.1796 S   0  0  0  0  0  6  0  0  0  0  0  0
    3.9045   -4.5697    0.0354 O   0  0  0  0  0  0  0  0  0  0  0  0
    4.4191   -2.4956   -1.1469 O   0  0  0  0  0  0  0  0  0  0  0  0
    3.7326   -4.6536   -2.5466 N   0  0  0  0  0  0  0  0  0  0  0  0
    3.4727   -4.0812   -3.8368 C   0  0  0  0  0  0  0  0  0  0  0  0
    4.7518   -3.6005   -4.4990 C   0  0  0  0  0  0  0  0  0  0  0  0
    5.6428   -3.0397   -3.5246 N   0  0  0  0  0  0  0  0  0  0  0  0
    6.7321   -2.3611   -4.1976 C   0  0  0  0  0  0  0  0  0  0  0  0
    6.1040   -4.0519   -2.6280 C   0  0  0  0  0  0  0  0  0  0  0  0
    5.1011   -5.1878   -2.5007 C   0  0  0  0  0  0  0  0  0  0  0  0
    1.6254   -1.9030   -0.4329 C   0  0  0  0  0  0  0  0  0  0  0  0
   -3.2470    4.2570    1.7010 C   0  0  0  0  0  0  0  0  0  0  0  0
   -4.0077    5.1983    1.4906 C   0  0  0  0  0  0  0  0  0  0  0  0
   -5.4222    5.2583    1.5292 C   0  0  0  0  0  0  0  0  0  0  0  0
   -6.4229    6.0095    1.3964 N   0  0  0  0  0  0  0  0  0  0  0  0
   -7.6119    5.4388    1.5883 C   0  0  0  0  0  0  0  0  0  0  0  0
   -7.2975    4.1029    1.8866 C   0  0  0  0  0  0  0  0  0  0  0  0
   -5.9102    3.9366    1.8623 C   0  0  0  0  0  0  0  0  0  0  0  0
   -5.0829    0.8553    2.8883 H   0  0  0  0  0  0  0  0  0  0  0  0
   -6.6312    1.7613    3.0538 H   0  0  0  0  0  0  0  0  0  0  0  0
   -6.1070    1.1245    1.4754 H   0  0  0  0  0  0  0  0  0  0  0  0
   -3.0985    0.9726    2.6614 H   0  0  0  0  0  0  0  0  0  0  0  0
    0.2234    4.7792    4.3543 H   0  0  0  0  0  0  0  0  0  0  0  0
    1.6553    1.9459    1.6668 H   0  0  0  0  0  0  0  0  0  0  0  0
   -1.3936   -0.1312    1.6401 H   0  0  0  0  0  0  0  0  0  0  0  0
    1.1748    0.6502    0.3810 H   0  0  0  0  0  0  0  0  0  0  0  0
   -1.6212   -1.9232    0.2337 H   0  0  0  0  0  0  0  0  0  0  0  0
   -1.2838   -4.2798   -0.5688 H   0  0  0  0  0  0  0  0  0  0  0  0
    0.9576   -5.0289   -1.2543 H   0  0  0  0  0  0  0  0  0  0  0  0
    3.0768   -4.9134   -4.4746 H   0  0  0  0  0  0  0  0  0  0  0  0
    2.7632   -3.2420   -3.7394 H   0  0  0  0  0  0  0  0  0  0  0  0
    4.5458   -2.9250   -5.3655 H   0  0  0  0  0  0  0  0  0  0  0  0
    5.2711   -4.5192   -4.9075 H   0  0  0  0  0  0  0  0  0  0  0  0
    7.1937   -1.6102   -3.5236 H   0  0  0  0  0  0  0  0  0  0  0  0
    6.3207   -1.8177   -5.0901 H   0  0  0  0  0  0  0  0  0  0  0  0
    7.5119   -3.0488   -4.5785 H   0  0  0  0  0  0  0  0  0  0  0  0
    7.0485   -4.5351   -3.0578 H   0  0  0  0  0  0  0  0  0  0  0  0
    6.4050   -3.6568   -1.6344 H   0  0  0  0  0  0  0  0  0  0  0  0
    5.2476   -5.8515   -3.3720 H   0  0  0  0  0  0  0  0  0  0  0  0
    5.3050   -5.7923   -1.6150 H   0  0  0  0  0  0  0  0  0  0  0  0
    2.4523   -1.1793   -0.3836 H   0  0  0  0  0  0  0  0  0  0  0  0
   -2.1259    4.2836    1.5983 H   0  0  0  0  0  0  0  0  0  0  0  0
   -3.6542    6.2693    1.2150 H   0  0  0  0  0  0  0  0  0  0  0  0
   -6.3835    7.0608    1.1546 H   0  0  0  0  0  0  0  0  0  0  0  0
   -8.6134    5.8160    1.5524 H   0  0  0  0  0  0  0  0  0  0  0  0
   -8.0143    3.3352    2.0813 H   0  0  0  0  0  0  0  0  0  0  0  0
  1  2  1  0
  2  3  2  0
  3  4  1  0
  4  5  1  0
  5  6  2  0
  6  7  1  0
  7  8  3  0
  6  9  1  0
  9 10  2  0
 10 11  1  0
 11 12  2  0
 12 13  1  0
 13 14  2  0
 14 15  1  0
 15 16  2  0
 16 17  1  0
 17 18  2  0
 18 19  1  0
 19 20  1  0
 20 21  2  0
 20 22  2  0
 20 23  1  0
 23 24  1  0
 24 25  1  0
 25 26  1  0
 26 27  1  0
 26 28  1  0
 28 29  1  0
 19 30  2  0
  3 31  1  0
 31 32  2  0
 32 33  1  0
 33 34  1  0
 34 35  1  0
 35 36  2  0
 36 37  1  0
 37  2  1  0
 12  5  1  0
 30 15  1  0
 37 33  2  0
 29 23  1  0
  1 38  1  0
  1 39  1  0
  1 40  1  0
  4 41  1  0
  9 42  1  0
 11 43  1  0
 13 44  1  0
 14 45  1  0
 16 46  1  0
 17 47  1  0
 18 48  1  0
 24 49  1  0
 24 50  1  0
 25 51  1  0
 25 52  1  0
 27 53  1  0
 27 54  1  0
 27 55  1  0
 28 56  1  0
 28 57  1  0
 29 58  1  0
 29 59  1  0
 30 60  1  0
 31 61  1  0
 32 62  1  0
 34 63  1  0
 35 64  1  0
 36 65  1  0
M  END
$$$$
