@<TRIPOS>MOLECULE
*****
 65 69 0 0 0
SMALL
GASTEIGER

@<TRIPOS>ATOM
      1 C          -5.7404    1.5782    2.4231 C.3     1  UNL1       -0.0373
      2 C          -5.0897    2.8893    2.0962 C.ar    1  UNL1       -0.0202
      3 C          -3.6901    2.9450    2.0457 C.ar    1  UNL1        0.0350
      4 N          -2.8248    1.9309    2.4951 N.pl3   1  UNL1       -0.3127
      5 C          -1.4684    2.3313    2.7135 C.ar    1  UNL1        0.0591
      6 C          -1.2605    3.4376    3.5903 C.ar    1  UNL1        0.0914
      7 C          -2.2885    3.9409    4.3357 C.1     1  UNL1        0.1026
      8 N          -3.2132    4.4051    5.0327 N.1     1  UNL1       -0.1908
      9 C           0.0196    3.9616    3.7249 C.ar    1  UNL1        0.0467
     10 N           1.0900    3.4110    3.0105 N.ar    1  UNL1       -0.2613
     11 C           0.8171    2.3918    2.2386 C.ar    1  UNL1        0.0365
     12 C          -0.4303    1.7913    2.0390 C.ar    1  UNL1        0.0155
     13 C          -0.5371    0.4770    1.4388 C.2     1  UNL1       -0.0508
     14 C           0.3591   -0.0714    0.6091 C.2     1  UNL1       -0.0539
     15 C           0.4032   -1.3316    0.0017 C.ar    1  UNL1       -0.0232
     16 C          -0.6306   -2.3001   -0.0833 C.ar    1  UNL1       -0.0545
     17 C          -0.4304   -3.5792   -0.5228 C.ar    1  UNL1       -0.0594
     18 C           0.8171   -4.0130   -0.9133 C.ar    1  UNL1       -0.0353
     19 C           1.8890   -3.1267   -0.8620 C.ar    1  UNL1        0.1060
     20 S           3.4988   -3.7261   -1.1796 S.O2    1  UNL1        0.0609
     21 O           3.9045   -4.5697    0.0354 O.2     1  UNL1       -0.1528
     22 O           4.4191   -2.4956   -1.1469 O.2     1  UNL1       -0.1528
     23 N           3.7326   -4.6536   -2.5466 N.3     1  UNL1       -0.1741
     24 C           3.4727   -4.0812   -3.8368 C.3     1  UNL1        0.0333
     25 C           4.7518   -3.6005   -4.4990 C.3     1  UNL1        0.0131
     26 N           5.6428   -3.0397   -3.5246 N.3     1  UNL1       -0.3028
     27 C           6.7321   -2.3611   -4.1976 C.3     1  UNL1       -0.0127
     28 C           6.1040   -4.0519   -2.6280 C.3     1  UNL1        0.0131
     29 C           5.1011   -5.1878   -2.5007 C.3     1  UNL1        0.0333
     30 C           1.6254   -1.9030   -0.4329 C.ar    1  UNL1       -0.0282
     31 C          -3.2470    4.2570    1.7010 C.ar    1  UNL1       -0.0383
     32 C          -4.0077    5.1983    1.4906 C.ar    1  UNL1       -0.0360
     33 C          -5.4222    5.2583    1.5292 C.ar    1  UNL1        0.0468
     34 N          -6.4229    6.0095    1.3964 N.ar    1  UNL1       -0.3606
     35 C          -7.6119    5.4388    1.5883 C.ar    1  UNL1        0.0027
     36 C          -7.2975    4.1029    1.8866 C.ar    1  UNL1       -0.0364
     37 C          -5.9102    3.9366    1.8623 C.ar    1  UNL1        0.0043
     38 H          -5.0829    0.8553    2.8883 H       1  UNL1        0.0278
     39 H          -6.6312    1.7613    3.0538 H       1  UNL1        0.0278
     40 H          -6.1070    1.1245    1.4754 H       1  UNL1        0.0278
     41 H          -3.0985    0.9726    2.6614 H       1  UNL1        0.1522
     42 H           0.2234    4.7792    4.3543 H       1  UNL1        0.0843
     43 H           1.6553    1.9459    1.6668 H       1  UNL1        0.0836
     44 H          -1.3936   -0.1312    1.6401 H       1  UNL1        0.0625
     45 H           1.1748    0.6502    0.3810 H       1  UNL1        0.0624
     46 H          -1.6212   -1.9232    0.2337 H       1  UNL1        0.0623
     47 H          -1.2838   -4.2798   -0.5688 H       1  UNL1        0.0618
     48 H           0.9576   -5.0289   -1.2543 H       1  UNL1        0.0637
     49 H           3.0768   -4.9134   -4.4746 H       1  UNL1        0.0456
     50 H           2.7632   -3.2420   -3.7394 H       1  UNL1        0.0456
     51 H           4.5458   -2.9250   -5.3655 H       1  UNL1        0.0439
     52 H           5.2711   -4.5192   -4.9075 H       1  UNL1        0.0439
     53 H           7.1937   -1.6102   -3.5236 H       1  UNL1        0.0391
     54 H           6.3207   -1.8177   -5.0901 H       1  UNL1        0.0391
     55 H           7.5119   -3.0488   -4.5785 H       1  UNL1        0.0391
     56 H           7.0485   -4.5351   -3.0578 H       1  UNL1        0.0439
     57 H           6.4050   -3.6568   -1.6344 H       1  UNL1        0.0439
     58 H           5.2476   -5.8515   -3.3720 H       1  UNL1        0.0456
     59 H           5.3050   -5.7923   -1.6150 H       1  UNL1        0.0456
     60 H           2.4523   -1.1793   -0.3836 H       1  UNL1        0.0643
     61 H          -2.1259    4.2836    1.5983 H       1  UNL1        0.0637
     62 H          -3.6542    6.2693    1.2150 H       1  UNL1        0.0639
     63 H          -6.3835    7.0608    1.1546 H       1  UNL1        0.1653
     64 H          -8.6134    5.8160    1.5524 H       1  UNL1        0.0807
     65 H          -8.0143    3.3352    2.0813 H       1  UNL1        0.0639
@<TRIPOS>BOND
     1     1     2    1
     2     2     3   ar
     3     3     4    1
     4     4     5    1
     5     5     6   ar
     6     6     7    1
     7     7     8    3
     8     6     9   ar
     9     9    10   ar
    10    10    11   ar
    11    11    12   ar
    12    12    13    1
    13    13    14    2
    14    14    15    1
    15    15    16   ar
    16    16    17   ar
    17    17    18   ar
    18    18    19   ar
    19    19    20    1
    20    20    21    2
    21    20    22    2
    22    20    23    1
    23    23    24    1
    24    24    25    1
    25    25    26    1
    26    26    27    1
    27    26    28    1
    28    28    29    1
    29    19    30   ar
    30     3    31   ar
    31    31    32   ar
    32    32    33   ar
    33    33    34   ar
    34    34    35   ar
    35    35    36   ar
    36    36    37   ar
    37    37     2   ar
    38    12     5   ar
    39    30    15   ar
    40    37    33   ar
    41    29    23    1
    42     1    38    1
    43     1    39    1
    44     1    40    1
    45     4    41    1
    46     9    42    1
    47    11    43    1
    48    13    44    1
    49    14    45    1
    50    16    46    1
    51    17    47    1
    52    18    48    1
    53    24    49    1
    54    24    50    1
    55    25    51    1
    56    25    52    1
    57    27    53    1
    58    27    54    1
    59    27    55    1
    60    28    56    1
    61    28    57    1
    62    29    58    1
    63    29    59    1
    64    30    60    1
    65    31    61    1
    66    32    62    1
    67    34    63    1
    68    35    64    1
    69    36    65    1
