@<TRIPOS>MOLECULE
*****
 42 44 0 0 0
SMALL
GASTEIGER

@<TRIPOS>ATOM
      1 CL         -2.9993    0.1503    2.1725 Cl      1  UNL1       -0.0833
      2 C          -3.0621   -0.8705    0.7393 C.ar    1  UNL1        0.0442
      3 C          -3.8810   -1.9579    0.6992 C.ar    1  UNL1       -0.0431
      4 C          -3.9577   -2.7830   -0.4082 C.ar    1  UNL1       -0.0604
      5 C          -3.1921   -2.5187   -1.5181 C.ar    1  UNL1       -0.0614
      6 C          -2.3676   -1.4142   -1.4626 C.ar    1  UNL1       -0.0571
      7 C          -2.2712   -0.5775   -0.3767 C.ar    1  UNL1       -0.0273
      8 C          -1.4152    0.5841   -0.3873 C.3     1  UNL1       -0.0065
      9 C          -0.1694    0.5940    0.4089 C.3     1  UNL1        0.0397
     10 C           0.4435    1.9629    0.1722 C.ar    1  UNL1       -0.0300
     11 C           1.0759    2.1541   -1.0288 C.ar    1  UNL1       -0.0571
     12 C           1.6725    3.3570   -1.3613 C.ar    1  UNL1       -0.0615
     13 C           1.6181    4.3775   -0.4459 C.ar    1  UNL1       -0.0617
     14 C           0.9745    4.1813    0.7752 C.ar    1  UNL1       -0.0615
     15 C           0.3918    2.9779    1.0774 C.ar    1  UNL1       -0.0571
     16 N           0.8724   -0.3218    0.0226 N.3     1  UNL1       -0.2927
     17 C           2.0385   -0.0748    0.8471 C.3     1  UNL1        0.0121
     18 C           3.1926   -0.9521    0.5591 C.3     1  UNL1        0.0087
     19 N           2.8433   -2.1940   -0.1253 N.3     1  UNL1       -0.3136
     20 C           1.5965   -2.6251    0.4844 C.3     1  UNL1        0.0087
     21 C           0.5175   -1.7016   -0.0365 C.3     1  UNL1        0.0121
     22 H          -4.4900   -2.1632    1.5895 H       1  UNL1        0.0632
     23 H          -4.6333   -3.6283   -0.3621 H       1  UNL1        0.0618
     24 H          -3.2600   -3.1708   -2.3791 H       1  UNL1        0.0618
     25 H          -1.7750   -1.2454   -2.3761 H       1  UNL1        0.0621
     26 H          -1.1356    0.7848   -1.4620 H       1  UNL1        0.0332
     27 H          -2.0742    1.4784   -0.1519 H       1  UNL1        0.0332
     28 H          -0.3337    0.4471    1.4975 H       1  UNL1        0.0515
     29 H           1.1361    1.3591   -1.7802 H       1  UNL1        0.0621
     30 H           2.1682    3.4626   -2.3374 H       1  UNL1        0.0618
     31 H           2.0869    5.3333   -0.6988 H       1  UNL1        0.0618
     32 H           0.9762    5.0332    1.4388 H       1  UNL1        0.0618
     33 H          -0.0997    2.8370    2.0168 H       1  UNL1        0.0621
     34 H           1.7173   -0.1500    1.9110 H       1  UNL1        0.0439
     35 H           2.3359    0.9781    0.6891 H       1  UNL1        0.0439
     36 H           3.6530   -1.2473    1.5424 H       1  UNL1        0.0437
     37 H           4.0158   -0.4840   -0.0130 H       1  UNL1        0.0437
     38 H           2.7194   -1.9418   -1.1308 H       1  UNL1        0.1220
     39 H           1.7320   -2.5244    1.5755 H       1  UNL1        0.0437
     40 H           1.3610   -3.6425    0.1725 H       1  UNL1        0.0437
     41 H           0.3741   -1.9843   -1.0937 H       1  UNL1        0.0439
     42 H          -0.3958   -1.8795    0.5451 H       1  UNL1        0.0439
@<TRIPOS>BOND
     1     1     2    1
     2     2     3   ar
     3     3     4   ar
     4     4     5   ar
     5     5     6   ar
     6     6     7   ar
     7     7     8    1
     8     8     9    1
     9     9    10    1
    10    10    11   ar
    11    11    12   ar
    12    12    13   ar
    13    13    14   ar
    14    14    15   ar
    15     9    16    1
    16    16    17    1
    17    17    18    1
    18    18    19    1
    19    19    20    1
    20    20    21    1
    21     7     2   ar
    22    15    10   ar
    23    21    16    1
    24     3    22    1
    25     4    23    1
    26     5    24    1
    27     6    25    1
    28     8    26    1
    29     8    27    1
    30     9    28    1
    31    11    29    1
    32    12    30    1
    33    13    31    1
    34    14    32    1
    35    15    33    1
    36    17    34    1
    37    17    35    1
    38    18    36    1
    39    18    37    1
    40    19    38    1
    41    20    39    1
    42    20    40    1
    43    21    41    1
    44    21    42    1
