@<TRIPOS>MOLECULE
*****
 86 92 0 0 0
SMALL
GASTEIGER

@<TRIPOS>ATOM
      1 O           9.1635    1.1021   -0.2637 O.2     1  UNL1       -0.2525
      2 C           8.2895    0.1922   -0.2891 C.2     1  UNL1        0.3045
      3 N           8.7412   -1.1508   -0.3260 N.am    1  UNL1       -0.2691
      4 C           7.7751   -2.1848   -0.3552 C.ar    1  UNL1        0.0400
      5 C           8.2159   -3.5123   -0.3855 C.ar    1  UNL1       -0.0401
      6 C           7.2979   -4.5445   -0.4090 C.ar    1  UNL1       -0.0600
      7 C           5.9529   -4.2490   -0.4021 C.ar    1  UNL1       -0.0613
      8 C           5.5209   -2.9419   -0.3724 C.ar    1  UNL1       -0.0548
      9 C           6.4470   -1.9006   -0.3488 C.ar    1  UNL1       -0.0028
     10 C           5.8740   -0.5273   -0.3210 C.3     1  UNL1        0.0657
     11 C           5.0567   -0.3908   -1.5954 C.3     1  UNL1       -0.0114
     12 C           4.1790    0.8457   -1.5354 C.3     1  UNL1        0.0184
     13 N           3.3664    0.8447   -0.3286 N.am    1  UNL1       -0.2855
     14 C           1.9615    0.9519   -0.4378 C.2     1  UNL1        0.3028
     15 O           1.4177    1.0531   -1.5782 O.2     1  UNL1       -0.2526
     16 N           1.0800    0.9542    0.6715 N.am    1  UNL1       -0.2876
     17 C          -0.3841    1.0681    0.4703 C.3     1  UNL1        0.1050
     18 C          -0.8510    2.2051    1.3470 C.3     1  UNL1        0.0005
     19 C          -0.1494    3.5077    0.9658 C.ar    1  UNL1       -0.0304
     20 C           0.9174    3.9327    1.8306 C.ar    1  UNL1       -0.0199
     21 S           1.4401    5.4662    1.0165 S.2     1  UNL1       -0.0964
     22 C           0.2502    5.4177   -0.3454 C.ar    1  UNL1        0.0196
     23 C           0.0628    6.2821   -1.3726 C.ar    1  UNL1       -0.0474
     24 C          -0.9280    6.0118   -2.2906 C.ar    1  UNL1       -0.0607
     25 C          -1.6619    4.8698   -2.0920 C.ar    1  UNL1       -0.0611
     26 C          -1.4605    4.0088   -1.0509 C.ar    1  UNL1       -0.0533
     27 C          -0.4348    4.2656   -0.0795 C.ar    1  UNL1       -0.0076
     28 C          -1.0082   -0.1848    1.0300 C.2     1  UNL1        0.2363
     29 O          -0.2468   -1.0448    1.6086 O.2     1  UNL1       -0.2736
     30 N          -2.3690   -0.4963    0.9700 N.am    1  UNL1       -0.2998
     31 C          -2.8708   -1.7169    1.5381 C.3     1  UNL1        0.0161
     32 C          -4.3669   -1.5299    1.7907 C.3     1  UNL1       -0.0214
     33 C          -5.0881   -1.3745    0.4713 C.3     1  UNL1        0.0133
     34 N          -6.4080   -0.9085    0.7222 N.3     1  UNL1       -0.2993
     35 C          -7.1900   -1.8048    1.5456 C.3     1  UNL1       -0.0008
     36 C          -7.3780   -3.1486    0.9105 C.3     1  UNL1       -0.0402
     37 C          -8.0391   -2.9806   -0.4214 C.3     1  UNL1       -0.0507
     38 C          -7.4839   -1.8793   -1.2545 C.3     1  UNL1       -0.0402
     39 C          -7.1786   -0.6247   -0.4677 C.3     1  UNL1       -0.0008
     40 C          -4.2638   -0.5455   -0.4329 C.3     1  UNL1       -0.0214
     41 C          -3.3100    0.3813    0.3283 C.3     1  UNL1        0.0161
     42 C           4.0684    0.7300    0.9178 C.3     1  UNL1        0.0184
     43 C           5.0315   -0.4375    0.9187 C.3     1  UNL1       -0.0114
     44 N           6.9016    0.4720   -0.2815 N.am    1  UNL1       -0.2895
     45 H           9.7712   -1.3808   -0.3321 H       1  UNL1        0.1564
     46 H           9.2791   -3.7198   -0.3904 H       1  UNL1        0.0636
     47 H           7.6180   -5.5797   -0.4325 H       1  UNL1        0.0618
     48 H           5.2206   -5.0640   -0.4202 H       1  UNL1        0.0618
     49 H           4.4443   -2.7556   -0.3679 H       1  UNL1        0.0622
     50 H           5.7727   -0.2353   -2.4234 H       1  UNL1        0.0304
     51 H           4.4984   -1.3037   -1.7943 H       1  UNL1        0.0304
     52 H           3.5274    0.8314   -2.4277 H       1  UNL1        0.0466
     53 H           4.8559    1.7212   -1.5394 H       1  UNL1        0.0466
     54 H           1.4797    0.8751    1.6245 H       1  UNL1        0.1510
     55 H          -0.5553    1.1909   -0.5923 H       1  UNL1        0.0598
     56 H          -1.9386    2.3876    1.2418 H       1  UNL1        0.0336
     57 H          -0.6696    1.9539    2.3870 H       1  UNL1        0.0336
     58 H           1.3001    3.4946    2.6920 H       1  UNL1        0.0696
     59 H           0.6878    7.1629   -1.4564 H       1  UNL1        0.0629
     60 H          -1.0945    6.6890   -3.1188 H       1  UNL1        0.0618
     61 H          -2.4405    4.6710   -2.8255 H       1  UNL1        0.0618
     62 H          -2.0920    3.1442   -0.9890 H       1  UNL1        0.0624
     63 H          -2.3859   -1.9675    2.5154 H       1  UNL1        0.0465
     64 H          -2.6976   -2.5997    0.8905 H       1  UNL1        0.0465
     65 H          -4.7560   -2.3736    2.4051 H       1  UNL1        0.0295
     66 H          -4.4501   -0.5599    2.3293 H       1  UNL1        0.0295
     67 H          -5.1695   -2.4065    0.0405 H       1  UNL1        0.0463
     68 H          -8.1861   -1.3740    1.7905 H       1  UNL1        0.0427
     69 H          -6.6811   -1.9321    2.5111 H       1  UNL1        0.0427
     70 H          -6.4473   -3.7462    0.8590 H       1  UNL1        0.0278
     71 H          -8.0851   -3.7300    1.5429 H       1  UNL1        0.0278
     72 H          -7.8665   -3.9418   -0.9875 H       1  UNL1        0.0266
     73 H          -9.1414   -2.8996   -0.3249 H       1  UNL1        0.0266
     74 H          -6.6015   -2.2599   -1.8035 H       1  UNL1        0.0278
     75 H          -8.2221   -1.5901   -2.0344 H       1  UNL1        0.0278
     76 H          -6.7712    0.1500   -1.1007 H       1  UNL1        0.0427
     77 H          -8.1754   -0.2503   -0.1000 H       1  UNL1        0.0427
     78 H          -4.7584    0.0651   -1.1757 H       1  UNL1        0.0295
     79 H          -3.5717   -1.2336   -1.0037 H       1  UNL1        0.0295
     80 H          -2.7600    0.9228   -0.4651 H       1  UNL1        0.0465
     81 H          -3.8715    1.0383    1.0174 H       1  UNL1        0.0465
     82 H           3.4543    0.6367    1.8083 H       1  UNL1        0.0466
     83 H           4.6893    1.6490    1.0651 H       1  UNL1        0.0466
     84 H           4.5141   -1.3836    1.1322 H       1  UNL1        0.0304
     85 H           5.7246   -0.2658    1.7683 H       1  UNL1        0.0304
     86 H           6.6113    1.4856   -0.2448 H       1  UNL1        0.1511
@<TRIPOS>BOND
     1     1     2    2
     2     2     3   am
     3     3     4    1
     4     4     5   ar
     5     5     6   ar
     6     6     7   ar
     7     7     8   ar
     8     8     9   ar
     9     9    10    1
    10    10    11    1
    11    11    12    1
    12    12    13    1
    13    13    14   am
    14    14    15    2
    15    14    16   am
    16    16    17    1
    17    17    18    1
    18    18    19    1
    19    19    20   ar
    20    20    21   ar
    21    21    22   ar
    22    22    23   ar
    23    23    24   ar
    24    24    25   ar
    25    25    26   ar
    26    26    27   ar
    27    17    28    1
    28    28    29    2
    29    28    30   am
    30    30    31    1
    31    31    32    1
    32    32    33    1
    33    33    34    1
    34    34    35    1
    35    35    36    1
    36    36    37    1
    37    37    38    1
    38    38    39    1
    39    33    40    1
    40    40    41    1
    41    13    42    1
    42    42    43    1
    43    10    44    1
    44    44     2   am
    45     9     4   ar
    46    43    10    1
    47    27    19   ar
    48    41    30    1
    49    27    22   ar
    50    39    34    1
    51     3    45    1
    52     5    46    1
    53     6    47    1
    54     7    48    1
    55     8    49    1
    56    11    50    1
    57    11    51    1
    58    12    52    1
    59    12    53    1
    60    16    54    1
    61    17    55    1
    62    18    56    1
    63    18    57    1
    64    20    58    1
    65    23    59    1
    66    24    60    1
    67    25    61    1
    68    26    62    1
    69    31    63    1
    70    31    64    1
    71    32    65    1
    72    32    66    1
    73    33    67    1
    74    35    68    1
    75    35    69    1
    76    36    70    1
    77    36    71    1
    78    37    72    1
    79    37    73    1
    80    38    74    1
    81    38    75    1
    82    39    76    1
    83    39    77    1
    84    40    78    1
    85    40    79    1
    86    41    80    1
    87    41    81    1
    88    42    82    1
    89    42    83    1
    90    43    84    1
    91    43    85    1
    92    44    86    1
