
     RDKit          3D

 86 92  0  0  0  0  0  0  0  0999 V2000
    9.1635    1.1021   -0.2637 O   0  0  0  0  0  0  0  0  0  0  0  0
    8.2895    0.1922   -0.2891 C   0  0  0  0  0  0  0  0  0  0  0  0
    8.7412   -1.1508   -0.3260 N   0  0  0  0  0  0  0  0  0  0  0  0
    7.7751   -2.1848   -0.3552 C   0  0  0  0  0  0  0  0  0  0  0  0
    8.2159   -3.5123   -0.3855 C   0  0  0  0  0  0  0  0  0  0  0  0
    7.2979   -4.5445   -0.4090 C   0  0  0  0  0  0  0  0  0  0  0  0
    5.9529   -4.2490   -0.4021 C   0  0  0  0  0  0  0  0  0  0  0  0
    5.5209   -2.9419   -0.3724 C   0  0  0  0  0  0  0  0  0  0  0  0
    6.4470   -1.9006   -0.3488 C   0  0  0  0  0  0  0  0  0  0  0  0
    5.8740   -0.5273   -0.3210 C   0  0  0  0  0  0  0  0  0  0  0  0
    5.0567   -0.3908   -1.5954 C   0  0  0  0  0  0  0  0  0  0  0  0
    4.1790    0.8457   -1.5354 C   0  0  0  0  0  0  0  0  0  0  0  0
    3.3664    0.8447   -0.3286 N   0  0  0  0  0  0  0  0  0  0  0  0
    1.9615    0.9519   -0.4378 C   0  0  0  0  0  0  0  0  0  0  0  0
    1.4177    1.0531   -1.5782 O   0  0  0  0  0  0  0  0  0  0  0  0
    1.0800    0.9542    0.6715 N   0  0  0  0  0  0  0  0  0  0  0  0
   -0.3841    1.0681    0.4703 C   0  0  2  0  0  0  0  0  0  0  0  0
   -0.8510    2.2051    1.3470 C   0  0  0  0  0  0  0  0  0  0  0  0
   -0.1494    3.5077    0.9658 C   0  0  0  0  0  0  0  0  0  0  0  0
    0.9174    3.9327    1.8306 C   0  0  0  0  0  0  0  0  0  0  0  0
    1.4401    5.4662    1.0165 S   0  0  0  0  0  0  0  0  0  0  0  0
    0.2502    5.4177   -0.3454 C   0  0  0  0  0  0  0  0  0  0  0  0
    0.0628    6.2821   -1.3726 C   0  0  0  0  0  0  0  0  0  0  0  0
   -0.9280    6.0118   -2.2906 C   0  0  0  0  0  0  0  0  0  0  0  0
   -1.6619    4.8698   -2.0920 C   0  0  0  0  0  0  0  0  0  0  0  0
   -1.4605    4.0088   -1.0509 C   0  0  0  0  0  0  0  0  0  0  0  0
   -0.4348    4.2656   -0.0795 C   0  0  0  0  0  0  0  0  0  0  0  0
   -1.0082   -0.1848    1.0300 C   0  0  0  0  0  0  0  0  0  0  0  0
   -0.2468   -1.0448    1.6086 O   0  0  0  0  0  0  0  0  0  0  0  0
   -2.3690   -0.4963    0.9700 N   0  0  0  0  0  0  0  0  0  0  0  0
   -2.8708   -1.7169    1.5381 C   0  0  0  0  0  0  0  0  0  0  0  0
   -4.3669   -1.5299    1.7907 C   0  0  0  0  0  0  0  0  0  0  0  0
   -5.0881   -1.3745    0.4713 C   0  0  0  0  0  0  0  0  0  0  0  0
   -6.4080   -0.9085    0.7222 N   0  0  0  0  0  0  0  0  0  0  0  0
   -7.1900   -1.8048    1.5456 C   0  0  0  0  0  0  0  0  0  0  0  0
   -7.3780   -3.1486    0.9105 C   0  0  0  0  0  0  0  0  0  0  0  0
   -8.0391   -2.9806   -0.4214 C   0  0  0  0  0  0  0  0  0  0  0  0
   -7.4839   -1.8793   -1.2545 C   0  0  0  0  0  0  0  0  0  0  0  0
   -7.1786   -0.6247   -0.4677 C   0  0  0  0  0  0  0  0  0  0  0  0
   -4.2638   -0.5455   -0.4329 C   0  0  0  0  0  0  0  0  0  0  0  0
   -3.3100    0.3813    0.3283 C   0  0  0  0  0  0  0  0  0  0  0  0
    4.0684    0.7300    0.9178 C   0  0  0  0  0  0  0  0  0  0  0  0
    5.0315   -0.4375    0.9187 C   0  0  0  0  0  0  0  0  0  0  0  0
    6.9016    0.4720   -0.2815 N   0  0  0  0  0  0  0  0  0  0  0  0
    9.7712   -1.3808   -0.3321 H   0  0  0  0  0  0  0  0  0  0  0  0
    9.2791   -3.7198   -0.3904 H   0  0  0  0  0  0  0  0  0  0  0  0
    7.6180   -5.5797   -0.4325 H   0  0  0  0  0  0  0  0  0  0  0  0
    5.2206   -5.0640   -0.4202 H   0  0  0  0  0  0  0  0  0  0  0  0
    4.4443   -2.7556   -0.3679 H   0  0  0  0  0  0  0  0  0  0  0  0
    5.7727   -0.2353   -2.4234 H   0  0  0  0  0  0  0  0  0  0  0  0
    4.4984   -1.3037   -1.7943 H   0  0  0  0  0  0  0  0  0  0  0  0
    3.5274    0.8314   -2.4277 H   0  0  0  0  0  0  0  0  0  0  0  0
    4.8559    1.7212   -1.5394 H   0  0  0  0  0  0  0  0  0  0  0  0
    1.4797    0.8751    1.6245 H   0  0  0  0  0  0  0  0  0  0  0  0
   -0.5553    1.1909   -0.5923 H   0  0  0  0  0  0  0  0  0  0  0  0
   -1.9386    2.3876    1.2418 H   0  0  0  0  0  0  0  0  0  0  0  0
   -0.6696    1.9539    2.3870 H   0  0  0  0  0  0  0  0  0  0  0  0
    1.3001    3.4946    2.6920 H   0  0  0  0  0  0  0  0  0  0  0  0
    0.6878    7.1629   -1.4564 H   0  0  0  0  0  0  0  0  0  0  0  0
   -1.0945    6.6890   -3.1188 H   0  0  0  0  0  0  0  0  0  0  0  0
   -2.4405    4.6710   -2.8255 H   0  0  0  0  0  0  0  0  0  0  0  0
   -2.0920    3.1442   -0.9890 H   0  0  0  0  0  0  0  0  0  0  0  0
   -2.3859   -1.9675    2.5154 H   0  0  0  0  0  0  0  0  0  0  0  0
   -2.6976   -2.5997    0.8905 H   0  0  0  0  0  0  0  0  0  0  0  0
   -4.7560   -2.3736    2.4051 H   0  0  0  0  0  0  0  0  0  0  0  0
   -4.4501   -0.5599    2.3293 H   0  0  0  0  0  0  0  0  0  0  0  0
   -5.1695   -2.4065    0.0405 H   0  0  0  0  0  0  0  0  0  0  0  0
   -8.1861   -1.3740    1.7905 H   0  0  0  0  0  0  0  0  0  0  0  0
   -6.6811   -1.9321    2.5111 H   0  0  0  0  0  0  0  0  0  0  0  0
   -6.4473   -3.7462    0.8590 H   0  0  0  0  0  0  0  0  0  0  0  0
   -8.0851   -3.7300    1.5429 H   0  0  0  0  0  0  0  0  0  0  0  0
   -7.8665   -3.9418   -0.9875 H   0  0  0  0  0  0  0  0  0  0  0  0
   -9.1414   -2.8996   -0.3249 H   0  0  0  0  0  0  0  0  0  0  0  0
   -6.6015   -2.2599   -1.8035 H   0  0  0  0  0  0  0  0  0  0  0  0
   -8.2221   -1.5901   -2.0344 H   0  0  0  0  0  0  0  0  0  0  0  0
   -6.7712    0.1500   -1.1007 H   0  0  0  0  0  0  0  0  0  0  0  0
   -8.1754   -0.2503   -0.1000 H   0  0  0  0  0  0  0  0  0  0  0  0
   -4.7584    0.0651   -1.1757 H   0  0  0  0  0  0  0  0  0  0  0  0
   -3.5717   -1.2336   -1.0037 H   0  0  0  0  0  0  0  0  0  0  0  0
   -2.7600    0.9228   -0.4651 H   0  0  0  0  0  0  0  0  0  0  0  0
   -3.8715    1.0383    1.0174 H   0  0  0  0  0  0  0  0  0  0  0  0
    3.4543    0.6367    1.8083 H   0  0  0  0  0  0  0  0  0  0  0  0
    4.6893    1.6490    1.0651 H   0  0  0  0  0  0  0  0  0  0  0  0
    4.5141   -1.3836    1.1322 H   0  0  0  0  0  0  0  0  0  0  0  0
    5.7246   -0.2658    1.7683 H   0  0  0  0  0  0  0  0  0  0  0  0
    6.6113    1.4856   -0.2448 H   0  0  0  0  0  0  0  0  0  0  0  0
  1  2  2  0
  2  3  1  0
  3  4  1  0
  4  5  2  0
  5  6  1  0
  6  7  2  0
  7  8  1  0
  8  9  2  0
  9 10  1  0
 10 11  1  0
 11 12  1  0
 12 13  1  0
 13 14  1  0
 14 15  2  0
 14 16  1  0
 16 17  1  0
 17 18  1  0
 18 19  1  0
 19 20  2  0
 20 21  1  0
 21 22  1  0
 22 23  2  0
 23 24  1  0
 24 25  2  0
 25 26  1  0
 26 27  2  0
 17 28  1  0
 28 29  2  0
 28 30  1  0
 30 31  1  0
 31 32  1  0
 32 33  1  0
 33 34  1  0
 34 35  1  0
 35 36  1  0
 36 37  1  0
 37 38  1  0
 38 39  1  0
 33 40  1  0
 40 41  1  0
 13 42  1  0
 42 43  1  0
 10 44  1  0
 44  2  1  0
  9  4  1  0
 43 10  1  0
 27 19  1  0
 41 30  1  0
 27 22  1  0
 39 34  1  0
  3 45  1  0
  5 46  1  0
  6 47  1  0
  7 48  1  0
  8 49  1  0
 11 50  1  0
 11 51  1  0
 12 52  1  0
 12 53  1  0
 16 54  1  0
 17 55  1  6
 18 56  1  0
 18 57  1  0
 20 58  1  0
 23 59  1  0
 24 60  1  0
 25 61  1  0
 26 62  1  0
 31 63  1  0
 31 64  1  0
 32 65  1  0
 32 66  1  0
 33 67  1  0
 35 68  1  0
 35 69  1  0
 36 70  1  0
 36 71  1  0
 37 72  1  0
 37 73  1  0
 38 74  1  0
 38 75  1  0
 39 76  1  0
 39 77  1  0
 40 78  1  0
 40 79  1  0
 41 80  1  0
 41 81  1  0
 42 82  1  0
 42 83  1  0
 43 84  1  0
 43 85  1  0
 44 86  1  0
M  END
$$$$
