
     RDKit          3D

 58 60  0  0  0  0  0  0  0  0999 V2000
    7.7862    3.7778    1.7136 C   0  0  0  0  0  0  0  0  0  0  0  0
    8.0812    2.3970    1.7801 O   0  0  0  0  0  0  0  0  0  0  0  0
    7.2753    1.5102    1.0793 C   0  0  0  0  0  0  0  0  0  0  0  0
    6.2011    1.9222    0.3230 C   0  0  0  0  0  0  0  0  0  0  0  0
    5.3916    1.0183   -0.3825 C   0  0  0  0  0  0  0  0  0  0  0  0
    5.6419   -0.3284   -0.3457 C   0  0  0  0  0  0  0  0  0  0  0  0
    4.8420   -1.3229   -1.0533 C   0  0  0  0  0  0  0  0  0  0  0  0
    5.1735   -2.5541   -0.9559 O   0  0  0  0  0  0  0  0  0  0  0  0
    3.7316   -1.0195   -1.8348 N   0  0  0  0  0  0  0  0  0  0  0  0
    2.8945   -1.9608   -2.5611 C   0  0  0  0  0  0  0  0  0  0  0  0
    1.9586   -2.6773   -1.6899 C   0  0  0  0  0  0  0  0  0  0  0  0
    2.3063   -3.9068   -1.1826 C   0  0  0  0  0  0  0  0  0  0  0  0
    1.4056   -4.5523   -0.3560 C   0  0  0  0  0  0  0  0  0  0  0  0
    0.2037   -3.9476   -0.0727 C   0  0  0  0  0  0  0  0  0  0  0  0
   -0.1703   -2.7297   -0.5603 C   0  0  0  0  0  0  0  0  0  0  0  0
   -1.4712   -2.1869   -0.1921 C   0  0  0  0  0  0  0  0  0  0  0  0
   -2.2300   -2.8388    0.5523 O   0  0  0  0  0  0  0  0  0  0  0  0
   -1.8943   -0.9135   -0.6721 N   0  0  0  0  0  0  0  0  0  0  0  0
   -3.1952   -0.4650   -0.2526 C   0  0  0  0  0  0  0  0  0  0  0  0
   -3.3532    0.2711    0.9031 C   0  0  0  0  0  0  0  0  0  0  0  0
   -4.5991    0.7166    1.3302 C   0  0  0  0  0  0  0  0  0  0  0  0
   -5.7205    0.4215    0.5863 C   0  0  0  0  0  0  0  0  0  0  0  0
   -7.0715    0.8707    0.9953 C   0  0  0  0  0  0  0  0  0  0  0  0
   -7.3939    2.1740    0.4421 N   0  0  0  0  0  0  0  0  0  0  0  0
   -8.7016    2.6211    0.8286 C   0  0  0  0  0  0  0  0  0  0  0  0
   -6.3798    3.1565    0.7760 C   0  0  0  0  0  0  0  0  0  0  0  0
   -5.5504   -0.3143   -0.5660 C   0  0  0  0  0  0  0  0  0  0  0  0
   -4.3199   -0.7577   -0.9934 C   0  0  0  0  0  0  0  0  0  0  0  0
    0.7297   -2.0879   -1.3843 C   0  0  0  0  0  0  0  0  0  0  0  0
    6.7385   -0.7307    0.4285 C   0  0  0  0  0  0  0  0  0  0  0  0
    7.5315    0.1568    1.1197 C   0  0  0  0  0  0  0  0  0  0  0  0
    8.8971   -0.3803    2.0795 Cl  0  0  0  0  0  0  0  0  0  0  0  0
    6.7240    4.0140    1.8630 H   0  0  0  0  0  0  0  0  0  0  0  0
    8.4633    4.3700    2.3544 H   0  0  0  0  0  0  0  0  0  0  0  0
    8.0246    4.0908    0.6554 H   0  0  0  0  0  0  0  0  0  0  0  0
    5.9837    2.9693    0.2772 H   0  0  0  0  0  0  0  0  0  0  0  0
    4.5529    1.3911   -0.9678 H   0  0  0  0  0  0  0  0  0  0  0  0
    3.4763    0.0152   -1.8991 H   0  0  0  0  0  0  0  0  0  0  0  0
    3.5618   -2.6701   -3.0997 H   0  0  0  0  0  0  0  0  0  0  0  0
    2.3770   -1.3859   -3.3626 H   0  0  0  0  0  0  0  0  0  0  0  0
    3.2478   -4.3877   -1.4100 H   0  0  0  0  0  0  0  0  0  0  0  0
    1.6936   -5.5216    0.0372 H   0  0  0  0  0  0  0  0  0  0  0  0
   -0.4646   -4.5108    0.5878 H   0  0  0  0  0  0  0  0  0  0  0  0
   -1.3201   -0.3195   -1.2902 H   0  0  0  0  0  0  0  0  0  0  0  0
   -2.4827    0.5034    1.4858 H   0  0  0  0  0  0  0  0  0  0  0  0
   -4.7197    1.2955    2.2401 H   0  0  0  0  0  0  0  0  0  0  0  0
   -7.8478    0.1564    0.6680 H   0  0  0  0  0  0  0  0  0  0  0  0
   -7.1008    0.8794    2.1109 H   0  0  0  0  0  0  0  0  0  0  0  0
   -9.1802    1.9241    1.5656 H   0  0  0  0  0  0  0  0  0  0  0  0
   -9.3956    2.7549   -0.0286 H   0  0  0  0  0  0  0  0  0  0  0  0
   -8.5898    3.5921    1.3656 H   0  0  0  0  0  0  0  0  0  0  0  0
   -6.3383    3.2165    1.8826 H   0  0  0  0  0  0  0  0  0  0  0  0
   -6.7666    4.1427    0.4264 H   0  0  0  0  0  0  0  0  0  0  0  0
   -5.4210    2.9439    0.2975 H   0  0  0  0  0  0  0  0  0  0  0  0
   -6.4427   -0.5444   -1.1501 H   0  0  0  0  0  0  0  0  0  0  0  0
   -4.1970   -1.3409   -1.9095 H   0  0  0  0  0  0  0  0  0  0  0  0
    0.4722   -1.1269   -1.7887 H   0  0  0  0  0  0  0  0  0  0  0  0
    6.9510   -1.7906    0.4691 H   0  0  0  0  0  0  0  0  0  0  0  0
  1  2  1  0
  2  3  1  0
  3  4  2  0
  4  5  1  0
  5  6  2  0
  6  7  1  0
  7  8  2  0
  7  9  1  0
  9 10  1  0
 10 11  1  0
 11 12  2  0
 12 13  1  0
 13 14  2  0
 14 15  1  0
 15 16  1  0
 16 17  2  0
 16 18  1  0
 18 19  1  0
 19 20  2  0
 20 21  1  0
 21 22  2  0
 22 23  1  0
 23 24  1  0
 24 25  1  0
 24 26  1  0
 22 27  1  0
 27 28  2  0
 15 29  2  0
  6 30  1  0
 30 31  2  0
 31 32  1  0
 31  3  1  0
 29 11  1  0
 28 19  1  0
  1 33  1  0
  1 34  1  0
  1 35  1  0
  4 36  1  0
  5 37  1  0
  9 38  1  0
 10 39  1  0
 10 40  1  0
 12 41  1  0
 13 42  1  0
 14 43  1  0
 18 44  1  0
 20 45  1  0
 21 46  1  0
 23 47  1  0
 23 48  1  0
 25 49  1  0
 25 50  1  0
 25 51  1  0
 26 52  1  0
 26 53  1  0
 26 54  1  0
 27 55  1  0
 28 56  1  0
 29 57  1  0
 30 58  1  0
M  END
$$$$
