@<TRIPOS>MOLECULE
*****
 58 60 0 0 0
SMALL
GASTEIGER

@<TRIPOS>ATOM
      1 C           7.7862    3.7778    1.7136 C.3     1  UNL1        0.0789
      2 O           8.0812    2.3970    1.7801 O.3     1  UNL1       -0.4937
      3 C           7.2753    1.5102    1.0793 C.ar    1  UNL1        0.1384
      4 C           6.2011    1.9222    0.3230 C.ar    1  UNL1       -0.0178
      5 C           5.3916    1.0183   -0.3825 C.ar    1  UNL1       -0.0461
      6 C           5.6419   -0.3284   -0.3457 C.ar    1  UNL1        0.0383
      7 C           4.8420   -1.3229   -1.0533 C.2     1  UNL1        0.2444
      8 O           5.1735   -2.5541   -0.9559 O.2     1  UNL1       -0.2702
      9 N           3.7316   -1.0195   -1.8348 N.am    1  UNL1       -0.3072
     10 C           2.8945   -1.9608   -2.5611 C.3     1  UNL1        0.0372
     11 C           1.9586   -2.6773   -1.6899 C.ar    1  UNL1       -0.0296
     12 C           2.3063   -3.9068   -1.1826 C.ar    1  UNL1       -0.0570
     13 C           1.4056   -4.5523   -0.3560 C.ar    1  UNL1       -0.0607
     14 C           0.2037   -3.9476   -0.0727 C.ar    1  UNL1       -0.0496
     15 C          -0.1703   -2.7297   -0.5603 C.ar    1  UNL1        0.0373
     16 C          -1.4712   -2.1869   -0.1921 C.2     1  UNL1        0.2483
     17 O          -2.2300   -2.8388    0.5523 O.2     1  UNL1       -0.2699
     18 N          -1.8943   -0.9135   -0.6721 N.am    1  UNL1       -0.2815
     19 C          -3.1952   -0.4650   -0.2526 C.ar    1  UNL1        0.0337
     20 C          -3.3532    0.2711    0.9031 C.ar    1  UNL1       -0.0402
     21 C          -4.5991    0.7166    1.3302 C.ar    1  UNL1       -0.0556
     22 C          -5.7205    0.4215    0.5863 C.ar    1  UNL1       -0.0333
     23 C          -7.0715    0.8707    0.9953 C.3     1  UNL1        0.0235
     24 N          -7.3939    2.1740    0.4421 N.3     1  UNL1       -0.3042
     25 C          -8.7016    2.6211    0.8286 C.3     1  UNL1       -0.0127
     26 C          -6.3798    3.1565    0.7760 C.3     1  UNL1       -0.0127
     27 C          -5.5504   -0.3143   -0.5660 C.ar    1  UNL1       -0.0556
     28 C          -4.3199   -0.7577   -0.9934 C.ar    1  UNL1       -0.0402
     29 C           0.7297   -2.0879   -1.3843 C.ar    1  UNL1       -0.0449
     30 C           6.7385   -0.7307    0.4285 C.ar    1  UNL1       -0.0277
     31 C           7.5315    0.1568    1.1197 C.ar    1  UNL1        0.0832
     32 CL          8.8971   -0.3803    2.0795 Cl      1  UNL1       -0.0797
     33 H           6.7240    4.0140    1.8630 H       1  UNL1        0.0660
     34 H           8.4633    4.3700    2.3544 H       1  UNL1        0.0660
     35 H           8.0246    4.0908    0.6554 H       1  UNL1        0.0660
     36 H           5.9837    2.9693    0.2772 H       1  UNL1        0.0655
     37 H           4.5529    1.3911   -0.9678 H       1  UNL1        0.0626
     38 H           3.4763    0.0152   -1.8991 H       1  UNL1        0.1493
     39 H           3.5618   -2.6701   -3.0997 H       1  UNL1        0.0512
     40 H           2.3770   -1.3859   -3.3626 H       1  UNL1        0.0512
     41 H           3.2478   -4.3877   -1.4100 H       1  UNL1        0.0621
     42 H           1.6936   -5.5216    0.0372 H       1  UNL1        0.0618
     43 H          -0.4646   -4.5108    0.5878 H       1  UNL1        0.0625
     44 H          -1.3201   -0.3195   -1.2902 H       1  UNL1        0.1551
     45 H          -2.4827    0.5034    1.4858 H       1  UNL1        0.0636
     46 H          -4.7197    1.2955    2.2401 H       1  UNL1        0.0621
     47 H          -7.8478    0.1564    0.6680 H       1  UNL1        0.0475
     48 H          -7.1008    0.8794    2.1109 H       1  UNL1        0.0475
     49 H          -9.1802    1.9241    1.5656 H       1  UNL1        0.0391
     50 H          -9.3956    2.7549   -0.0286 H       1  UNL1        0.0391
     51 H          -8.5898    3.5921    1.3656 H       1  UNL1        0.0391
     52 H          -6.3383    3.2165    1.8826 H       1  UNL1        0.0391
     53 H          -6.7666    4.1427    0.4264 H       1  UNL1        0.0391
     54 H          -5.4210    2.9439    0.2975 H       1  UNL1        0.0391
     55 H          -6.4427   -0.5444   -1.1501 H       1  UNL1        0.0621
     56 H          -4.1970   -1.3409   -1.9095 H       1  UNL1        0.0636
     57 H           0.4722   -1.1269   -1.7887 H       1  UNL1        0.0628
     58 H           6.9510   -1.7906    0.4691 H       1  UNL1        0.0641
@<TRIPOS>BOND
     1     1     2    1
     2     2     3    1
     3     3     4   ar
     4     4     5   ar
     5     5     6   ar
     6     6     7    1
     7     7     8    2
     8     7     9   am
     9     9    10    1
    10    10    11    1
    11    11    12   ar
    12    12    13   ar
    13    13    14   ar
    14    14    15   ar
    15    15    16    1
    16    16    17    2
    17    16    18   am
    18    18    19    1
    19    19    20   ar
    20    20    21   ar
    21    21    22   ar
    22    22    23    1
    23    23    24    1
    24    24    25    1
    25    24    26    1
    26    22    27   ar
    27    27    28   ar
    28    15    29   ar
    29     6    30   ar
    30    30    31   ar
    31    31    32    1
    32    31     3   ar
    33    29    11   ar
    34    28    19   ar
    35     1    33    1
    36     1    34    1
    37     1    35    1
    38     4    36    1
    39     5    37    1
    40     9    38    1
    41    10    39    1
    42    10    40    1
    43    12    41    1
    44    13    42    1
    45    14    43    1
    46    18    44    1
    47    20    45    1
    48    21    46    1
    49    23    47    1
    50    23    48    1
    51    25    49    1
    52    25    50    1
    53    25    51    1
    54    26    52    1
    55    26    53    1
    56    26    54    1
    57    27    55    1
    58    28    56    1
    59    29    57    1
    60    30    58    1
