
     RDKit          3D

132138  0  0  0  0  0  0  0  0999 V2000
   -6.2661    3.3411   -1.1720 C   0  0  0  0  0  0  0  0  0  0  0  0
   -5.4623    2.5381   -0.4026 O   0  0  0  0  0  0  0  0  0  0  0  0
   -4.5952    1.7752   -1.1236 C   0  0  1  0  0  0  0  0  0  0  0  0
   -3.2451    2.5541   -0.9153 C   0  0  0  0  0  0  0  0  0  0  0  0
   -3.0197    3.7728   -0.3769 C   0  0  0  0  0  0  0  0  0  0  0  0
   -2.0040    4.5837   -0.1172 O   0  0  0  0  0  0  0  0  0  0  0  0
   -1.4664    5.4783    0.6957 C   0  0  1  0  0  0  0  0  0  0  0  0
   -1.4729    6.9039    0.2495 C   0  0  0  0  0  0  0  0  0  0  0  0
   -1.8723    5.4700    2.1106 O   0  0  0  0  0  0  0  0  0  0  0  0
   -1.7434    4.0888    2.4520 C   0  0  0  0  0  0  0  0  0  0  0  0
   -2.4754    3.2051    3.2007 C   0  0  0  0  0  0  0  0  0  0  0  0
   -3.6875    3.6937    3.9155 C   0  0  0  0  0  0  0  0  0  0  0  0
   -1.9599    1.9363    3.1885 C   0  0  0  0  0  0  0  0  0  0  0  0
   -2.6662    1.0015    3.9343 O   0  0  0  0  0  0  0  0  0  0  0  0
   -0.8185    1.6352    2.4778 C   0  0  0  0  0  0  0  0  0  0  0  0
   -0.5720    0.2465    2.4704 C   0  0  0  0  0  0  0  0  0  0  0  0
   -1.2310   -0.5960    3.1173 O   0  0  0  0  0  0  0  0  0  0  0  0
    0.4887   -0.0774    1.6658 C   0  0  0  0  0  0  0  0  0  0  0  0
    0.4904   -1.5417    1.3675 N   0  0  0  0  0  0  0  0  0  0  0  0
    0.6832   -1.6574    0.0151 C   0  0  0  0  0  0  0  0  0  0  0  0
    0.8067   -0.9436   -0.9304 O   0  0  0  0  0  0  0  0  0  0  0  0
    0.8241   -2.9079   -0.8598 C   0  0  0  0  0  0  0  0  0  0  0  0
    1.6078   -3.0745   -2.1341 C   0  0  0  0  0  0  0  0  0  0  0  0
    0.3300   -4.1113   -0.7345 C   0  0  0  0  0  0  0  0  0  0  0  0
   -0.5918   -4.5524    0.2846 C   0  0  0  0  0  0  0  0  0  0  0  0
   -1.2769   -5.4751    0.8873 C   0  0  0  0  0  0  0  0  0  0  0  0
   -2.2684   -5.4073    2.0353 C   0  0  2  0  0  0  0  0  0  0  0  0
   -3.1799   -6.5467    1.8331 C   0  0  0  0  0  0  0  0  0  0  0  0
   -2.7964   -4.0287    2.2436 C   0  0  2  0  0  0  0  0  0  0  0  0
   -3.4141   -4.0369    3.5589 O   0  0  0  0  0  0  0  0  0  0  0  0
   -4.0423   -3.7668    1.3722 C   0  0  1  0  0  0  0  0  0  0  0  0
   -5.1502   -4.5067    2.0400 C   0  0  0  0  0  0  0  0  0  0  0  0
   -4.2088   -2.2959    1.1161 C   0  0  1  0  0  0  0  0  0  0  0  0
   -3.0042   -1.8547    0.4753 O   0  0  0  0  0  0  0  0  0  0  0  0
   -5.3497   -1.8950    0.2201 C   0  0  1  0  0  0  0  0  0  0  0  0
   -6.6768   -2.2468    0.8779 C   0  0  0  0  0  0  0  0  0  0  0  0
   -5.4872   -0.4861   -0.2412 C   0  0  2  0  0  0  0  0  0  0  0  0
   -6.5379   -0.3916   -1.2148 O   0  0  0  0  0  0  0  0  0  0  0  0
   -7.7420    0.2254   -1.0845 C   0  0  0  0  0  0  0  0  0  0  0  0
   -8.6646    0.1496   -2.2504 C   0  0  0  0  0  0  0  0  0  0  0  0
   -8.3329    0.8853   -0.1833 O   0  0  0  0  0  0  0  0  0  0  0  0
   -4.3625    0.3956   -0.5108 C   0  0  2  0  0  0  0  0  0  0  0  0
   -3.6143    0.7955    0.7943 C   0  0  0  0  0  0  0  0  0  0  0  0
    1.2977    0.7822    0.9331 C   0  0  0  0  0  0  0  0  0  0  0  0
    2.3002    0.3014    0.2703 O   0  0  0  0  0  0  0  0  0  0  0  0
    3.1328    1.0681   -0.4363 C   0  0  0  0  0  0  0  0  0  0  0  0
    2.8630    2.4194   -0.4229 C   0  0  0  0  0  0  0  0  0  0  0  0
    1.8291    2.9320    0.2580 N   0  0  0  0  0  0  0  0  0  0  0  0
    0.9820    2.1930    0.9743 C   0  0  0  0  0  0  0  0  0  0  0  0
   -0.0767    2.5298    1.7395 C   0  0  0  0  0  0  0  0  0  0  0  0
   -0.5674    3.8410    1.7291 C   0  0  0  0  0  0  0  0  0  0  0  0
   -0.0364    5.0022    1.0120 C   0  0  0  0  0  0  0  0  0  0  0  0
    1.1183    5.4047    0.7764 O   0  0  0  0  0  0  0  0  0  0  0  0
    3.7597    3.1105   -1.1626 C   0  0  0  0  0  0  0  0  0  0  0  0
    3.5981    4.5054   -1.2308 O   0  0  0  0  0  0  0  0  0  0  0  0
    4.8387    2.5447   -1.8629 C   0  0  0  0  0  0  0  0  0  0  0  0
    4.9965    1.1554   -1.7849 C   0  0  0  0  0  0  0  0  0  0  0  0
    4.1334    0.3579   -1.0586 C   0  0  0  0  0  0  0  0  0  0  0  0
    6.0575    0.4178   -2.4438 N   0  0  0  0  0  0  0  0  0  0  0  0
    6.6675    0.5350   -3.7565 C   0  0  0  0  0  0  0  0  0  0  0  0
    8.0881    0.9897   -3.5549 C   0  0  0  0  0  0  0  0  0  0  0  0
    8.7932    0.1281   -2.6149 N   0  0  0  0  0  0  0  0  0  0  0  0
    9.6862    0.8149   -1.7941 C   0  0  0  0  0  0  0  0  0  0  0  0
   10.5785    0.0889   -0.8566 C   0  0  0  0  0  0  0  0  0  0  0  0
   11.4970   -0.9263   -1.5065 C   0  0  0  0  0  0  0  0  0  0  0  0
    9.9151   -0.4614    0.3629 C   0  0  0  0  0  0  0  0  0  0  0  0
    8.0296   -0.9666   -2.1892 C   0  0  0  0  0  0  0  0  0  0  0  0
    6.6585   -0.6538   -1.6435 C   0  0  0  0  0  0  0  0  0  0  0  0
   -5.6769    4.0721   -1.7949 H   0  0  0  0  0  0  0  0  0  0  0  0
   -7.0454    3.8702   -0.5899 H   0  0  0  0  0  0  0  0  0  0  0  0
   -6.7863    2.7195   -1.9251 H   0  0  0  0  0  0  0  0  0  0  0  0
   -4.6418    1.7788   -2.2037 H   0  0  0  0  0  0  0  0  0  0  0  0
   -2.2301    2.2221   -1.1757 H   0  0  0  0  0  0  0  0  0  0  0  0
   -3.7943    4.4545    0.0269 H   0  0  0  0  0  0  0  0  0  0  0  0
   -0.6892    7.4780    0.7653 H   0  0  0  0  0  0  0  0  0  0  0  0
   -1.3980    7.0573   -0.8501 H   0  0  0  0  0  0  0  0  0  0  0  0
   -2.4574    7.3532    0.5491 H   0  0  0  0  0  0  0  0  0  0  0  0
   -4.1536    4.4802    3.2892 H   0  0  0  0  0  0  0  0  0  0  0  0
   -4.4221    2.9084    4.0774 H   0  0  0  0  0  0  0  0  0  0  0  0
   -3.3576    4.2077    4.8411 H   0  0  0  0  0  0  0  0  0  0  0  0
   -2.9805    1.3058    4.8633 H   0  0  0  0  0  0  0  0  0  0  0  0
    0.3842   -2.2954    1.9884 H   0  0  0  0  0  0  0  0  0  0  0  0
    0.9271   -3.3319   -2.9855 H   0  0  0  0  0  0  0  0  0  0  0  0
    2.0535   -2.0897   -2.4105 H   0  0  0  0  0  0  0  0  0  0  0  0
    2.4406   -3.7884   -2.0087 H   0  0  0  0  0  0  0  0  0  0  0  0
    0.3252   -5.0772   -1.1546 H   0  0  0  0  0  0  0  0  0  0  0  0
   -0.8741   -3.6485    0.7827 H   0  0  0  0  0  0  0  0  0  0  0  0
   -1.0157   -6.4319    0.4066 H   0  0  0  0  0  0  0  0  0  0  0  0
   -1.6384   -5.6406    2.9202 H   0  0  0  0  0  0  0  0  0  0  0  0
   -2.5259   -7.3781    1.3715 H   0  0  0  0  0  0  0  0  0  0  0  0
   -3.9831   -6.4556    1.1038 H   0  0  0  0  0  0  0  0  0  0  0  0
   -3.4304   -6.9944    2.8116 H   0  0  0  0  0  0  0  0  0  0  0  0
   -2.0956   -3.2686    2.2004 H   0  0  0  0  0  0  0  0  0  0  0  0
   -2.8560   -4.6740    4.1100 H   0  0  0  0  0  0  0  0  0  0  0  0
   -3.9001   -4.2816    0.3823 H   0  0  0  0  0  0  0  0  0  0  0  0
   -5.8296   -5.0660    1.3867 H   0  0  0  0  0  0  0  0  0  0  0  0
   -5.7624   -3.7535    2.6261 H   0  0  0  0  0  0  0  0  0  0  0  0
   -4.8022   -5.1648    2.9020 H   0  0  0  0  0  0  0  0  0  0  0  0
   -4.1963   -1.8240    2.1063 H   0  0  0  0  0  0  0  0  0  0  0  0
   -2.2657   -1.7246    1.0462 H   0  0  0  0  0  0  0  0  0  0  0  0
   -5.3254   -2.5910   -0.7056 H   0  0  0  0  0  0  0  0  0  0  0  0
   -7.5035   -1.5907    0.3829 H   0  0  0  0  0  0  0  0  0  0  0  0
   -6.7633   -1.9150    1.9217 H   0  0  0  0  0  0  0  0  0  0  0  0
   -6.9884   -3.2814    0.7839 H   0  0  0  0  0  0  0  0  0  0  0  0
   -6.0285    0.0330    0.6565 H   0  0  0  0  0  0  0  0  0  0  0  0
   -8.7377    1.1193   -2.7840 H   0  0  0  0  0  0  0  0  0  0  0  0
   -9.6996   -0.1369   -1.9684 H   0  0  0  0  0  0  0  0  0  0  0  0
   -8.3144   -0.6205   -2.9872 H   0  0  0  0  0  0  0  0  0  0  0  0
   -3.6253   -0.1211   -1.1947 H   0  0  0  0  0  0  0  0  0  0  0  0
   -2.5465    0.7690    0.5934 H   0  0  0  0  0  0  0  0  0  0  0  0
   -4.0165    0.3142    1.6734 H   0  0  0  0  0  0  0  0  0  0  0  0
   -3.8161    1.8991    1.0151 H   0  0  0  0  0  0  0  0  0  0  0  0
    4.1680    5.1022   -0.6253 H   0  0  0  0  0  0  0  0  0  0  0  0
    5.5340    3.1039   -2.4457 H   0  0  0  0  0  0  0  0  0  0  0  0
    4.2406   -0.7063   -0.9900 H   0  0  0  0  0  0  0  0  0  0  0  0
    6.6247   -0.4500   -4.2884 H   0  0  0  0  0  0  0  0  0  0  0  0
    6.1835    1.2887   -4.3986 H   0  0  0  0  0  0  0  0  0  0  0  0
    8.6671    0.9831   -4.5142 H   0  0  0  0  0  0  0  0  0  0  0  0
    8.0530    2.0055   -3.1248 H   0  0  0  0  0  0  0  0  0  0  0  0
    9.1115    1.5684   -1.1696 H   0  0  0  0  0  0  0  0  0  0  0  0
   10.3519    1.4970   -2.4269 H   0  0  0  0  0  0  0  0  0  0  0  0
   11.2997    0.8964   -0.4643 H   0  0  0  0  0  0  0  0  0  0  0  0
   12.5493   -0.7190   -1.2425 H   0  0  0  0  0  0  0  0  0  0  0  0
   11.3874   -0.9310   -2.6104 H   0  0  0  0  0  0  0  0  0  0  0  0
   11.2961   -1.9491   -1.0745 H   0  0  0  0  0  0  0  0  0  0  0  0
   10.4441   -0.0765    1.2910 H   0  0  0  0  0  0  0  0  0  0  0  0
    8.8549   -0.1523    0.3990 H   0  0  0  0  0  0  0  0  0  0  0  0
   10.0004   -1.5697    0.3820 H   0  0  0  0  0  0  0  0  0  0  0  0
    8.5613   -1.5761   -1.4470 H   0  0  0  0  0  0  0  0  0  0  0  0
    7.8874   -1.6739   -3.0778 H   0  0  0  0  0  0  0  0  0  0  0  0
    6.0181   -1.5785   -1.7812 H   0  0  0  0  0  0  0  0  0  0  0  0
    6.6979   -0.3492   -0.5910 H   0  0  0  0  0  0  0  0  0  0  0  0
  1  2  1  0
  2  3  1  0
  3  4  1  0
  4  5  2  0
  5  6  1  0
  6  7  1  0
  7  8  1  6
  7  9  1  0
  9 10  1  0
 10 11  2  0
 11 12  1  0
 11 13  1  0
 13 14  1  0
 13 15  2  0
 15 16  1  0
 16 17  2  0
 16 18  1  0
 18 19  1  0
 19 20  1  0
 20 21  2  0
 20 22  1  0
 22 23  1  0
 22 24  2  0
 24 25  1  0
 25 26  2  0
 26 27  1  0
 27 28  1  0
 27 29  1  0
 29 30  1  0
 29 31  1  0
 31 32  1  0
 31 33  1  0
 33 34  1  0
 33 35  1  0
 35 36  1  0
 35 37  1  0
 37 38  1  0
 38 39  1  0
 39 40  1  0
 39 41  2  0
 37 42  1  0
 42 43  1  0
 18 44  2  0
 44 45  1  0
 45 46  1  0
 46 47  2  0
 47 48  1  0
 48 49  2  0
 49 50  1  0
 50 51  2  0
 51 52  1  0
 52 53  2  0
 47 54  1  0
 54 55  1  0
 54 56  2  0
 56 57  1  0
 57 58  2  0
 57 59  1  0
 59 60  1  0
 60 61  1  0
 61 62  1  0
 62 63  1  0
 63 64  1  0
 64 65  1  0
 64 66  1  0
 62 67  1  0
 67 68  1  0
 42  3  1  0
 49 44  1  0
 68 59  1  0
 52  7  1  0
 51 10  1  0
 50 15  1  0
 58 46  1  0
  1 69  1  0
  1 70  1  0
  1 71  1  0
  3 72  1  6
  4 73  1  0
  5 74  1  0
  8 75  1  0
  8 76  1  0
  8 77  1  0
 12 78  1  0
 12 79  1  0
 12 80  1  0
 14 81  1  0
 19 82  1  0
 23 83  1  0
 23 84  1  0
 23 85  1  0
 24 86  1  0
 25 87  1  0
 26 88  1  0
 27 89  1  1
 28 90  1  0
 28 91  1  0
 28 92  1  0
 29 93  1  1
 30 94  1  0
 31 95  1  6
 32 96  1  0
 32 97  1  0
 32 98  1  0
 33 99  1  1
 34100  1  0
 35101  1  6
 36102  1  0
 36103  1  0
 36104  1  0
 37105  1  1
 40106  1  0
 40107  1  0
 40108  1  0
 42109  1  6
 43110  1  0
 43111  1  0
 43112  1  0
 55113  1  0
 56114  1  0
 58115  1  0
 60116  1  0
 60117  1  0
 61118  1  0
 61119  1  0
 63120  1  0
 63121  1  0
 64122  1  0
 65123  1  0
 65124  1  0
 65125  1  0
 66126  1  0
 66127  1  0
 66128  1  0
 67129  1  0
 67130  1  0
 68131  1  0
 68132  1  0
M  END
$$$$
