@<TRIPOS>MOLECULE
*****
 132 138 0 0 0
SMALL
GASTEIGER

@<TRIPOS>ATOM
      1 C          -6.2661    3.3411   -1.1720 C.3     1  UNL1        0.0372
      2 O          -5.4623    2.5381   -0.4026 O.3     1  UNL1       -0.3753
      3 C          -4.5952    1.7752   -1.1236 C.3     1  UNL1        0.0854
      4 C          -3.2451    2.5541   -0.9153 C.2     1  UNL1       -0.0208
      5 C          -3.0197    3.7728   -0.3769 C.2     1  UNL1        0.0882
      6 O          -2.0040    4.5837   -0.1172 O.2     1  UNL1       -0.4528
      7 C          -1.4664    5.4783    0.6957 C.3     1  UNL1        0.3143
      8 C          -1.4729    6.9039    0.2495 C.3     1  UNL1        0.0210
      9 O          -1.8723    5.4700    2.1106 O.3     1  UNL1       -0.4436
     10 C          -1.7434    4.0888    2.4520 C.ar    1  UNL1        0.1435
     11 C          -2.4754    3.2051    3.2007 C.ar    1  UNL1        0.0342
     12 C          -3.6875    3.6937    3.9155 C.3     1  UNL1       -0.0327
     13 C          -1.9599    1.9363    3.1885 C.ar    1  UNL1        0.1347
     14 O          -2.6662    1.0015    3.9343 O.3     1  UNL1       -0.5056
     15 C          -0.8185    1.6352    2.4778 C.ar    1  UNL1        0.0754
     16 C          -0.5720    0.2465    2.4704 C.ar    1  UNL1        0.2149
     17 O          -1.2310   -0.5960    3.1173 O.2     1  UNL1       -0.2850
     18 C           0.4887   -0.0774    1.6658 C.ar    1  UNL1        0.1266
     19 N           0.4904   -1.5417    1.3675 N.am    1  UNL1       -0.2757
     20 C           0.6832   -1.6574    0.0151 C.2     1  UNL1        0.2442
     21 O           0.8067   -0.9436   -0.9304 O.2     1  UNL1       -0.2702
     22 C           0.8241   -2.9079   -0.8598 C.2     1  UNL1        0.0115
     23 C           1.6078   -3.0745   -2.1341 C.3     1  UNL1       -0.0348
     24 C           0.3300   -4.1113   -0.7345 C.2     1  UNL1       -0.0542
     25 C          -0.5918   -4.5524    0.2846 C.2     1  UNL1       -0.0649
     26 C          -1.2769   -5.4751    0.8873 C.2     1  UNL1       -0.0787
     27 C          -2.2684   -5.4073    2.0353 C.3     1  UNL1        0.0009
     28 C          -3.1799   -6.5467    1.8331 C.3     1  UNL1       -0.0566
     29 C          -2.7964   -4.0287    2.2436 C.3     1  UNL1        0.0661
     30 O          -3.4141   -4.0369    3.5589 O.3     1  UNL1       -0.3909
     31 C          -4.0423   -3.7668    1.3722 C.3     1  UNL1        0.0091
     32 C          -5.1502   -4.5067    2.0400 C.3     1  UNL1       -0.0577
     33 C          -4.2088   -2.2959    1.1161 C.3     1  UNL1        0.0661
     34 O          -3.0042   -1.8547    0.4753 O.3     1  UNL1       -0.3910
     35 C          -5.3497   -1.8950    0.2201 C.3     1  UNL1        0.0200
     36 C          -6.6768   -2.2468    0.8779 C.3     1  UNL1       -0.0567
     37 C          -5.4872   -0.4861   -0.2412 C.3     1  UNL1        0.1131
     38 O          -6.5379   -0.3916   -1.2148 O.3     1  UNL1       -0.4608
     39 C          -7.7420    0.2254   -1.0845 C.2     1  UNL1        0.3042
     40 C          -8.6646    0.1496   -2.2504 C.3     1  UNL1        0.0332
     41 O          -8.3329    0.8853   -0.1833 O.2     1  UNL1       -0.2512
     42 C          -4.3625    0.3956   -0.5108 C.3     1  UNL1        0.0236
     43 C          -3.6143    0.7955    0.7943 C.3     1  UNL1       -0.0564
     44 C           1.2977    0.7822    0.9331 C.ar    1  UNL1        0.1792
     45 O           2.3002    0.3014    0.2703 O.2     1  UNL1       -0.4496
     46 C           3.1328    1.0681   -0.4363 C.ar    1  UNL1        0.1592
     47 C           2.8630    2.4194   -0.4229 C.ar    1  UNL1        0.1481
     48 N           1.8291    2.9320    0.2580 N.ar    1  UNL1       -0.2361
     49 C           0.9820    2.1930    0.9743 C.ar    1  UNL1        0.1176
     50 C          -0.0767    2.5298    1.7395 C.ar    1  UNL1        0.0327
     51 C          -0.5674    3.8410    1.7291 C.ar    1  UNL1        0.0775
     52 C          -0.0364    5.0022    1.0120 C.2     1  UNL1        0.2504
     53 O           1.1183    5.4047    0.7764 O.2     1  UNL1       -0.2836
     54 C           3.7597    3.1105   -1.1626 C.ar    1  UNL1        0.1475
     55 O           3.5981    4.5054   -1.2308 O.3     1  UNL1       -0.5045
     56 C           4.8387    2.5447   -1.8629 C.ar    1  UNL1        0.0032
     57 C           4.9965    1.1554   -1.7849 C.ar    1  UNL1        0.0369
     58 C           4.1334    0.3579   -1.0586 C.ar    1  UNL1        0.0041
     59 N           6.0575    0.4178   -2.4438 N.pl3   1  UNL1       -0.3273
     60 C           6.6675    0.5350   -3.7565 C.3     1  UNL1        0.0250
     61 C           8.0881    0.9897   -3.5549 C.3     1  UNL1        0.0147
     62 N           8.7932    0.1281   -2.6149 N.3     1  UNL1       -0.2991
     63 C           9.6862    0.8149   -1.7941 C.3     1  UNL1        0.0013
     64 C          10.5785    0.0889   -0.8566 C.3     1  UNL1       -0.0339
     65 C          11.4970   -0.9263   -1.5065 C.3     1  UNL1       -0.0615
     66 C           9.9151   -0.4614    0.3629 C.3     1  UNL1       -0.0615
     67 C           8.0296   -0.9666   -2.1892 C.3     1  UNL1        0.0147
     68 C           6.6585   -0.6538   -1.6435 C.3     1  UNL1        0.0250
     69 H          -5.6769    4.0721   -1.7949 H       1  UNL1        0.0524
     70 H          -7.0454    3.8702   -0.5899 H       1  UNL1        0.0524
     71 H          -6.7863    2.7195   -1.9251 H       1  UNL1        0.0524
     72 H          -4.6418    1.7788   -2.2037 H       1  UNL1        0.0645
     73 H          -2.2301    2.2221   -1.1757 H       1  UNL1        0.0628
     74 H          -3.7943    4.4545    0.0269 H       1  UNL1        0.1022
     75 H          -0.6892    7.4780    0.7653 H       1  UNL1        0.0309
     76 H          -1.3980    7.0573   -0.8501 H       1  UNL1        0.0309
     77 H          -2.4574    7.3532    0.5491 H       1  UNL1        0.0309
     78 H          -4.1536    4.4802    3.2892 H       1  UNL1        0.0280
     79 H          -4.4221    2.9084    4.0774 H       1  UNL1        0.0280
     80 H          -3.3576    4.2077    4.8411 H       1  UNL1        0.0280
     81 H          -2.9805    1.3058    4.8633 H       1  UNL1        0.2922
     82 H           0.3842   -2.2954    1.9884 H       1  UNL1        0.1553
     83 H           0.9271   -3.3319   -2.9855 H       1  UNL1        0.0279
     84 H           2.0535   -2.0897   -2.4105 H       1  UNL1        0.0279
     85 H           2.4406   -3.7884   -2.0087 H       1  UNL1        0.0279
     86 H           0.3252   -5.0772   -1.1546 H       1  UNL1        0.0622
     87 H          -0.8741   -3.6485    0.7827 H       1  UNL1        0.0615
     88 H          -1.0157   -6.4319    0.4066 H       1  UNL1        0.0576
     89 H          -1.6384   -5.6406    2.9202 H       1  UNL1        0.0365
     90 H          -2.5259   -7.3781    1.3715 H       1  UNL1        0.0236
     91 H          -3.9831   -6.4556    1.1038 H       1  UNL1        0.0236
     92 H          -3.4304   -6.9944    2.8116 H       1  UNL1        0.0236
     93 H          -2.0956   -3.2686    2.2004 H       1  UNL1        0.0602
     94 H          -2.8560   -4.6740    4.1100 H       1  UNL1        0.2098
     95 H          -3.9001   -4.2816    0.3823 H       1  UNL1        0.0348
     96 H          -5.8296   -5.0660    1.3867 H       1  UNL1        0.0234
     97 H          -5.7624   -3.7535    2.6261 H       1  UNL1        0.0234
     98 H          -4.8022   -5.1648    2.9020 H       1  UNL1        0.0234
     99 H          -4.1963   -1.8240    2.1063 H       1  UNL1        0.0600
    100 H          -2.2657   -1.7246    1.0462 H       1  UNL1        0.2098
    101 H          -5.3254   -2.5910   -0.7056 H       1  UNL1        0.0359
    102 H          -7.5035   -1.5907    0.3829 H       1  UNL1        0.0234
    103 H          -6.7633   -1.9150    1.9217 H       1  UNL1        0.0234
    104 H          -6.9884   -3.2814    0.7839 H       1  UNL1        0.0234
    105 H          -6.0285    0.0330    0.6565 H       1  UNL1        0.0741
    106 H          -8.7377    1.1193   -2.7840 H       1  UNL1        0.0342
    107 H          -9.6996   -0.1369   -1.9684 H       1  UNL1        0.0342
    108 H          -8.3144   -0.6205   -2.9872 H       1  UNL1        0.0342
    109 H          -3.6253   -0.1211   -1.1947 H       1  UNL1        0.0362
    110 H          -2.5465    0.7690    0.5934 H       1  UNL1        0.0234
    111 H          -4.0165    0.3142    1.6734 H       1  UNL1        0.0234
    112 H          -3.8161    1.8991    1.0151 H       1  UNL1        0.0234
    113 H           4.1680    5.1022   -0.6253 H       1  UNL1        0.2922
    114 H           5.5340    3.1039   -2.4457 H       1  UNL1        0.0673
    115 H           4.2406   -0.7063   -0.9900 H       1  UNL1        0.0674
    116 H           6.6247   -0.4500   -4.2884 H       1  UNL1        0.0476
    117 H           6.1835    1.2887   -4.3986 H       1  UNL1        0.0476
    118 H           8.6671    0.9831   -4.5142 H       1  UNL1        0.0442
    119 H           8.0530    2.0055   -3.1248 H       1  UNL1        0.0442
    120 H           9.1115    1.5684   -1.1696 H       1  UNL1        0.0429
    121 H          10.3519    1.4970   -2.4269 H       1  UNL1        0.0429
    122 H          11.2997    0.8964   -0.4643 H       1  UNL1        0.0308
    123 H          12.5493   -0.7190   -1.2425 H       1  UNL1        0.0233
    124 H          11.3874   -0.9310   -2.6104 H       1  UNL1        0.0233
    125 H          11.2961   -1.9491   -1.0745 H       1  UNL1        0.0233
    126 H          10.4441   -0.0765    1.2910 H       1  UNL1        0.0233
    127 H           8.8549   -0.1523    0.3990 H       1  UNL1        0.0233
    128 H          10.0004   -1.5697    0.3820 H       1  UNL1        0.0233
    129 H           8.5613   -1.5761   -1.4470 H       1  UNL1        0.0442
    130 H           7.8874   -1.6739   -3.0778 H       1  UNL1        0.0442
    131 H           6.0181   -1.5785   -1.7812 H       1  UNL1        0.0476
    132 H           6.6979   -0.3492   -0.5910 H       1  UNL1        0.0476
@<TRIPOS>BOND
     1     1     2    1
     2     2     3    1
     3     3     4    1
     4     4     5    2
     5     5     6    1
     6     6     7    1
     7     7     8    1
     8     7     9    1
     9     9    10    1
    10    10    11   ar
    11    11    12    1
    12    11    13   ar
    13    13    14    1
    14    13    15   ar
    15    15    16   ar
    16    16    17    2
    17    16    18   ar
    18    18    19    1
    19    19    20   am
    20    20    21    2
    21    20    22    1
    22    22    23    1
    23    22    24    2
    24    24    25    1
    25    25    26    2
    26    26    27    1
    27    27    28    1
    28    27    29    1
    29    29    30    1
    30    29    31    1
    31    31    32    1
    32    31    33    1
    33    33    34    1
    34    33    35    1
    35    35    36    1
    36    35    37    1
    37    37    38    1
    38    38    39    1
    39    39    40    1
    40    39    41    2
    41    37    42    1
    42    42    43    1
    43    18    44   ar
    44    44    45   ar
    45    45    46   ar
    46    46    47   ar
    47    47    48   ar
    48    48    49   ar
    49    49    50   ar
    50    50    51   ar
    51    51    52    1
    52    52    53    2
    53    47    54   ar
    54    54    55    1
    55    54    56   ar
    56    56    57   ar
    57    57    58   ar
    58    57    59    1
    59    59    60    1
    60    60    61    1
    61    61    62    1
    62    62    63    1
    63    63    64    1
    64    64    65    1
    65    64    66    1
    66    62    67    1
    67    67    68    1
    68    42     3    1
    69    49    44    1
    70    68    59    1
    71    52     7    1
    72    51    10   ar
    73    50    15   ar
    74    58    46   ar
    75     1    69    1
    76     1    70    1
    77     1    71    1
    78     3    72    1
    79     4    73    1
    80     5    74    1
    81     8    75    1
    82     8    76    1
    83     8    77    1
    84    12    78    1
    85    12    79    1
    86    12    80    1
    87    14    81    1
    88    19    82    1
    89    23    83    1
    90    23    84    1
    91    23    85    1
    92    24    86    1
    93    25    87    1
    94    26    88    1
    95    27    89    1
    96    28    90    1
    97    28    91    1
    98    28    92    1
    99    29    93    1
   100    30    94    1
   101    31    95    1
   102    32    96    1
   103    32    97    1
   104    32    98    1
   105    33    99    1
   106    34   100    1
   107    35   101    1
   108    36   102    1
   109    36   103    1
   110    36   104    1
   111    37   105    1
   112    40   106    1
   113    40   107    1
   114    40   108    1
   115    42   109    1
   116    43   110    1
   117    43   111    1
   118    43   112    1
   119    55   113    1
   120    56   114    1
   121    58   115    1
   122    60   116    1
   123    60   117    1
   124    61   118    1
   125    61   119    1
   126    63   120    1
   127    63   121    1
   128    64   122    1
   129    65   123    1
   130    65   124    1
   131    65   125    1
   132    66   126    1
   133    66   127    1
   134    66   128    1
   135    67   129    1
   136    67   130    1
   137    68   131    1
   138    68   132    1
