
     RDKit          3D

 55 60  0  0  0  0  0  0  0  0999 V2000
    5.9243   -0.6075   -2.7380 C   0  0  0  0  0  0  0  0  0  0  0  0
    5.0351   -0.3510   -1.6630 O   0  0  0  0  0  0  0  0  0  0  0  0
    4.9976   -1.2437   -0.6132 C   0  0  0  0  0  0  0  0  0  0  0  0
    5.7868   -2.3283   -0.6092 N   0  0  0  0  0  0  0  0  0  0  0  0
    5.8039   -3.2423    0.3804 C   0  0  0  0  0  0  0  0  0  0  0  0
    4.9588   -3.0503    1.4527 C   0  0  0  0  0  0  0  0  0  0  0  0
    4.1379   -1.9421    1.4707 C   0  0  0  0  0  0  0  0  0  0  0  0
    4.1539   -1.0229    0.4258 C   0  0  0  0  0  0  0  0  0  0  0  0
    3.2528    0.1463    0.5259 C   0  0  0  0  0  0  0  0  0  0  0  0
    3.6126    1.4532    0.4843 N   0  0  0  0  0  0  0  0  0  0  0  0
    2.5444    2.2136    0.5980 N   0  0  0  0  0  0  0  0  0  0  0  0
    1.4318    1.4630    0.7194 C   0  0  0  0  0  0  0  0  0  0  0  0
    1.8847    0.1589    0.6720 C   0  0  0  0  0  0  0  0  0  0  0  0
    0.6986   -0.6836    0.7761 C   0  0  0  0  0  0  0  0  0  0  0  0
    0.7860   -1.9575    0.7665 O   0  0  0  0  0  0  0  0  0  0  0  0
   -0.4638    0.1219    0.8793 N   0  0  0  0  0  0  0  0  0  0  0  0
   -1.7818   -0.3725    0.9341 C   0  0  0  0  0  0  0  0  0  0  0  0
   -2.4177   -0.6291    2.1389 C   0  0  0  0  0  0  0  0  0  0  0  0
   -3.7030   -1.1247    2.1628 C   0  0  0  0  0  0  0  0  0  0  0  0
   -4.3396   -1.3806    3.4715 C   0  0  0  0  0  0  0  0  0  0  0  0
   -4.3249   -1.3536    0.9547 C   0  0  0  0  0  0  0  0  0  0  0  0
   -5.5304   -1.8148    0.6457 N   0  0  0  0  0  0  0  0  0  0  0  0
   -5.6632   -1.8536   -0.6736 N   0  0  0  0  0  0  0  0  0  0  0  0
   -4.5363   -1.4143   -1.2560 C   0  0  0  0  0  0  0  0  0  0  0  0
   -4.2021   -1.2698   -2.6989 C   0  0  0  0  0  0  0  0  0  0  0  0
   -3.7035   -1.1031   -0.2191 N   0  0  0  0  0  0  0  0  0  0  0  0
   -2.4536   -0.6205   -0.2575 C   0  0  0  0  0  0  0  0  0  0  0  0
   -0.0560    1.4919    0.9061 C   0  0  2  0  0  0  0  0  0  0  0  0
   -0.6966    2.3807   -0.0528 C   0  0  0  0  0  0  0  0  0  0  0  0
   -0.0860    3.1107   -1.0302 C   0  0  0  0  0  0  0  0  0  0  0  0
   -0.7927    3.9528   -1.8830 C   0  0  0  0  0  0  0  0  0  0  0  0
   -2.1549    4.0902   -1.7788 C   0  0  0  0  0  0  0  0  0  0  0  0
   -3.0643    5.1366   -2.8346 Cl  0  0  0  0  0  0  0  0  0  0  0  0
   -2.7998    3.3637   -0.7988 C   0  0  0  0  0  0  0  0  0  0  0  0
   -2.0884    2.5364    0.0353 C   0  0  0  0  0  0  0  0  0  0  0  0
    5.4378   -0.1845   -3.6420 H   0  0  0  0  0  0  0  0  0  0  0  0
    6.0023   -1.7177   -2.9053 H   0  0  0  0  0  0  0  0  0  0  0  0
    6.9288   -0.1653   -2.6006 H   0  0  0  0  0  0  0  0  0  0  0  0
    6.4441   -4.1166    0.3803 H   0  0  0  0  0  0  0  0  0  0  0  0
    4.9731   -3.7949    2.2601 H   0  0  0  0  0  0  0  0  0  0  0  0
    3.4823   -1.7957    2.3063 H   0  0  0  0  0  0  0  0  0  0  0  0
    2.5456    3.2545    0.6003 H   0  0  0  0  0  0  0  0  0  0  0  0
   -1.9261   -0.4482    3.0860 H   0  0  0  0  0  0  0  0  0  0  0  0
   -3.5663   -1.4158    4.2654 H   0  0  0  0  0  0  0  0  0  0  0  0
   -4.9413   -0.4513    3.7040 H   0  0  0  0  0  0  0  0  0  0  0  0
   -4.9944   -2.2692    3.4714 H   0  0  0  0  0  0  0  0  0  0  0  0
   -3.6565   -0.2997   -2.8703 H   0  0  0  0  0  0  0  0  0  0  0  0
   -5.1354   -1.1665   -3.3159 H   0  0  0  0  0  0  0  0  0  0  0  0
   -3.6578   -2.1403   -3.1135 H   0  0  0  0  0  0  0  0  0  0  0  0
   -1.9393   -0.4131   -1.1712 H   0  0  0  0  0  0  0  0  0  0  0  0
   -0.2757    1.8425    1.9674 H   0  0  0  0  0  0  0  0  0  0  0  0
    0.9675    3.0337   -1.1509 H   0  0  0  0  0  0  0  0  0  0  0  0
   -0.2931    4.5380   -2.6665 H   0  0  0  0  0  0  0  0  0  0  0  0
   -3.8864    3.4468   -0.6841 H   0  0  0  0  0  0  0  0  0  0  0  0
   -2.6598    2.0088    0.7860 H   0  0  0  0  0  0  0  0  0  0  0  0
  1  2  1  0
  2  3  1  0
  3  4  2  0
  4  5  1  0
  5  6  2  0
  6  7  1  0
  7  8  2  0
  8  9  1  0
  9 10  2  0
 10 11  1  0
 11 12  1  0
 12 13  2  0
 13 14  1  0
 14 15  2  0
 14 16  1  0
 16 17  1  0
 17 18  1  0
 18 19  2  0
 19 20  1  0
 19 21  1  0
 21 22  2  0
 22 23  1  0
 23 24  2  0
 24 25  1  0
 24 26  1  0
 26 27  1  0
 16 28  1  0
 28 29  1  0
 29 30  2  0
 30 31  1  0
 31 32  2  0
 32 33  1  0
 32 34  1  0
 34 35  2  0
  8  3  1  0
 13  9  1  0
 27 17  2  0
 35 29  1  0
 28 12  1  0
 26 21  1  0
  1 36  1  0
  1 37  1  0
  1 38  1  0
  5 39  1  0
  6 40  1  0
  7 41  1  0
 11 42  1  0
 18 43  1  0
 20 44  1  0
 20 45  1  0
 20 46  1  0
 25 47  1  0
 25 48  1  0
 25 49  1  0
 27 50  1  0
 28 51  1  1
 30 52  1  0
 31 53  1  0
 34 54  1  0
 35 55  1  0
M  END
$$$$
