@<TRIPOS>MOLECULE
*****
 55 60 0 0 0
SMALL
GASTEIGER

@<TRIPOS>ATOM
      1 C           5.9243   -0.6075   -2.7380 C.3     1  UNL1        0.0804
      2 O           5.0351   -0.3510   -1.6630 O.3     1  UNL1       -0.4792
      3 C           4.9976   -1.2437   -0.6132 C.ar    1  UNL1        0.2239
      4 N           5.7868   -2.3283   -0.6092 N.ar    1  UNL1       -0.2208
      5 C           5.8039   -3.2423    0.3804 C.ar    1  UNL1        0.0314
      6 C           4.9588   -3.0503    1.4527 C.ar    1  UNL1       -0.0427
      7 C           4.1379   -1.9421    1.4707 C.ar    1  UNL1       -0.0459
      8 C           4.1539   -1.0229    0.4258 C.ar    1  UNL1        0.0643
      9 C           3.2528    0.1463    0.5259 C.ar    1  UNL1        0.1100
     10 N           3.6126    1.4532    0.4843 N.ar    1  UNL1       -0.1726
     11 N           2.5444    2.2136    0.5980 N.ar    1  UNL1       -0.2781
     12 C           1.4318    1.4630    0.7194 C.ar    1  UNL1        0.0740
     13 C           1.8847    0.1589    0.6720 C.ar    1  UNL1        0.0877
     14 C           0.6986   -0.6836    0.7761 C.2     1  UNL1        0.2556
     15 O           0.7860   -1.9575    0.7665 O.2     1  UNL1       -0.2695
     16 N          -0.4638    0.1219    0.8793 N.am    1  UNL1       -0.2529
     17 C          -1.7818   -0.3725    0.9341 C.ar    1  UNL1        0.0545
     18 C          -2.4177   -0.6291    2.1389 C.ar    1  UNL1       -0.0324
     19 C          -3.7030   -1.1247    2.1628 C.ar    1  UNL1       -0.0041
     20 C          -4.3396   -1.3806    3.4715 C.3     1  UNL1       -0.0361
     21 C          -4.3249   -1.3536    0.9547 C.ar    1  UNL1        0.1641
     22 N          -5.5304   -1.8148    0.6457 N.ar    1  UNL1       -0.1292
     23 N          -5.6632   -1.8536   -0.6736 N.ar    1  UNL1       -0.1340
     24 C          -4.5363   -1.4143   -1.2560 C.ar    1  UNL1        0.1347
     25 C          -4.2021   -1.2698   -2.6989 C.3     1  UNL1       -0.0041
     26 N          -3.7035   -1.1031   -0.2191 N.ar    1  UNL1       -0.2846
     27 C          -2.4536   -0.6205   -0.2575 C.ar    1  UNL1        0.0344
     28 C          -0.0560    1.4919    0.9061 C.3     1  UNL1        0.0986
     29 C          -0.6966    2.3807   -0.0528 C.ar    1  UNL1       -0.0207
     30 C          -0.0860    3.1107   -1.0302 C.ar    1  UNL1       -0.0550
     31 C          -0.7927    3.9528   -1.8830 C.ar    1  UNL1       -0.0431
     32 C          -2.1549    4.0902   -1.7788 C.ar    1  UNL1        0.0410
     33 CL         -3.0643    5.1366   -2.8346 Cl      1  UNL1       -0.0835
     34 C          -2.7998    3.3637   -0.7988 C.ar    1  UNL1       -0.0431
     35 C          -2.0884    2.5364    0.0353 C.ar    1  UNL1       -0.0550
     36 H           5.4378   -0.1845   -3.6420 H       1  UNL1        0.0660
     37 H           6.0023   -1.7177   -2.9053 H       1  UNL1        0.0660
     38 H           6.9288   -0.1653   -2.6006 H       1  UNL1        0.0660
     39 H           6.4441   -4.1166    0.3803 H       1  UNL1        0.0831
     40 H           4.9731   -3.7949    2.2601 H       1  UNL1        0.0633
     41 H           3.4823   -1.7957    2.3063 H       1  UNL1        0.0626
     42 H           2.5456    3.2545    0.6003 H       1  UNL1        0.1886
     43 H          -1.9261   -0.4482    3.0860 H       1  UNL1        0.0640
     44 H          -3.5663   -1.4158    4.2654 H       1  UNL1        0.0279
     45 H          -4.9413   -0.4513    3.7040 H       1  UNL1        0.0279
     46 H          -4.9944   -2.2692    3.4714 H       1  UNL1        0.0279
     47 H          -3.6565   -0.2997   -2.8703 H       1  UNL1        0.0308
     48 H          -5.1354   -1.1665   -3.3159 H       1  UNL1        0.0308
     49 H          -3.6578   -2.1403   -3.1135 H       1  UNL1        0.0308
     50 H          -1.9393   -0.4131   -1.1712 H       1  UNL1        0.0833
     51 H          -0.2757    1.8425    1.9674 H       1  UNL1        0.0620
     52 H           0.9675    3.0337   -1.1509 H       1  UNL1        0.0621
     53 H          -0.2931    4.5380   -2.6665 H       1  UNL1        0.0632
     54 H          -3.8864    3.4468   -0.6841 H       1  UNL1        0.0632
     55 H          -2.6598    2.0088    0.7860 H       1  UNL1        0.0621
@<TRIPOS>BOND
     1     1     2    1
     2     2     3    1
     3     3     4   ar
     4     4     5   ar
     5     5     6   ar
     6     6     7   ar
     7     7     8   ar
     8     8     9    1
     9     9    10   ar
    10    10    11   ar
    11    11    12   ar
    12    12    13   ar
    13    13    14    1
    14    14    15    2
    15    14    16   am
    16    16    17    1
    17    17    18   ar
    18    18    19   ar
    19    19    20    1
    20    19    21   ar
    21    21    22   ar
    22    22    23   ar
    23    23    24   ar
    24    24    25    1
    25    24    26   ar
    26    26    27   ar
    27    16    28    1
    28    28    29    1
    29    29    30   ar
    30    30    31   ar
    31    31    32   ar
    32    32    33    1
    33    32    34   ar
    34    34    35   ar
    35     8     3   ar
    36    13     9   ar
    37    27    17   ar
    38    35    29   ar
    39    28    12    1
    40    26    21   ar
    41     1    36    1
    42     1    37    1
    43     1    38    1
    44     5    39    1
    45     6    40    1
    46     7    41    1
    47    11    42    1
    48    18    43    1
    49    20    44    1
    50    20    45    1
    51    20    46    1
    52    25    47    1
    53    25    48    1
    54    25    49    1
    55    27    50    1
    56    28    51    1
    57    30    52    1
    58    31    53    1
    59    34    54    1
    60    35    55    1
