
     RDKit          3D

 92 92  0  0  0  0  0  0  0  0999 V2000
   -8.7850    3.3890   -1.3275 C   0  0  0  0  0  0  0  0  0  0  0  0
   -7.4978    2.9563   -1.0184 O   0  0  0  0  0  0  0  0  0  0  0  0
   -7.3613    1.5727   -1.0465 C   0  0  0  0  0  0  0  0  0  0  0  0
   -8.2509    0.8384   -0.1012 C   0  0  0  0  0  0  0  0  0  0  0  0
   -8.0706   -0.6789   -0.1582 C   0  0  0  0  0  0  0  0  0  0  0  0
   -6.8914   -1.1539    0.1333 O   0  0  0  0  0  0  0  0  0  0  0  0
   -5.7337   -1.6066    0.4021 C   0  0  0  0  0  0  0  0  0  0  0  0
   -5.6058   -2.4781    1.4691 C   0  0  0  0  0  0  0  0  0  0  0  0
   -6.7004   -2.8406    2.2163 O   0  0  0  0  0  0  0  0  0  0  0  0
   -6.5449   -3.7314    3.3038 C   0  0  0  0  0  0  0  0  0  0  0  0
   -4.3903   -3.0397    1.8583 C   0  0  0  0  0  0  0  0  0  0  0  0
   -3.2943   -2.6642    1.0950 C   0  0  0  0  0  0  0  0  0  0  0  0
   -3.3356   -1.8017    0.0164 C   0  0  0  0  0  0  0  0  0  0  0  0
   -2.0728   -1.4809   -0.7423 C   0  0  0  0  0  0  0  0  0  0  0  0
   -1.3369   -0.3033   -0.1503 C   0  0  1  0  0  0  0  0  0  0  0  0
   -0.0883    0.0791   -0.8428 C   0  0  0  0  0  0  0  0  0  0  0  0
    1.0186   -0.8768   -0.9504 C   0  0  2  0  0  0  0  0  0  0  0  0
    0.5825   -2.0595   -1.6726 N   0  0  0  0  0  0  0  0  0  0  0  0
    1.7416   -1.2457    0.3084 C   0  0  1  0  0  0  0  0  0  0  0  0
    2.8300   -2.0108   -0.0673 O   0  0  0  0  0  0  0  0  0  0  0  0
    2.1952   -0.0485    1.0968 C   0  0  0  0  0  0  0  0  0  0  0  0
    3.1458    0.8119    0.2852 C   0  0  1  0  0  0  0  0  0  0  0  0
    3.4882    2.0171    1.1631 C   0  0  0  0  0  0  0  0  0  0  0  0
    4.1694    1.6338    2.4420 C   0  0  0  0  0  0  0  0  0  0  0  0
    4.3136    2.9729    0.3743 C   0  0  0  0  0  0  0  0  0  0  0  0
    4.4086    0.0650    0.0507 C   0  0  0  0  0  0  0  0  0  0  0  0
    4.7304   -0.7886    0.9510 O   0  0  0  0  0  0  0  0  0  0  0  0
    5.3339    0.1084   -0.9927 N   0  0  0  0  0  0  0  0  0  0  0  0
    6.5411   -0.4442   -1.4624 C   0  0  0  0  0  0  0  0  0  0  0  0
    7.7289   -0.1961   -0.5963 C   0  0  0  0  0  0  0  0  0  0  0  0
    7.6538   -0.7171    0.7913 C   0  0  0  0  0  0  0  0  0  0  0  0
    7.9923    1.3032   -0.5513 C   0  0  0  0  0  0  0  0  0  0  0  0
    8.9019   -0.8615   -1.3183 C   0  0  0  0  0  0  0  0  0  0  0  0
    9.4591   -0.6612   -2.6050 N   0  0  0  0  0  0  0  0  0  0  0  0
    9.5978   -1.7861   -0.7801 O   0  0  0  0  0  0  0  0  0  0  0  0
   -2.2340    0.9301   -0.1692 C   0  0  0  0  0  0  0  0  0  0  0  0
   -1.4965    2.1071    0.4344 C   0  0  0  0  0  0  0  0  0  0  0  0
   -2.5826    1.3332   -1.5881 C   0  0  0  0  0  0  0  0  0  0  0  0
   -4.5836   -1.2980   -0.2904 C   0  0  0  0  0  0  0  0  0  0  0  0
   -9.5354    3.0010   -0.6098 H   0  0  0  0  0  0  0  0  0  0  0  0
   -9.0673    3.0910   -2.3618 H   0  0  0  0  0  0  0  0  0  0  0  0
   -8.7988    4.4885   -1.2270 H   0  0  0  0  0  0  0  0  0  0  0  0
   -7.5436    1.2678   -2.1202 H   0  0  0  0  0  0  0  0  0  0  0  0
   -6.2765    1.3664   -0.8626 H   0  0  0  0  0  0  0  0  0  0  0  0
   -8.1096    1.2248    0.9043 H   0  0  0  0  0  0  0  0  0  0  0  0
   -9.3108    1.0046   -0.4296 H   0  0  0  0  0  0  0  0  0  0  0  0
   -8.3338   -0.9188   -1.2462 H   0  0  0  0  0  0  0  0  0  0  0  0
   -8.9517   -1.1643    0.3784 H   0  0  0  0  0  0  0  0  0  0  0  0
   -6.0902   -4.6670    2.8875 H   0  0  0  0  0  0  0  0  0  0  0  0
   -7.5320   -3.9347    3.7848 H   0  0  0  0  0  0  0  0  0  0  0  0
   -5.8221   -3.3031    4.0027 H   0  0  0  0  0  0  0  0  0  0  0  0
   -4.2902   -3.7179    2.6905 H   0  0  0  0  0  0  0  0  0  0  0  0
   -2.3288   -3.0632    1.3453 H   0  0  0  0  0  0  0  0  0  0  0  0
   -2.2843   -1.4049   -1.8116 H   0  0  0  0  0  0  0  0  0  0  0  0
   -1.4595   -2.4244   -0.6184 H   0  0  0  0  0  0  0  0  0  0  0  0
   -1.2123   -0.5578    0.9228 H   0  0  0  0  0  0  0  0  0  0  0  0
    0.3150    1.0751   -0.4935 H   0  0  0  0  0  0  0  0  0  0  0  0
   -0.3965    0.3265   -1.9091 H   0  0  0  0  0  0  0  0  0  0  0  0
    1.7896   -0.4021   -1.6288 H   0  0  0  0  0  0  0  0  0  0  0  0
   -0.0293   -1.8390   -2.4637 H   0  0  0  0  0  0  0  0  0  0  0  0
    1.3915   -2.6276   -2.0135 H   0  0  0  0  0  0  0  0  0  0  0  0
    1.1465   -1.8629    1.0034 H   0  0  0  0  0  0  0  0  0  0  0  0
    2.8843   -2.8725    0.4053 H   0  0  0  0  0  0  0  0  0  0  0  0
    1.3280    0.5707    1.3402 H   0  0  0  0  0  0  0  0  0  0  0  0
    2.7333   -0.4128    2.0191 H   0  0  0  0  0  0  0  0  0  0  0  0
    2.6951    1.1084   -0.6385 H   0  0  0  0  0  0  0  0  0  0  0  0
    2.5026    2.4933    1.4840 H   0  0  0  0  0  0  0  0  0  0  0  0
    4.4682    2.5968    2.9514 H   0  0  0  0  0  0  0  0  0  0  0  0
    3.5383    1.0420    3.1304 H   0  0  0  0  0  0  0  0  0  0  0  0
    5.1410    1.0991    2.2295 H   0  0  0  0  0  0  0  0  0  0  0  0
    3.9375    4.0059    0.6586 H   0  0  0  0  0  0  0  0  0  0  0  0
    5.3959    2.9167    0.6518 H   0  0  0  0  0  0  0  0  0  0  0  0
    4.2350    2.8943   -0.7177 H   0  0  0  0  0  0  0  0  0  0  0  0
    4.9400    0.8485   -1.6608 H   0  0  0  0  0  0  0  0  0  0  0  0
    6.4044   -1.5771   -1.5945 H   0  0  0  0  0  0  0  0  0  0  0  0
    6.8075   -0.1096   -2.4945 H   0  0  0  0  0  0  0  0  0  0  0  0
    7.2333   -1.7191    0.9209 H   0  0  0  0  0  0  0  0  0  0  0  0
    7.2267    0.0666    1.4508 H   0  0  0  0  0  0  0  0  0  0  0  0
    8.7205   -0.8110    1.1583 H   0  0  0  0  0  0  0  0  0  0  0  0
    7.6629    1.8222   -1.4825 H   0  0  0  0  0  0  0  0  0  0  0  0
    7.4077    1.7296    0.2818 H   0  0  0  0  0  0  0  0  0  0  0  0
    9.0763    1.4955   -0.3251 H   0  0  0  0  0  0  0  0  0  0  0  0
   10.2704   -0.0361   -2.7944 H   0  0  0  0  0  0  0  0  0  0  0  0
    8.9965   -1.1924   -3.3805 H   0  0  0  0  0  0  0  0  0  0  0  0
   -3.1058    0.7244    0.4667 H   0  0  0  0  0  0  0  0  0  0  0  0
   -0.9025    2.6881   -0.2644 H   0  0  0  0  0  0  0  0  0  0  0  0
   -0.8594    1.6766    1.2362 H   0  0  0  0  0  0  0  0  0  0  0  0
   -2.2719    2.7807    0.8758 H   0  0  0  0  0  0  0  0  0  0  0  0
   -2.0129    2.2454   -1.9243 H   0  0  0  0  0  0  0  0  0  0  0  0
   -2.3888    0.5560   -2.3335 H   0  0  0  0  0  0  0  0  0  0  0  0
   -3.6516    1.6869   -1.5711 H   0  0  0  0  0  0  0  0  0  0  0  0
   -4.6587   -0.6194   -1.1288 H   0  0  0  0  0  0  0  0  0  0  0  0
  1  2  1  0
  2  3  1  0
  3  4  1  0
  4  5  1  0
  5  6  1  0
  6  7  1  0
  7  8  2  0
  8  9  1  0
  9 10  1  0
  8 11  1  0
 11 12  2  0
 12 13  1  0
 13 14  1  0
 14 15  1  0
 15 16  1  0
 16 17  1  0
 17 18  1  0
 17 19  1  0
 19 20  1  0
 19 21  1  0
 21 22  1  0
 22 23  1  0
 23 24  1  0
 23 25  1  0
 22 26  1  0
 26 27  2  0
 26 28  1  0
 28 29  1  0
 29 30  1  0
 30 31  1  0
 30 32  1  0
 30 33  1  0
 33 34  1  0
 33 35  2  0
 15 36  1  0
 36 37  1  0
 36 38  1  0
 13 39  2  0
 39  7  1  0
  1 40  1  0
  1 41  1  0
  1 42  1  0
  3 43  1  0
  3 44  1  0
  4 45  1  0
  4 46  1  0
  5 47  1  0
  5 48  1  0
 10 49  1  0
 10 50  1  0
 10 51  1  0
 11 52  1  0
 12 53  1  0
 14 54  1  0
 14 55  1  0
 15 56  1  1
 16 57  1  0
 16 58  1  0
 17 59  1  6
 18 60  1  0
 18 61  1  0
 19 62  1  1
 20 63  1  0
 21 64  1  0
 21 65  1  0
 22 66  1  6
 23 67  1  0
 24 68  1  0
 24 69  1  0
 24 70  1  0
 25 71  1  0
 25 72  1  0
 25 73  1  0
 28 74  1  0
 29 75  1  0
 29 76  1  0
 31 77  1  0
 31 78  1  0
 31 79  1  0
 32 80  1  0
 32 81  1  0
 32 82  1  0
 34 83  1  0
 34 84  1  0
 36 85  1  0
 37 86  1  0
 37 87  1  0
 37 88  1  0
 38 89  1  0
 38 90  1  0
 38 91  1  0
 39 92  1  0
M  END
$$$$
