@<TRIPOS>MOLECULE
*****
 57 60 0 0 0
SMALL
GASTEIGER

@<TRIPOS>ATOM
      1 C          -0.5562    2.0974   -0.4016 C.3     1  UNL1       -0.0421
      2 C           0.1048    0.8787   -0.9546 C.3     1  UNL1        0.0515
      3 C           1.4984    0.7113   -0.5195 C.ar    1  UNL1       -0.0271
      4 C           2.1511    1.6609    0.2319 C.ar    1  UNL1       -0.0562
      5 C           3.4766    1.4841    0.6354 C.ar    1  UNL1       -0.0536
      6 C           4.1473    0.3539    0.2848 C.ar    1  UNL1       -0.0151
      7 C           5.5300    0.1948    0.7192 C.ar    1  UNL1        0.0175
      8 C           5.9389   -1.0130    1.2434 C.ar    1  UNL1       -0.0486
      9 C           7.2271   -1.2334    1.6728 C.ar    1  UNL1       -0.0257
     10 C           8.1567   -0.2114    1.5799 C.ar    1  UNL1        0.1262
     11 F           9.4273   -0.4093    1.9967 F       1  UNL1       -0.2054
     12 C           7.7793    1.0142    1.0583 C.ar    1  UNL1        0.0094
     13 C           6.4706    1.1933    0.6374 C.ar    1  UNL1        0.1338
     14 F           6.0890    2.3798    0.1280 F       1  UNL1       -0.2048
     15 C           3.5223   -0.6109   -0.4642 C.ar    1  UNL1       -0.0536
     16 C           2.1965   -0.4244   -0.8626 C.ar    1  UNL1       -0.0562
     17 N          -0.6781   -0.3490   -0.7356 N.am    1  UNL1       -0.2605
     18 C          -1.2191   -1.1389   -1.8093 C.3     1  UNL1        0.0224
     19 C          -2.5040   -1.7824   -1.4045 C.3     1  UNL1        0.0075
     20 C          -3.1079   -1.2797   -0.1193 C.3     1  UNL1        0.1435
     21 C          -4.2355   -2.2619    0.1964 C.3     1  UNL1        0.0148
     22 C          -4.9813   -1.9475    1.4429 C.3     1  UNL1        0.0482
     23 O          -5.9999   -2.9042    1.6736 O.3     1  UNL1       -0.3949
     24 C          -3.6240    0.0894   -0.2822 C.ar    1  UNL1       -0.0039
     25 C          -3.9063    0.7863    0.9058 C.ar    1  UNL1       -0.0521
     26 C          -4.4112    2.0563    0.8282 C.ar    1  UNL1       -0.0261
     27 C          -4.6303    2.6217   -0.4100 C.ar    1  UNL1        0.1234
     28 F          -5.1326    3.8849   -0.4393 F       1  UNL1       -0.2055
     29 C          -4.3537    1.9399   -1.5784 C.ar    1  UNL1       -0.0261
     30 C          -3.8440    0.6569   -1.5079 C.ar    1  UNL1       -0.0521
     31 O          -2.1450   -1.2920    0.9371 O.3     1  UNL1       -0.4388
     32 C          -0.8867   -0.7669    0.5936 C.2     1  UNL1        0.4042
     33 O           0.0352   -0.6691    1.4474 O.2     1  UNL1       -0.2262
     34 H          -1.5026    2.2613   -0.9971 H       1  UNL1        0.0251
     35 H          -0.8624    2.0324    0.6412 H       1  UNL1        0.0251
     36 H           0.0928    2.9649   -0.6424 H       1  UNL1        0.0251
     37 H           0.1292    1.0029   -2.0782 H       1  UNL1        0.0549
     38 H           1.6892    2.5824    0.5504 H       1  UNL1        0.0621
     39 H           3.9889    2.2310    1.2258 H       1  UNL1        0.0624
     40 H           5.1954   -1.8073    1.3098 H       1  UNL1        0.0625
     41 H           7.5329   -2.1838    2.0809 H       1  UNL1        0.0646
     42 H           8.5263    1.8057    0.9938 H       1  UNL1        0.0675
     43 H           4.0820   -1.4926   -0.7238 H       1  UNL1        0.0624
     44 H           1.7678   -1.2208   -1.4481 H       1  UNL1        0.0621
     45 H          -0.4913   -1.9647   -2.0626 H       1  UNL1        0.0467
     46 H          -1.4063   -0.5214   -2.7234 H       1  UNL1        0.0467
     47 H          -3.2140   -1.7454   -2.2516 H       1  UNL1        0.0322
     48 H          -2.3145   -2.9119   -1.3034 H       1  UNL1        0.0322
     49 H          -3.7420   -3.2636    0.3139 H       1  UNL1        0.0329
     50 H          -4.8829   -2.3190   -0.7000 H       1  UNL1        0.0329
     51 H          -4.3622   -1.9143    2.3323 H       1  UNL1        0.0558
     52 H          -5.5682   -0.9984    1.2655 H       1  UNL1        0.0558
     53 H          -5.6617   -3.7413    1.2476 H       1  UNL1        0.2094
     54 H          -3.7228    0.3385    1.8785 H       1  UNL1        0.0622
     55 H          -4.6392    2.6188    1.7166 H       1  UNL1        0.0646
     56 H          -4.5256    2.3840   -2.5492 H       1  UNL1        0.0646
     57 H          -3.6444    0.1528   -2.4567 H       1  UNL1        0.0622
@<TRIPOS>BOND
     1     1     2    1
     2     2     3    1
     3     3     4   ar
     4     4     5   ar
     5     5     6   ar
     6     6     7    1
     7     7     8   ar
     8     8     9   ar
     9     9    10   ar
    10    10    11    1
    11    10    12   ar
    12    12    13   ar
    13    13    14    1
    14     6    15   ar
    15    15    16   ar
    16     2    17    1
    17    17    18    1
    18    18    19    1
    19    19    20    1
    20    20    21    1
    21    21    22    1
    22    22    23    1
    23    20    24    1
    24    24    25   ar
    25    25    26   ar
    26    26    27   ar
    27    27    28    1
    28    27    29   ar
    29    29    30   ar
    30    20    31    1
    31    31    32    1
    32    32    33    2
    33    16     3   ar
    34    32    17   am
    35    13     7   ar
    36    30    24   ar
    37     1    34    1
    38     1    35    1
    39     1    36    1
    40     2    37    1
    41     4    38    1
    42     5    39    1
    43     8    40    1
    44     9    41    1
    45    12    42    1
    46    15    43    1
    47    16    44    1
    48    18    45    1
    49    18    46    1
    50    19    47    1
    51    19    48    1
    52    21    49    1
    53    21    50    1
    54    22    51    1
    55    22    52    1
    56    23    53    1
    57    25    54    1
    58    26    55    1
    59    29    56    1
    60    30    57    1
