
     RDKit          3D

 48 49  0  0  0  0  0  0  0  0999 V2000
   -0.9542    2.0995    0.5664 C   0  0  0  0  0  0  0  0  0  0  0  0
   -1.0347    0.6977    1.0570 C   0  0  0  0  0  0  0  0  0  0  0  0
   -2.4382    0.1272    0.9513 C   0  0  0  0  0  0  0  0  0  0  0  0
   -3.0325    0.0769   -0.3997 C   0  0  0  0  0  0  0  0  0  0  0  0
   -4.4382   -0.4942   -0.3560 C   0  0  0  0  0  0  0  0  0  0  0  0
   -5.5143    0.3663   -0.2056 C   0  0  0  0  0  0  0  0  0  0  0  0
   -6.8244   -0.1188   -0.1514 C   0  0  0  0  0  0  0  0  0  0  0  0
   -7.0587   -1.4815   -0.2496 C   0  0  0  0  0  0  0  0  0  0  0  0
   -5.9563   -2.2989   -0.3983 C   0  0  0  0  0  0  0  0  0  0  0  0
   -4.6402   -1.8572   -0.4563 C   0  0  0  0  0  0  0  0  0  0  0  0
    0.0100   -0.1897    0.8347 N   0  0  0  0  0  0  0  0  0  0  0  0
    0.6150   -0.5798   -0.3239 C   0  0  0  0  0  0  0  0  0  0  0  0
    1.5156    0.3054   -1.1087 C   0  0  0  0  0  0  0  0  0  0  0  0
    1.0120    1.4738   -1.5934 O   0  0  0  0  0  0  0  0  0  0  0  0
    2.8455    0.5463   -0.4711 C   0  0  0  0  0  0  0  0  0  0  0  0
    3.8966   -0.3402   -0.7092 C   0  0  0  0  0  0  0  0  0  0  0  0
    5.1312   -0.1724   -0.1570 C   0  0  0  0  0  0  0  0  0  0  0  0
    6.2254   -1.1023   -0.4155 C   0  0  0  0  0  0  0  0  0  0  0  0
    6.1508   -2.2401   -1.2569 N   0  0  0  0  0  0  0  0  0  0  0  0
    7.3745   -0.9949    0.0881 O   0  0  0  0  0  0  0  0  0  0  0  0
    5.4190    0.8863    0.6737 C   0  0  0  0  0  0  0  0  0  0  0  0
    6.6896    1.0182    1.2145 O   0  0  0  0  0  0  0  0  0  0  0  0
    4.4114    1.7764    0.9289 C   0  0  0  0  0  0  0  0  0  0  0  0
    3.1712    1.5916    0.3625 C   0  0  0  0  0  0  0  0  0  0  0  0
   -1.5990    2.7187    1.2509 H   0  0  0  0  0  0  0  0  0  0  0  0
    0.0620    2.4878    0.7191 H   0  0  0  0  0  0  0  0  0  0  0  0
   -1.2410    2.2670   -0.4858 H   0  0  0  0  0  0  0  0  0  0  0  0
   -0.9788    0.8671    2.2345 H   0  0  0  0  0  0  0  0  0  0  0  0
   -2.4130   -0.8765    1.4206 H   0  0  0  0  0  0  0  0  0  0  0  0
   -3.1380    0.7258    1.6037 H   0  0  0  0  0  0  0  0  0  0  0  0
   -3.1536    1.0481   -0.8957 H   0  0  0  0  0  0  0  0  0  0  0  0
   -2.4858   -0.6046   -1.0783 H   0  0  0  0  0  0  0  0  0  0  0  0
   -5.3196    1.4429   -0.1291 H   0  0  0  0  0  0  0  0  0  0  0  0
   -7.6368    0.6164   -0.0311 H   0  0  0  0  0  0  0  0  0  0  0  0
   -8.0665   -1.8620   -0.2087 H   0  0  0  0  0  0  0  0  0  0  0  0
   -6.2137   -3.3597   -0.4686 H   0  0  0  0  0  0  0  0  0  0  0  0
   -3.8310   -2.5381   -0.5724 H   0  0  0  0  0  0  0  0  0  0  0  0
    0.1007   -0.8962    1.6158 H   0  0  0  0  0  0  0  0  0  0  0  0
    1.1811   -1.5759   -0.1473 H   0  0  0  0  0  0  0  0  0  0  0  0
   -0.1797   -0.9518   -1.0542 H   0  0  0  0  0  0  0  0  0  0  0  0
    1.7573   -0.3073   -2.0564 H   0  0  0  0  0  0  0  0  0  0  0  0
    0.5391    1.3534   -2.4569 H   0  0  0  0  0  0  0  0  0  0  0  0
    3.7193   -1.1859   -1.3533 H   0  0  0  0  0  0  0  0  0  0  0  0
    6.0055   -3.2434   -1.4523 H   0  0  0  0  0  0  0  0  0  0  0  0
    6.3342   -2.0208   -2.2575 H   0  0  0  0  0  0  0  0  0  0  0  0
    6.9985    1.8401    1.7148 H   0  0  0  0  0  0  0  0  0  0  0  0
    4.5731    2.6419    1.5809 H   0  0  0  0  0  0  0  0  0  0  0  0
    2.4095    2.3171    0.5871 H   0  0  0  0  0  0  0  0  0  0  0  0
  1  2  1  0
  2  3  1  0
  3  4  1  0
  4  5  1  0
  5  6  2  0
  6  7  1  0
  7  8  2  0
  8  9  1  0
  9 10  2  0
  2 11  1  0
 11 12  1  0
 12 13  1  0
 13 14  1  0
 13 15  1  0
 15 16  2  0
 16 17  1  0
 17 18  1  0
 18 19  1  0
 18 20  2  0
 17 21  2  0
 21 22  1  0
 21 23  1  0
 23 24  2  0
 10  5  1  0
 24 15  1  0
  1 25  1  0
  1 26  1  0
  1 27  1  0
  2 28  1  0
  3 29  1  0
  3 30  1  0
  4 31  1  0
  4 32  1  0
  6 33  1  0
  7 34  1  0
  8 35  1  0
  9 36  1  0
 10 37  1  0
 11 38  1  0
 12 39  1  0
 12 40  1  0
 13 41  1  0
 14 42  1  0
 16 43  1  0
 19 44  1  0
 19 45  1  0
 22 46  1  0
 23 47  1  0
 24 48  1  0
M  END
$$$$
