@<TRIPOS>MOLECULE
*****
 48 49 0 0 0
SMALL
GASTEIGER

@<TRIPOS>ATOM
      1 C          -0.9542    2.0995    0.5664 C.3     1  UNL1       -0.0497
      2 C          -1.0347    0.6977    1.0570 C.3     1  UNL1        0.0052
      3 C          -2.4382    0.1272    0.9513 C.3     1  UNL1       -0.0338
      4 C          -3.0325    0.0769   -0.3997 C.3     1  UNL1       -0.0263
      5 C          -4.4382   -0.4942   -0.3560 C.ar    1  UNL1       -0.0473
      6 C          -5.5143    0.3663   -0.2056 C.ar    1  UNL1       -0.0586
      7 C          -6.8244   -0.1188   -0.1514 C.ar    1  UNL1       -0.0615
      8 C          -7.0587   -1.4815   -0.2496 C.ar    1  UNL1       -0.0617
      9 C          -5.9563   -2.2989   -0.3983 C.ar    1  UNL1       -0.0615
     10 C          -4.6402   -1.8572   -0.4563 C.ar    1  UNL1       -0.0586
     11 N           0.0100   -0.1897    0.8347 N.3     1  UNL1       -0.3107
     12 C           0.6150   -0.5798   -0.3239 C.3     1  UNL1        0.0263
     13 C           1.5156    0.3054   -1.1087 C.3     1  UNL1        0.0926
     14 O           1.0120    1.4738   -1.5934 O.3     1  UNL1       -0.3859
     15 C           2.8455    0.5463   -0.4711 C.ar    1  UNL1       -0.0170
     16 C           3.8966   -0.3402   -0.7092 C.ar    1  UNL1       -0.0404
     17 C           5.1312   -0.1724   -0.1570 C.ar    1  UNL1        0.0781
     18 C           6.2254   -1.1023   -0.4155 C.2     1  UNL1        0.2451
     19 N           6.1508   -2.2401   -1.2569 N.am    1  UNL1       -0.3252
     20 O           7.3745   -0.9949    0.0881 O.2     1  UNL1       -0.2703
     21 C           5.4190    0.8863    0.6737 C.ar    1  UNL1        0.1290
     22 O           6.6896    1.0182    1.2145 O.3     1  UNL1       -0.5060
     23 C           4.4114    1.7764    0.9289 C.ar    1  UNL1       -0.0191
     24 C           3.1712    1.5916    0.3625 C.ar    1  UNL1       -0.0526
     25 H          -1.5990    2.7187    1.2509 H       1  UNL1        0.0245
     26 H           0.0620    2.4878    0.7191 H       1  UNL1        0.0245
     27 H          -1.2410    2.2670   -0.4858 H       1  UNL1        0.0245
     28 H          -0.9788    0.8671    2.2345 H       1  UNL1        0.0458
     29 H          -2.4130   -0.8765    1.4206 H       1  UNL1        0.0283
     30 H          -3.1380    0.7258    1.6037 H       1  UNL1        0.0283
     31 H          -3.1536    1.0481   -0.8957 H       1  UNL1        0.0314
     32 H          -2.4858   -0.6046   -1.0783 H       1  UNL1        0.0314
     33 H          -5.3196    1.4429   -0.1291 H       1  UNL1        0.0620
     34 H          -7.6368    0.6164   -0.0311 H       1  UNL1        0.0618
     35 H          -8.0665   -1.8620   -0.2087 H       1  UNL1        0.0618
     36 H          -6.2137   -3.3597   -0.4686 H       1  UNL1        0.0618
     37 H          -3.8310   -2.5381   -0.5724 H       1  UNL1        0.0620
     38 H           0.1007   -0.8962    1.6158 H       1  UNL1        0.1223
     39 H           1.1811   -1.5759   -0.1473 H       1  UNL1        0.0453
     40 H          -0.1797   -0.9518   -1.0542 H       1  UNL1        0.0453
     41 H           1.7573   -0.3073   -2.0564 H       1  UNL1        0.0656
     42 H           0.5391    1.3534   -2.4569 H       1  UNL1        0.2103
     43 H           3.7193   -1.1859   -1.3533 H       1  UNL1        0.0630
     44 H           6.0055   -3.2434   -1.4523 H       1  UNL1        0.1453
     45 H           6.3342   -2.0208   -2.2575 H       1  UNL1        0.1453
     46 H           6.9985    1.8401    1.7148 H       1  UNL1        0.2922
     47 H           4.5731    2.6419    1.5809 H       1  UNL1        0.0654
     48 H           2.4095    2.3171    0.5871 H       1  UNL1        0.0622
@<TRIPOS>BOND
     1     1     2    1
     2     2     3    1
     3     3     4    1
     4     4     5    1
     5     5     6   ar
     6     6     7   ar
     7     7     8   ar
     8     8     9   ar
     9     9    10   ar
    10     2    11    1
    11    11    12    1
    12    12    13    1
    13    13    14    1
    14    13    15    1
    15    15    16   ar
    16    16    17   ar
    17    17    18    1
    18    18    19   am
    19    18    20    2
    20    17    21   ar
    21    21    22    1
    22    21    23   ar
    23    23    24   ar
    24    10     5   ar
    25    24    15   ar
    26     1    25    1
    27     1    26    1
    28     1    27    1
    29     2    28    1
    30     3    29    1
    31     3    30    1
    32     4    31    1
    33     4    32    1
    34     6    33    1
    35     7    34    1
    36     8    35    1
    37     9    36    1
    38    10    37    1
    39    11    38    1
    40    12    39    1
    41    12    40    1
    42    13    41    1
    43    14    42    1
    44    16    43    1
    45    19    44    1
    46    19    45    1
    47    22    46    1
    48    23    47    1
    49    24    48    1
