@<TRIPOS>MOLECULE
*****
 86 91 0 0 0
SMALL
GASTEIGER

@<TRIPOS>ATOM
      1 C          -8.6720   -0.6610   -3.8718 C.3     1  UNL1       -0.0227
      2 C          -7.5869   -0.4854   -2.8740 C.ar    1  UNL1        0.0366
      3 C          -6.9866    0.7146   -2.4778 C.ar    1  UNL1       -0.0088
      4 C          -6.0138    0.4512   -1.5466 C.ar    1  UNL1        0.1473
      5 C          -5.1653    1.4608   -0.9184 C.2     1  UNL1        0.2644
      6 O          -5.3225    2.6740   -1.2206 O.2     1  UNL1       -0.2685
      7 N          -4.1626    1.1454    0.0201 N.am    1  UNL1       -0.3072
      8 C          -3.2861    2.1340    0.6652 C.3     1  UNL1        0.0236
      9 C          -3.4828    1.9534    2.1379 C.3     1  UNL1       -0.0328
     10 C          -2.5206    2.6295    3.0241 C.3     1  UNL1       -0.0328
     11 C          -1.1237    2.8337    2.5198 C.3     1  UNL1        0.0235
     12 N          -0.2739    1.7181    2.9778 N.am    1  UNL1       -0.3083
     13 C           0.3788    1.6629    4.2042 C.2     1  UNL1        0.2495
     14 O           0.1289    2.6983    4.9583 O.2     1  UNL1       -0.2700
     15 C           1.2699    0.6802    4.7509 C.ar    1  UNL1        0.1012
     16 C           1.5527    0.7888    6.1187 C.ar    1  UNL1       -0.0077
     17 C           2.2857   -0.1419    6.7898 C.ar    1  UNL1        0.1424
     18 F           2.5587   -0.0309    8.1151 F       1  UNL1       -0.2039
     19 C           2.7573   -1.2196    6.0797 C.ar    1  UNL1        0.0666
     20 N           2.5000   -1.3292    4.7931 N.ar    1  UNL1       -0.2175
     21 C           1.7645   -0.4216    4.0455 C.ar    1  UNL1        0.2328
     22 O           1.5831   -0.6089    2.8104 O.3     1  UNL1       -0.4372
     23 C           1.3747   -0.7630    1.5490 C.ar    1  UNL1        0.1310
     24 C           0.3779   -1.5787    0.9896 C.ar    1  UNL1       -0.0192
     25 C           0.1984   -1.6950   -0.3517 C.ar    1  UNL1       -0.0577
     26 C           1.0001   -1.0066   -1.2295 C.ar    1  UNL1       -0.0538
     27 C           2.0011   -0.1910   -0.7371 C.ar    1  UNL1       -0.0141
     28 C           2.8325    0.5531   -1.6730 C.ar    1  UNL1       -0.0131
     29 C           2.8387    1.9420   -1.5174 C.ar    1  UNL1       -0.0503
     30 C           3.5093    2.7243   -2.3994 C.ar    1  UNL1       -0.0196
     31 C           4.1976    2.1660   -3.4675 C.ar    1  UNL1        0.1172
     32 O           4.8774    2.9660   -4.3649 O.3     1  UNL1       -0.5068
     33 C           4.1790    0.8070   -3.5998 C.ar    1  UNL1       -0.0152
     34 C           3.4887   -0.0329   -2.6923 C.ar    1  UNL1       -0.0222
     35 C           3.6358   -1.4747   -2.9038 C.3     1  UNL1        0.0249
     36 N           4.7747   -1.9853   -2.1986 N.3     1  UNL1       -0.2938
     37 C           4.7947   -1.7746   -0.7897 C.3     1  UNL1        0.0228
     38 C           6.1912   -2.2604   -0.3226 C.3     1  UNL1        0.0604
     39 O           6.3374   -3.6032   -0.5656 O.3     1  UNL1       -0.3772
     40 C           6.2799   -3.8391   -1.9449 C.3     1  UNL1        0.0604
     41 C           4.9127   -3.4361   -2.4385 C.3     1  UNL1        0.0228
     42 C           2.1837   -0.0723    0.6028 C.ar    1  UNL1       -0.0115
     43 C          -1.0064    2.9037    1.0423 C.3     1  UNL1       -0.0328
     44 C          -1.8509    1.8550    0.3489 C.3     1  UNL1       -0.0328
     45 N          -6.0225   -0.8813   -1.3781 N.ar    1  UNL1       -0.1666
     46 N          -6.9387   -1.4317   -2.1512 N.ar    1  UNL1       -0.2709
     47 C          -7.2272   -2.8537   -2.2471 C.3     1  UNL1        0.0305
     48 H          -8.4004   -0.1975   -4.8461 H       1  UNL1        0.0292
     49 H          -9.5764   -0.1600   -3.4309 H       1  UNL1        0.0292
     50 H          -8.9003   -1.7278   -4.0225 H       1  UNL1        0.0292
     51 H          -7.2760    1.6880   -2.8787 H       1  UNL1        0.0659
     52 H          -4.0132    0.1498    0.2832 H       1  UNL1        0.1493
     53 H          -3.5441    3.1407    0.2829 H       1  UNL1        0.0498
     54 H          -4.5313    2.3225    2.3872 H       1  UNL1        0.0284
     55 H          -3.5592    0.8420    2.3270 H       1  UNL1        0.0284
     56 H          -2.4702    2.0888    3.9918 H       1  UNL1        0.0284
     57 H          -2.9701    3.6436    3.2922 H       1  UNL1        0.0284
     58 H          -0.7496    3.7358    2.9991 H       1  UNL1        0.0498
     59 H          -0.2132    0.9380    2.3367 H       1  UNL1        0.1493
     60 H           1.1919    1.6371    6.7129 H       1  UNL1        0.0656
     61 H           3.3356   -1.9634    6.6194 H       1  UNL1        0.0860
     62 H          -0.2493   -2.1176    1.6697 H       1  UNL1        0.0654
     63 H          -0.5856   -2.3365   -0.7533 H       1  UNL1        0.0619
     64 H           0.7995   -1.1044   -2.2785 H       1  UNL1        0.0624
     65 H           2.3082    2.3925   -0.6864 H       1  UNL1        0.0625
     66 H           3.5299    3.7855   -2.2990 H       1  UNL1        0.0654
     67 H           4.4439    3.2679   -5.2124 H       1  UNL1        0.2921
     68 H           4.7059    0.3359   -4.4188 H       1  UNL1        0.0657
     69 H           3.8314   -1.6488   -3.9972 H       1  UNL1        0.0476
     70 H           2.7492   -2.0916   -2.6447 H       1  UNL1        0.0476
     71 H           4.0391   -2.4028   -0.3036 H       1  UNL1        0.0449
     72 H           4.7511   -0.6953   -0.5161 H       1  UNL1        0.0449
     73 H           6.2653   -2.0370    0.7523 H       1  UNL1        0.0572
     74 H           6.9134   -1.6578   -0.9140 H       1  UNL1        0.0572
     75 H           7.0514   -3.2448   -2.4802 H       1  UNL1        0.0572
     76 H           6.5093   -4.8962   -2.1186 H       1  UNL1        0.0572
     77 H           4.1280   -3.9339   -1.8224 H       1  UNL1        0.0449
     78 H           4.7862   -3.6364   -3.5257 H       1  UNL1        0.0449
     79 H           2.9581    0.5583    1.0376 H       1  UNL1        0.0660
     80 H          -1.2618    3.8808    0.6047 H       1  UNL1        0.0284
     81 H           0.0480    2.6773    0.7338 H       1  UNL1        0.0284
     82 H          -1.6912    1.9629   -0.7411 H       1  UNL1        0.0284
     83 H          -1.5393    0.8222    0.6164 H       1  UNL1        0.0284
     84 H          -6.9598   -3.2389   -3.2712 H       1  UNL1        0.0473
     85 H          -8.3066   -3.0693   -2.1336 H       1  UNL1        0.0473
     86 H          -6.6702   -3.3932   -1.4696 H       1  UNL1        0.0473
@<TRIPOS>BOND
     1     1     2    1
     2     2     3   ar
     3     3     4   ar
     4     4     5    1
     5     5     6    2
     6     5     7   am
     7     7     8    1
     8     8     9    1
     9     9    10    1
    10    10    11    1
    11    11    12    1
    12    12    13   am
    13    13    14    2
    14    13    15    1
    15    15    16   ar
    16    16    17   ar
    17    17    18    1
    18    17    19   ar
    19    19    20   ar
    20    20    21   ar
    21    21    22    1
    22    22    23    1
    23    23    24   ar
    24    24    25   ar
    25    25    26   ar
    26    26    27   ar
    27    27    28    1
    28    28    29   ar
    29    29    30   ar
    30    30    31   ar
    31    31    32    1
    32    31    33   ar
    33    33    34   ar
    34    34    35    1
    35    35    36    1
    36    36    37    1
    37    37    38    1
    38    38    39    1
    39    39    40    1
    40    40    41    1
    41    27    42   ar
    42    11    43    1
    43    43    44    1
    44     4    45   ar
    45    45    46   ar
    46    46    47    1
    47    46     2   ar
    48    44     8    1
    49    21    15   ar
    50    42    23   ar
    51    34    28   ar
    52    41    36    1
    53     1    48    1
    54     1    49    1
    55     1    50    1
    56     3    51    1
    57     7    52    1
    58     8    53    1
    59     9    54    1
    60     9    55    1
    61    10    56    1
    62    10    57    1
    63    11    58    1
    64    12    59    1
    65    16    60    1
    66    19    61    1
    67    24    62    1
    68    25    63    1
    69    26    64    1
    70    29    65    1
    71    30    66    1
    72    32    67    1
    73    33    68    1
    74    35    69    1
    75    35    70    1
    76    37    71    1
    77    37    72    1
    78    38    73    1
    79    38    74    1
    80    40    75    1
    81    40    76    1
    82    41    77    1
    83    41    78    1
    84    42    79    1
    85    43    80    1
    86    43    81    1
    87    44    82    1
    88    44    83    1
    89    47    84    1
    90    47    85    1
    91    47    86    1
