@<TRIPOS>MOLECULE
*****
 51 54 0 0 0
SMALL
GASTEIGER

@<TRIPOS>ATOM
      1 C          -5.0139   -1.9012    0.3017 C.3     1  UNL1       -0.0543
      2 C          -4.2633   -0.7066    0.8512 C.3     1  UNL1        0.0080
      3 C          -4.6950   -0.4640    2.2747 C.3     1  UNL1       -0.0543
      4 C          -2.7829   -1.0047    0.7923 C.3     1  UNL1        0.0290
      5 N          -2.2284   -0.1436   -0.2309 N.am    1  UNL1       -0.2700
      6 C          -0.9186   -0.2410   -0.7298 C.2     1  UNL1        0.2271
      7 O          -0.5528    0.5597   -1.6144 O.2     1  UNL1       -0.2748
      8 C           0.0022   -1.2530   -0.2312 C.3     1  UNL1        0.0826
      9 C           1.3253   -1.1816   -0.8883 C.ar    1  UNL1        0.1206
     10 N           2.2817   -0.3936   -0.3310 N.ar    1  UNL1       -0.2186
     11 C           3.5055   -0.2796   -0.8722 C.ar    1  UNL1        0.1285
     12 N           4.4939    0.5440   -0.2821 N.pl3   1  UNL1       -0.3106
     13 C           5.8108    0.7409   -0.7823 C.3     1  UNL1        0.0370
     14 C           6.7780    0.1546    0.2445 C.3     1  UNL1        0.0634
     15 O           6.2717    0.2601    1.5090 O.3     1  UNL1       -0.3767
     16 C           5.4526    1.3433    1.7381 C.3     1  UNL1        0.0634
     17 C           4.1531    1.2608    0.9465 C.3     1  UNL1        0.0370
     18 C           3.7429   -1.0014   -2.0207 C.ar    1  UNL1        0.0427
     19 C           2.7547   -1.8129   -2.5928 C.ar    1  UNL1        0.2533
     20 O           2.9609   -2.4653   -3.6261 O.2     1  UNL1       -0.2677
     21 N           1.5500   -1.8865   -2.0059 N.ar    1  UNL1       -0.3104
     22 C          -3.2351    0.7851   -0.6158 C.ar    1  UNL1        0.0400
     23 C          -3.2355    1.8855   -1.4545 C.ar    1  UNL1       -0.0400
     24 C          -4.3696    2.6532   -1.6760 C.ar    1  UNL1       -0.0600
     25 C          -5.5405    2.3363   -1.0589 C.ar    1  UNL1       -0.0614
     26 C          -5.5608    1.2460   -0.2213 C.ar    1  UNL1       -0.0562
     27 C          -4.4327    0.4825   -0.0011 C.ar    1  UNL1       -0.0188
     28 H          -4.6995   -2.7836    0.9172 H       1  UNL1        0.0239
     29 H          -4.7105   -2.0887   -0.7537 H       1  UNL1        0.0239
     30 H          -6.0995   -1.8134    0.4201 H       1  UNL1        0.0239
     31 H          -4.3508   -1.3377    2.8711 H       1  UNL1        0.0239
     32 H          -4.2172    0.4826    2.6001 H       1  UNL1        0.0239
     33 H          -5.7852   -0.3782    2.3477 H       1  UNL1        0.0239
     34 H          -2.2896   -0.7488    1.7656 H       1  UNL1        0.0477
     35 H          -2.6078   -2.0676    0.5205 H       1  UNL1        0.0477
     36 H          -0.4361   -2.2602   -0.4903 H       1  UNL1        0.0438
     37 H           0.0974   -1.2689    0.8741 H       1  UNL1        0.0438
     38 H           6.0245    0.4063   -1.7896 H       1  UNL1        0.0487
     39 H           5.9992    1.8561   -0.7850 H       1  UNL1        0.0487
     40 H           7.7836    0.5777    0.1022 H       1  UNL1        0.0575
     41 H           6.8208   -0.9466   -0.0041 H       1  UNL1        0.0575
     42 H           5.9419    2.3205    1.5632 H       1  UNL1        0.0575
     43 H           5.1650    1.3214    2.8094 H       1  UNL1        0.0575
     44 H           3.8788    2.2873    0.6379 H       1  UNL1        0.0487
     45 H           3.3637    0.7455    1.5136 H       1  UNL1        0.0487
     46 H           4.6956   -0.9504   -2.4944 H       1  UNL1        0.0706
     47 H           0.7774   -2.4765   -2.3909 H       1  UNL1        0.1700
     48 H          -2.3298    2.1587   -1.9532 H       1  UNL1        0.0636
     49 H          -4.3588    3.5111   -2.3334 H       1  UNL1        0.0618
     50 H          -6.4214    2.9357   -1.2333 H       1  UNL1        0.0618
     51 H          -6.4959    1.0008    0.2655 H       1  UNL1        0.0621
@<TRIPOS>BOND
     1     1     2    1
     2     2     3    1
     3     2     4    1
     4     4     5    1
     5     5     6   am
     6     6     7    2
     7     6     8    1
     8     8     9    1
     9     9    10   ar
    10    10    11   ar
    11    11    12    1
    12    12    13    1
    13    13    14    1
    14    14    15    1
    15    15    16    1
    16    16    17    1
    17    11    18   ar
    18    18    19   ar
    19    19    20    2
    20    19    21   ar
    21     5    22    1
    22    22    23   ar
    23    23    24   ar
    24    24    25   ar
    25    25    26   ar
    26    26    27   ar
    27    27     2    1
    28    21     9   ar
    29    27    22   ar
    30    17    12    1
    31     1    28    1
    32     1    29    1
    33     1    30    1
    34     3    31    1
    35     3    32    1
    36     3    33    1
    37     4    34    1
    38     4    35    1
    39     8    36    1
    40     8    37    1
    41    13    38    1
    42    13    39    1
    43    14    40    1
    44    14    41    1
    45    16    42    1
    46    16    43    1
    47    17    44    1
    48    17    45    1
    49    18    46    1
    50    21    47    1
    51    23    48    1
    52    24    49    1
    53    25    50    1
    54    26    51    1
