
     RDKit          3D

 30 31  0  0  0  0  0  0  0  0999 V2000
   -1.4773    2.1705    0.3749 C   0  0  0  0  0  0  0  0  0  0  0  0
   -1.2566    1.4526   -0.9498 C   0  0  0  0  0  0  0  0  0  0  0  0
   -1.2945    0.0003   -0.6869 C   0  0  0  0  0  0  0  0  0  0  0  0
   -2.4040   -0.6922   -0.9786 N   0  0  0  0  0  0  0  0  0  0  0  0
   -2.5151   -2.0092   -0.7591 C   0  0  0  0  0  0  0  0  0  0  0  0
   -3.7254   -2.7147   -1.0886 N   0  0  0  0  0  0  0  0  0  0  0  0
   -1.4651   -2.6533   -0.2242 N   0  0  0  0  0  0  0  0  0  0  0  0
   -0.3222   -1.9879    0.0854 C   0  0  0  0  0  0  0  0  0  0  0  0
    0.7975   -2.6362    0.6463 N   0  0  0  0  0  0  0  0  0  0  0  0
   -0.2131   -0.6248   -0.1441 C   0  0  0  0  0  0  0  0  0  0  0  0
    0.9920    0.1178    0.1603 C   0  0  0  0  0  0  0  0  0  0  0  0
    1.2238    0.7157    1.3807 C   0  0  0  0  0  0  0  0  0  0  0  0
    2.3978    1.4185    1.6520 C   0  0  0  0  0  0  0  0  0  0  0  0
    3.3772    1.5378    0.6925 C   0  0  0  0  0  0  0  0  0  0  0  0
    4.9647    2.4816    1.0531 Br  0  0  0  0  0  0  0  0  0  0  0  0
    3.1687    0.9478   -0.5383 C   0  0  0  0  0  0  0  0  0  0  0  0
    2.0080    0.2614   -0.7858 C   0  0  0  0  0  0  0  0  0  0  0  0
   -1.5765    1.4430    1.2069 H   0  0  0  0  0  0  0  0  0  0  0  0
   -0.6969    2.9450    0.5478 H   0  0  0  0  0  0  0  0  0  0  0  0
   -2.4890    2.6859    0.3594 H   0  0  0  0  0  0  0  0  0  0  0  0
   -0.2937    1.7730   -1.3877 H   0  0  0  0  0  0  0  0  0  0  0  0
   -2.0936    1.7067   -1.6334 H   0  0  0  0  0  0  0  0  0  0  0  0
   -4.3156   -3.0374   -0.3110 H   0  0  0  0  0  0  0  0  0  0  0  0
   -3.9965   -2.8934   -2.0868 H   0  0  0  0  0  0  0  0  0  0  0  0
    0.9004   -2.7126    1.6657 H   0  0  0  0  0  0  0  0  0  0  0  0
    1.5161   -3.0349    0.0263 H   0  0  0  0  0  0  0  0  0  0  0  0
    0.4446    0.6149    2.1372 H   0  0  0  0  0  0  0  0  0  0  0  0
    2.5136    1.8629    2.6318 H   0  0  0  0  0  0  0  0  0  0  0  0
    3.9590    1.0490   -1.2961 H   0  0  0  0  0  0  0  0  0  0  0  0
    1.8717   -0.1877   -1.7503 H   0  0  0  0  0  0  0  0  0  0  0  0
  1  2  1  0
  2  3  1  0
  3  4  2  0
  4  5  1  0
  5  6  1  0
  5  7  2  0
  7  8  1  0
  8  9  1  0
  8 10  2  0
 10 11  1  0
 11 12  2  0
 12 13  1  0
 13 14  2  0
 14 15  1  0
 14 16  1  0
 16 17  2  0
 10  3  1  0
 17 11  1  0
  1 18  1  0
  1 19  1  0
  1 20  1  0
  2 21  1  0
  2 22  1  0
  6 23  1  0
  6 24  1  0
  9 25  1  0
  9 26  1  0
 12 27  1  0
 13 28  1  0
 16 29  1  0
 17 30  1  0
M  END
$$$$
