@<TRIPOS>MOLECULE
*****
 30 31 0 0 0
SMALL
GASTEIGER

@<TRIPOS>ATOM
      1 C          -1.4773    2.1705    0.3749 C.3     1  UNL1       -0.0598
      2 C          -1.2566    1.4526   -0.9498 C.3     1  UNL1       -0.0124
      3 C          -1.2945    0.0003   -0.6869 C.ar    1  UNL1        0.0556
      4 N          -2.4040   -0.6922   -0.9786 N.ar    1  UNL1       -0.2190
      5 C          -2.5151   -2.0092   -0.7591 C.ar    1  UNL1        0.2145
      6 N          -3.7254   -2.7147   -1.0886 N.pl3   1  UNL1       -0.3274
      7 N          -1.4651   -2.6533   -0.2242 N.ar    1  UNL1       -0.1995
      8 C          -0.3222   -1.9879    0.0854 C.ar    1  UNL1        0.1293
      9 N           0.7975   -2.6362    0.6463 N.pl3   1  UNL1       -0.3425
     10 C          -0.2131   -0.6248   -0.1441 C.ar    1  UNL1        0.0430
     11 C           0.9920    0.1178    0.1603 C.ar    1  UNL1       -0.0128
     12 C           1.2238    0.7157    1.3807 C.ar    1  UNL1       -0.0528
     13 C           2.3978    1.4185    1.6520 C.ar    1  UNL1       -0.0472
     14 C           3.3772    1.5378    0.6925 C.ar    1  UNL1        0.0179
     15 BR          4.9647    2.4816    1.0531 Br      1  UNL1       -0.0503
     16 C           3.1687    0.9478   -0.5383 C.ar    1  UNL1       -0.0472
     17 C           2.0080    0.2614   -0.7858 C.ar    1  UNL1       -0.0528
     18 H          -1.5765    1.4430    1.2069 H       1  UNL1        0.0233
     19 H          -0.6969    2.9450    0.5478 H       1  UNL1        0.0233
     20 H          -2.4890    2.6859    0.3594 H       1  UNL1        0.0233
     21 H          -0.2937    1.7730   -1.3877 H       1  UNL1        0.0326
     22 H          -2.0936    1.7067   -1.6334 H       1  UNL1        0.0326
     23 H          -4.3156   -3.0374   -0.3110 H       1  UNL1        0.1452
     24 H          -3.9965   -2.8934   -2.0868 H       1  UNL1        0.1452
     25 H           0.9004   -2.7126    1.6657 H       1  UNL1        0.1437
     26 H           1.5161   -3.0349    0.0263 H       1  UNL1        0.1437
     27 H           0.4446    0.6149    2.1372 H       1  UNL1        0.0624
     28 H           2.5136    1.8629    2.6318 H       1  UNL1        0.0629
     29 H           3.9590    1.0490   -1.2961 H       1  UNL1        0.0629
     30 H           1.8717   -0.1877   -1.7503 H       1  UNL1        0.0624
@<TRIPOS>BOND
     1     1     2    1
     2     2     3    1
     3     3     4   ar
     4     4     5   ar
     5     5     6    1
     6     5     7   ar
     7     7     8   ar
     8     8     9    1
     9     8    10   ar
    10    10    11    1
    11    11    12   ar
    12    12    13   ar
    13    13    14   ar
    14    14    15    1
    15    14    16   ar
    16    16    17   ar
    17    10     3   ar
    18    17    11   ar
    19     1    18    1
    20     1    19    1
    21     1    20    1
    22     2    21    1
    23     2    22    1
    24     6    23    1
    25     6    24    1
    26     9    25    1
    27     9    26    1
    28    12    27    1
    29    13    28    1
    30    16    29    1
    31    17    30    1
