@<TRIPOS>MOLECULE
*****
 64 68 0 0 0
SMALL
GASTEIGER

@<TRIPOS>ATOM
      1 C          -4.2498    1.1858   -2.4322 C.3     1  UNL1       -0.0443
      2 C          -5.2931    0.8004   -1.4701 C.3     1  UNL1        0.0469
      3 C          -6.2586    1.9003   -1.1066 C.3     1  UNL1        0.0661
      4 O          -7.4115    1.3154   -0.6773 O.3     1  UNL1       -0.3761
      5 C          -7.3292    0.3725    0.2959 C.3     1  UNL1        0.0661
      6 C          -6.0923   -0.3894    0.4557 C.3     1  UNL1        0.0469
      7 C          -6.1906   -1.8136   -0.0377 C.3     1  UNL1       -0.0443
      8 N          -4.9124    0.1798   -0.2478 N.am    1  UNL1       -0.2904
      9 C          -3.6687    0.0476    0.3487 C.2     1  UNL1        0.2330
     10 O          -3.6941   -0.5964    1.4931 O.2     1  UNL1       -0.2740
     11 C          -2.3408    0.4741   -0.0256 C.3     1  UNL1        0.1054
     12 C          -1.6222   -0.1219   -1.2087 C.3     1  UNL1       -0.0220
     13 C          -1.2214   -0.4951    0.1608 C.3     1  UNL1        0.0134
     14 C          -0.0250    0.0924    0.7884 C.3     1  UNL1        0.0935
     15 C          -0.3140    0.6685    2.1778 C.3     1  UNL1       -0.0351
     16 C           1.0476   -0.9270    1.0231 C.ar    1  UNL1        0.0158
     17 C           2.3490   -0.7426    0.5697 C.ar    1  UNL1       -0.0463
     18 C           3.3345   -1.6323    0.8197 C.ar    1  UNL1       -0.0217
     19 C           4.7310   -1.5042    0.4029 C.2     1  UNL1       -0.0172
     20 C           5.3546   -0.3517    0.2656 C.2     1  UNL1        0.1492
     21 F           4.6852    0.7800    0.5130 F       1  UNL1       -0.2032
     22 C           6.7778   -0.2707   -0.0782 C.ar    1  UNL1        0.0990
     23 C           7.3566    0.9550   -0.3828 C.ar    1  UNL1       -0.0322
     24 C           8.6968    1.0544   -0.6533 C.ar    1  UNL1       -0.0408
     25 C           9.4861   -0.0909   -0.6231 C.ar    1  UNL1        0.0699
     26 C          10.9047   -0.0421   -0.9217 C.1     1  UNL1        0.1007
     27 N          12.0172   -0.0048   -1.1365 N.1     1  UNL1       -0.1908
     28 C           8.9135   -1.2857   -0.3246 C.ar    1  UNL1        0.0457
     29 N           7.5733   -1.3442   -0.0604 N.ar    1  UNL1       -0.2514
     30 C           3.0089   -2.7665    1.5576 C.ar    1  UNL1       -0.0518
     31 C           1.7452   -2.9572    2.0029 C.ar    1  UNL1       -0.0255
     32 C           0.7236   -2.0640    1.7603 C.ar    1  UNL1        0.1289
     33 F          -0.4863   -2.3332    2.2578 F       1  UNL1       -0.2051
     34 N           0.6226    1.1528    0.0321 N.2     1  UNL1       -0.2521
     35 C          -0.0893    2.2321   -0.1731 C.2     1  UNL1        0.1485
     36 N           0.3846    3.3407   -0.8723 N.pl3   1  UNL1       -0.3380
     37 S          -1.7437    2.1215    0.5138 S.3     1  UNL1       -0.0746
     38 H          -3.9010    0.2618   -2.9427 H       1  UNL1        0.0248
     39 H          -4.7842    1.7381   -3.2722 H       1  UNL1        0.0248
     40 H          -3.4705    1.8743   -2.1121 H       1  UNL1        0.0248
     41 H          -5.9466    0.0330   -2.0069 H       1  UNL1        0.0520
     42 H          -5.8940    2.6442   -0.4131 H       1  UNL1        0.0578
     43 H          -6.5045    2.4142   -2.0800 H       1  UNL1        0.0578
     44 H          -7.5721    0.8773    1.2787 H       1  UNL1        0.0578
     45 H          -8.1911   -0.3370    0.1530 H       1  UNL1        0.0578
     46 H          -5.7743   -0.4523    1.5419 H       1  UNL1        0.0520
     47 H          -5.2234   -2.1892   -0.4376 H       1  UNL1        0.0248
     48 H          -6.5247   -2.4454    0.8361 H       1  UNL1        0.0248
     49 H          -6.9796   -1.9333   -0.8088 H       1  UNL1        0.0248
     50 H          -2.1205   -0.8752   -1.8273 H       1  UNL1        0.0287
     51 H          -1.0057    0.6004   -1.8092 H       1  UNL1        0.0287
     52 H          -1.4666   -1.5503    0.4823 H       1  UNL1        0.0346
     53 H           0.2151    0.0790    2.9633 H       1  UNL1        0.0256
     54 H           0.0455    1.7005    2.2813 H       1  UNL1        0.0256
     55 H          -1.3934    0.6348    2.4008 H       1  UNL1        0.0256
     56 H           2.5739    0.1443   -0.0070 H       1  UNL1        0.0628
     57 H           5.3007   -2.3916    0.1835 H       1  UNL1        0.0653
     58 H           6.6889    1.8332   -0.3961 H       1  UNL1        0.0640
     59 H           9.1649    1.9884   -0.8928 H       1  UNL1        0.0631
     60 H           9.4759   -2.2073   -0.2773 H       1  UNL1        0.0843
     61 H           3.7778   -3.4956    1.7749 H       1  UNL1        0.0624
     62 H           1.5245   -3.8612    2.5880 H       1  UNL1        0.0646
     63 H          -0.0677    3.7691   -1.6972 H       1  UNL1        0.1442
     64 H           1.2829    3.7684   -0.5107 H       1  UNL1        0.1442
@<TRIPOS>BOND
     1     1     2    1
     2     2     3    1
     3     3     4    1
     4     4     5    1
     5     5     6    1
     6     6     7    1
     7     6     8    1
     8     8     9   am
     9     9    10    2
    10    11     9    1
    11    11    12    1
    12    12    13    1
    13    13    14    1
    14    14    15    1
    15    14    16    1
    16    16    17   ar
    17    17    18   ar
    18    18    19    1
    19    19    20    2
    20    20    21    1
    21    20    22    1
    22    22    23   ar
    23    23    24   ar
    24    24    25   ar
    25    25    26    1
    26    26    27    3
    27    25    28   ar
    28    28    29   ar
    29    18    30   ar
    30    30    31   ar
    31    31    32   ar
    32    32    33    1
    33    14    34    1
    34    34    35    2
    35    35    36    1
    36    35    37    1
    37     8     2    1
    38    13    11    1
    39    32    16   ar
    40    37    11    1
    41    29    22   ar
    42     1    38    1
    43     1    39    1
    44     1    40    1
    45     2    41    1
    46     3    42    1
    47     3    43    1
    48     5    44    1
    49     5    45    1
    50     6    46    1
    51     7    47    1
    52     7    48    1
    53     7    49    1
    54    12    50    1
    55    12    51    1
    56    13    52    1
    57    15    53    1
    58    15    54    1
    59    15    55    1
    60    17    56    1
    61    19    57    1
    62    23    58    1
    63    24    59    1
    64    28    60    1
    65    30    61    1
    66    31    62    1
    67    36    63    1
    68    36    64    1
