
     RDKit          3D

 52 55  0  0  0  0  0  0  0  0999 V2000
   -6.3630   -0.2502    1.7515 C   0  0  0  0  0  0  0  0  0  0  0  0
   -5.5596    0.8375    2.2563 N   0  0  0  0  0  0  0  0  0  0  0  0
   -6.1572    1.6922    3.2558 C   0  0  0  0  0  0  0  0  0  0  0  0
   -4.2343    1.0927    1.8168 C   0  0  0  0  0  0  0  0  0  0  0  0
   -3.5832    2.0566    2.2892 O   0  0  0  0  0  0  0  0  0  0  0  0
   -3.5572    0.2593    0.8006 C   0  0  2  0  0  0  0  0  0  0  0  0
   -3.2972   -1.1806    1.0531 C   0  0  0  0  0  0  0  0  0  0  0  0
   -2.1940   -0.2357    0.8998 C   0  0  1  0  0  0  0  0  0  0  0  0
   -1.3288   -0.0941   -0.3007 C   0  0  1  0  0  0  0  0  0  0  0  0
   -0.9717    1.3953   -0.3958 C   0  0  0  0  0  0  0  0  0  0  0  0
   -0.0446   -0.8287   -0.1257 C   0  0  0  0  0  0  0  0  0  0  0  0
    1.1865   -0.2127   -0.0623 C   0  0  0  0  0  0  0  0  0  0  0  0
    2.3698   -0.8957    0.0833 C   0  0  0  0  0  0  0  0  0  0  0  0
    3.6586   -0.1848    0.1331 C   0  0  0  0  0  0  0  0  0  0  0  0
    4.7071   -0.6556   -0.5070 C   0  0  0  0  0  0  0  0  0  0  0  0
    4.6490   -1.8019   -1.2312 F   0  0  0  0  0  0  0  0  0  0  0  0
    6.0070    0.0337   -0.4847 C   0  0  0  0  0  0  0  0  0  0  0  0
    6.1062    1.1501    0.2314 N   0  0  0  0  0  0  0  0  0  0  0  0
    7.2404    1.8468    0.2903 C   0  0  0  0  0  0  0  0  0  0  0  0
    8.3459    1.4194   -0.3968 C   0  0  0  0  0  0  0  0  0  0  0  0
    9.5924    2.1430   -0.3667 C   0  0  0  0  0  0  0  0  0  0  0  0
   10.6122    2.7197   -0.3573 N   0  0  0  0  0  0  0  0  0  0  0  0
    8.2124    0.2551   -1.1309 C   0  0  0  0  0  0  0  0  0  0  0  0
    7.0580   -0.4229   -1.1705 N   0  0  0  0  0  0  0  0  0  0  0  0
    2.3770   -2.2704    0.1768 C   0  0  0  0  0  0  0  0  0  0  0  0
    1.1603   -2.9120    0.1164 C   0  0  0  0  0  0  0  0  0  0  0  0
   -0.0185   -2.2194   -0.0306 C   0  0  0  0  0  0  0  0  0  0  0  0
   -1.1835   -2.8943   -0.0857 F   0  0  0  0  0  0  0  0  0  0  0  0
   -1.8935   -0.5723   -1.5339 N   0  0  0  0  0  0  0  0  0  0  0  0
   -3.0777   -0.3649   -1.9606 C   0  0  0  0  0  0  0  0  0  0  0  0
   -3.5055   -0.8974   -3.1981 N   0  0  0  0  0  0  0  0  0  0  0  0
   -4.1243    0.6187   -0.8965 S   0  0  0  0  0  0  0  0  0  0  0  0
   -6.7852   -0.8608    2.5729 H   0  0  0  0  0  0  0  0  0  0  0  0
   -5.8353   -0.8606    0.9959 H   0  0  0  0  0  0  0  0  0  0  0  0
   -7.2717    0.1525    1.2139 H   0  0  0  0  0  0  0  0  0  0  0  0
   -7.1241    2.0570    2.7996 H   0  0  0  0  0  0  0  0  0  0  0  0
   -6.4690    1.1363    4.1646 H   0  0  0  0  0  0  0  0  0  0  0  0
   -5.5595    2.5964    3.4610 H   0  0  0  0  0  0  0  0  0  0  0  0
   -3.6412   -1.9094    0.3198 H   0  0  0  0  0  0  0  0  0  0  0  0
   -3.5691   -1.5007    2.1031 H   0  0  0  0  0  0  0  0  0  0  0  0
   -1.6367    0.0162    1.8517 H   0  0  0  0  0  0  0  0  0  0  0  0
   -0.3223    1.6221   -1.2389 H   0  0  0  0  0  0  0  0  0  0  0  0
   -0.5603    1.6612    0.6003 H   0  0  0  0  0  0  0  0  0  0  0  0
   -1.9430    1.9615   -0.4753 H   0  0  0  0  0  0  0  0  0  0  0  0
    1.2051    0.8621   -0.1321 H   0  0  0  0  0  0  0  0  0  0  0  0
    3.7479    0.7237    0.6939 H   0  0  0  0  0  0  0  0  0  0  0  0
    7.3278    2.7695    0.8783 H   0  0  0  0  0  0  0  0  0  0  0  0
    9.1009   -0.0901   -1.6839 H   0  0  0  0  0  0  0  0  0  0  0  0
    3.3133   -2.8239    0.2978 H   0  0  0  0  0  0  0  0  0  0  0  0
    1.1487   -3.9833    0.1881 H   0  0  0  0  0  0  0  0  0  0  0  0
   -3.9575   -1.8266   -3.2748 H   0  0  0  0  0  0  0  0  0  0  0  0
   -3.3578   -0.3294   -4.0568 H   0  0  0  0  0  0  0  0  0  0  0  0
  1  2  1  0
  2  3  1  0
  2  4  1  0
  4  5  2  0
  6  4  1  1
  6  7  1  0
  7  8  1  0
  8  9  1  0
  9 10  1  6
  9 11  1  0
 11 12  2  0
 12 13  1  0
 13 14  1  0
 14 15  2  0
 15 16  1  0
 15 17  1  0
 17 18  2  0
 18 19  1  0
 19 20  2  0
 20 21  1  0
 21 22  3  0
 20 23  1  0
 23 24  2  0
 13 25  2  0
 25 26  1  0
 26 27  2  0
 27 28  1  0
  9 29  1  0
 29 30  2  0
 30 31  1  0
 30 32  1  0
  8  6  1  0
 27 11  1  0
 32  6  1  0
 24 17  1  0
  1 33  1  0
  1 34  1  0
  1 35  1  0
  3 36  1  0
  3 37  1  0
  3 38  1  0
  7 39  1  0
  7 40  1  0
  8 41  1  1
 10 42  1  0
 10 43  1  0
 10 44  1  0
 12 45  1  0
 14 46  1  0
 19 47  1  0
 23 48  1  0
 25 49  1  0
 26 50  1  0
 31 51  1  0
 31 52  1  0
M  END
$$$$
