@<TRIPOS>MOLECULE
*****
 52 55 0 0 0
SMALL
GASTEIGER

@<TRIPOS>ATOM
      1 C          -6.3630   -0.2502    1.7515 C.3     1  UNL1        0.0029
      2 N          -5.5596    0.8375    2.2563 N.am    1  UNL1       -0.3064
      3 C          -6.1572    1.6922    3.2558 C.3     1  UNL1        0.0029
      4 C          -4.2343    1.0927    1.8168 C.2     1  UNL1        0.2319
      5 O          -3.5832    2.0566    2.2892 O.2     1  UNL1       -0.2741
      6 C          -3.5572    0.2593    0.8006 C.3     1  UNL1        0.1054
      7 C          -3.2972   -1.1806    1.0531 C.3     1  UNL1       -0.0220
      8 C          -2.1940   -0.2357    0.8998 C.3     1  UNL1        0.0134
      9 C          -1.3288   -0.0941   -0.3007 C.3     1  UNL1        0.0935
     10 C          -0.9717    1.3953   -0.3958 C.3     1  UNL1       -0.0351
     11 C          -0.0446   -0.8287   -0.1257 C.ar    1  UNL1        0.0158
     12 C           1.1865   -0.2127   -0.0623 C.ar    1  UNL1       -0.0463
     13 C           2.3698   -0.8957    0.0833 C.ar    1  UNL1       -0.0217
     14 C           3.6586   -0.1848    0.1331 C.2     1  UNL1       -0.0156
     15 C           4.7071   -0.6556   -0.5070 C.2     1  UNL1        0.1678
     16 F           4.6490   -1.8019   -1.2312 F       1  UNL1       -0.2016
     17 C           6.0070    0.0337   -0.4847 C.ar    1  UNL1        0.1885
     18 N           6.1062    1.1501    0.2314 N.ar    1  UNL1       -0.2325
     19 C           7.2404    1.8468    0.2903 C.ar    1  UNL1        0.0489
     20 C           8.3459    1.4194   -0.3968 C.ar    1  UNL1        0.0879
     21 C           9.5924    2.1430   -0.3667 C.1     1  UNL1        0.1022
     22 N          10.6122    2.7197   -0.3573 N.1     1  UNL1       -0.1908
     23 C           8.2124    0.2551   -1.1309 C.ar    1  UNL1        0.0489
     24 N           7.0580   -0.4229   -1.1705 N.ar    1  UNL1       -0.2325
     25 C           2.3770   -2.2704    0.1768 C.ar    1  UNL1       -0.0518
     26 C           1.1603   -2.9120    0.1164 C.ar    1  UNL1       -0.0255
     27 C          -0.0185   -2.2194   -0.0306 C.ar    1  UNL1        0.1289
     28 F          -1.1835   -2.8943   -0.0857 F       1  UNL1       -0.2051
     29 N          -1.8935   -0.5723   -1.5339 N.2     1  UNL1       -0.2521
     30 C          -3.0777   -0.3649   -1.9606 C.2     1  UNL1        0.1485
     31 N          -3.5055   -0.8974   -3.1981 N.pl3   1  UNL1       -0.3380
     32 S          -4.1243    0.6187   -0.8965 S.3     1  UNL1       -0.0746
     33 H          -6.7852   -0.8608    2.5729 H       1  UNL1        0.0428
     34 H          -5.8353   -0.8606    0.9959 H       1  UNL1        0.0428
     35 H          -7.2717    0.1525    1.2139 H       1  UNL1        0.0428
     36 H          -7.1241    2.0570    2.7996 H       1  UNL1        0.0428
     37 H          -6.4690    1.1363    4.1646 H       1  UNL1        0.0428
     38 H          -5.5595    2.5964    3.4610 H       1  UNL1        0.0428
     39 H          -3.6412   -1.9094    0.3198 H       1  UNL1        0.0287
     40 H          -3.5691   -1.5007    2.1031 H       1  UNL1        0.0287
     41 H          -1.6367    0.0162    1.8517 H       1  UNL1        0.0346
     42 H          -0.3223    1.6221   -1.2389 H       1  UNL1        0.0256
     43 H          -0.5603    1.6612    0.6003 H       1  UNL1        0.0256
     44 H          -1.9430    1.9615   -0.4753 H       1  UNL1        0.0256
     45 H           1.2051    0.8621   -0.1321 H       1  UNL1        0.0628
     46 H           3.7479    0.7237    0.6939 H       1  UNL1        0.0653
     47 H           7.3278    2.7695    0.8783 H       1  UNL1        0.0844
     48 H           9.1009   -0.0901   -1.6839 H       1  UNL1        0.0844
     49 H           3.3133   -2.8239    0.2978 H       1  UNL1        0.0624
     50 H           1.1487   -3.9833    0.1881 H       1  UNL1        0.0646
     51 H          -3.9575   -1.8266   -3.2748 H       1  UNL1        0.1442
     52 H          -3.3578   -0.3294   -4.0568 H       1  UNL1        0.1442
@<TRIPOS>BOND
     1     1     2    1
     2     2     3    1
     3     2     4   am
     4     4     5    2
     5     6     4    1
     6     6     7    1
     7     7     8    1
     8     8     9    1
     9     9    10    1
    10     9    11    1
    11    11    12   ar
    12    12    13   ar
    13    13    14    1
    14    14    15    2
    15    15    16    1
    16    15    17    1
    17    17    18   ar
    18    18    19   ar
    19    19    20   ar
    20    20    21    1
    21    21    22    3
    22    20    23   ar
    23    23    24   ar
    24    13    25   ar
    25    25    26   ar
    26    26    27   ar
    27    27    28    1
    28     9    29    1
    29    29    30    2
    30    30    31    1
    31    30    32    1
    32     8     6    1
    33    27    11   ar
    34    32     6    1
    35    24    17   ar
    36     1    33    1
    37     1    34    1
    38     1    35    1
    39     3    36    1
    40     3    37    1
    41     3    38    1
    42     7    39    1
    43     7    40    1
    44     8    41    1
    45    10    42    1
    46    10    43    1
    47    10    44    1
    48    12    45    1
    49    14    46    1
    50    19    47    1
    51    23    48    1
    52    25    49    1
    53    26    50    1
    54    31    51    1
    55    31    52    1
