@<TRIPOS>MOLECULE
*****
 58 60 0 0 0
SMALL
GASTEIGER

@<TRIPOS>ATOM
      1 C           5.5001   -2.4274    1.9817 C.3     1  UNL1       -0.0638
      2 C           5.7662   -1.0197    1.4956 C.3     1  UNL1       -0.0350
      3 C           4.4881   -0.2995    1.1454 C.3     1  UNL1        0.0817
      4 S           3.6762   -1.1993   -0.1301 S.O2    1  UNL1        0.0318
      5 O           3.3192   -2.5629    0.4382 O.2     1  UNL1       -0.1580
      6 O           4.5876   -1.3961   -1.2849 O.2     1  UNL1       -0.1580
      7 N           2.1926   -0.4695   -0.6189 N.3     1  UNL1       -0.1811
      8 C           2.4388    0.8446   -1.1469 C.3     1  UNL1        0.0210
      9 C           1.2041    1.3871   -1.8400 C.3     1  UNL1       -0.0257
     10 C          -0.0406    1.1413   -0.9747 C.3     1  UNL1        0.0334
     11 C          -0.8675    2.3394   -1.0212 C.ar    1  UNL1        0.0492
     12 C          -0.6893    3.3352   -0.0935 C.ar    1  UNL1       -0.0398
     13 C          -1.4432    4.5062   -0.0786 C.ar    1  UNL1       -0.0586
     14 C          -2.4081    4.6793   -1.0293 C.ar    1  UNL1       -0.0436
     15 C          -2.5615    3.6618   -1.9449 C.ar    1  UNL1        0.0279
     16 N          -1.8291    2.5470   -1.9427 N.ar    1  UNL1       -0.2593
     17 C          -0.7393   -0.1026   -1.4499 C.3     1  UNL1        0.0317
     18 C          -1.1756    0.0430   -2.9168 C.3     1  UNL1       -0.0457
     19 N          -1.9221   -0.4342   -0.7125 N.am    1  UNL1       -0.3078
     20 C          -2.2351   -1.7013   -0.1534 C.2     1  UNL1        0.2459
     21 O          -1.3891   -2.6366   -0.3225 O.2     1  UNL1       -0.2701
     22 C          -3.4435   -1.9856    0.5869 C.ar    1  UNL1        0.0605
     23 C          -3.7577   -1.3562    1.7668 C.ar    1  UNL1       -0.0127
     24 C          -4.9248   -1.6449    2.4618 C.ar    1  UNL1        0.1269
     25 F          -5.2615   -1.0456    3.6205 F       1  UNL1       -0.2054
     26 C          -5.7879   -2.5878    1.9519 C.ar    1  UNL1        0.0103
     27 C          -5.5052   -3.2276    0.7872 C.ar    1  UNL1        0.1451
     28 F          -6.3750   -4.1574    0.3020 F       1  UNL1       -0.2038
     29 C          -4.3210   -2.9222    0.0995 C.ar    1  UNL1        0.0883
     30 CL         -4.0563   -3.8042   -1.3890 Cl      1  UNL1       -0.0798
     31 C           0.4783    0.9360    0.4205 C.3     1  UNL1       -0.0257
     32 C           1.3125   -0.3311    0.5264 C.3     1  UNL1        0.0210
     33 H           4.4980   -2.4748    2.4538 H       1  UNL1        0.0230
     34 H           5.4935   -3.1003    1.1093 H       1  UNL1        0.0230
     35 H           6.3142   -2.6739    2.6931 H       1  UNL1        0.0230
     36 H           6.4109   -1.0200    0.5838 H       1  UNL1        0.0279
     37 H           6.2981   -0.4212    2.2797 H       1  UNL1        0.0279
     38 H           3.8867   -0.2322    2.0701 H       1  UNL1        0.0515
     39 H           4.7559    0.7315    0.8506 H       1  UNL1        0.0515
     40 H           3.2228    0.7348   -1.9457 H       1  UNL1        0.0444
     41 H           2.8608    1.5585   -0.4240 H       1  UNL1        0.0444
     42 H           1.3769    2.4693   -2.0037 H       1  UNL1        0.0288
     43 H           1.1569    0.9006   -2.8125 H       1  UNL1        0.0288
     44 H           0.0497    3.2989    0.7067 H       1  UNL1        0.0636
     45 H          -1.2913    5.2808    0.6575 H       1  UNL1        0.0619
     46 H          -3.0071    5.5867   -1.0343 H       1  UNL1        0.0633
     47 H          -3.3483    3.8360   -2.6955 H       1  UNL1        0.0829
     48 H           0.0231   -0.9040   -1.4809 H       1  UNL1        0.0505
     49 H          -2.2795    0.1441   -2.9666 H       1  UNL1        0.0248
     50 H          -0.9351   -0.8619   -3.5105 H       1  UNL1        0.0248
     51 H          -0.7789    0.9681   -3.3623 H       1  UNL1        0.0248
     52 H          -2.6360    0.3101   -0.5586 H       1  UNL1        0.1493
     53 H          -3.1068   -0.6164    2.1916 H       1  UNL1        0.0654
     54 H          -6.7235   -2.8509    2.4649 H       1  UNL1        0.0675
     55 H           1.1886    1.7627    0.7174 H       1  UNL1        0.0288
     56 H          -0.2957    0.8846    1.1984 H       1  UNL1        0.0288
     57 H           1.9570   -0.2118    1.4195 H       1  UNL1        0.0444
     58 H           0.6788   -1.2085    0.7176 H       1  UNL1        0.0444
@<TRIPOS>BOND
     1     1     2    1
     2     2     3    1
     3     3     4    1
     4     4     5    2
     5     4     6    2
     6     4     7    1
     7     7     8    1
     8     8     9    1
     9     9    10    1
    10    10    11    1
    11    11    12   ar
    12    12    13   ar
    13    13    14   ar
    14    14    15   ar
    15    15    16   ar
    16    10    17    1
    17    17    18    1
    18    17    19    1
    19    19    20   am
    20    20    21    2
    21    20    22    1
    22    22    23   ar
    23    23    24   ar
    24    24    25    1
    25    24    26   ar
    26    26    27   ar
    27    27    28    1
    28    27    29   ar
    29    29    30    1
    30    10    31    1
    31    31    32    1
    32    32     7    1
    33    16    11   ar
    34    29    22   ar
    35     1    33    1
    36     1    34    1
    37     1    35    1
    38     2    36    1
    39     2    37    1
    40     3    38    1
    41     3    39    1
    42     8    40    1
    43     8    41    1
    44     9    42    1
    45     9    43    1
    46    12    44    1
    47    13    45    1
    48    14    46    1
    49    15    47    1
    50    17    48    1
    51    18    49    1
    52    18    50    1
    53    18    51    1
    54    19    52    1
    55    23    53    1
    56    26    54    1
    57    31    55    1
    58    31    56    1
    59    32    57    1
    60    32    58    1
