@<TRIPOS>MOLECULE
*****
 43 46 0 0 0
SMALL
GASTEIGER

@<TRIPOS>ATOM
      1 C           5.5516   -1.5336   -0.6793 C.3     1  UNL1       -0.0385
      2 C           4.0838   -1.8901   -0.4027 C.ar    1  UNL1       -0.0309
      3 C           3.7048   -3.2198   -0.3651 C.ar    1  UNL1       -0.0189
      4 S           1.9492   -3.1434   -0.0215 S.2     1  UNL1       -0.0809
      5 C           1.8703   -1.3593    0.0433 C.ar    1  UNL1        0.0827
      6 N           0.6578   -0.6497    0.3045 N.am    1  UNL1       -0.2781
      7 C           0.2770   -0.4238    1.6546 C.2     1  UNL1        0.2354
      8 O           1.0461   -0.8625    2.5488 O.2     1  UNL1       -0.2737
      9 C          -0.9308    0.2713    2.1052 C.3     1  UNL1        0.0964
     10 N          -1.7972    0.7651    1.0820 N.am    1  UNL1       -0.2623
     11 C          -1.6834    2.0749    0.5435 C.2     1  UNL1        0.2205
     12 O          -0.6745    2.7767    0.8530 O.2     1  UNL1       -0.2752
     13 C          -2.6643    2.6951   -0.3628 C.3     1  UNL1        0.0285
     14 C          -3.5777    1.7641   -1.0666 C.3     1  UNL1       -0.0177
     15 C          -3.6665    0.4301   -0.4735 C.ar    1  UNL1       -0.0255
     16 C          -4.6716   -0.3962   -0.9865 C.ar    1  UNL1       -0.0568
     17 C          -4.8600   -1.6718   -0.5275 C.ar    1  UNL1       -0.0614
     18 C          -4.0331   -2.1451    0.4656 C.ar    1  UNL1       -0.0600
     19 C          -3.0289   -1.3233    0.9801 C.ar    1  UNL1       -0.0400
     20 C          -2.8304   -0.0561    0.5351 C.ar    1  UNL1        0.0400
     21 C           3.1509   -0.9478   -0.1957 C.ar    1  UNL1        0.0504
     22 C           3.4427    0.5205   -0.2491 C.ar    1  UNL1        0.1640
     23 N           4.6359    1.1125   -0.4616 N.ar    1  UNL1       -0.1295
     24 N           4.5414    2.4097   -0.4676 N.ar    1  UNL1       -0.1377
     25 C           3.2492    2.6908   -0.2533 C.ar    1  UNL1        0.1175
     26 N           2.5848    1.5165   -0.1209 N.ar    1  UNL1       -0.3276
     27 H           5.5642   -0.7961   -1.5208 H       1  UNL1        0.0278
     28 H           6.1096   -2.4197   -0.9606 H       1  UNL1        0.0278
     29 H           6.0089   -1.0855    0.2133 H       1  UNL1        0.0278
     30 H           4.3050   -4.1382   -0.5072 H       1  UNL1        0.0697
     31 H           0.0617   -0.3041   -0.4502 H       1  UNL1        0.1554
     32 H          -0.5398    1.1282    2.7543 H       1  UNL1        0.0564
     33 H          -1.4564   -0.3674    2.8525 H       1  UNL1        0.0564
     34 H          -2.0876    3.2993   -1.1167 H       1  UNL1        0.0362
     35 H          -3.2560    3.4593    0.2260 H       1  UNL1        0.0362
     36 H          -4.6055    2.2382   -1.0862 H       1  UNL1        0.0318
     37 H          -3.3108    1.6824   -2.1615 H       1  UNL1        0.0318
     38 H          -5.3433   -0.0493   -1.7746 H       1  UNL1        0.0621
     39 H          -5.6350   -2.3343   -0.9103 H       1  UNL1        0.0618
     40 H          -4.1264   -3.1551    0.8801 H       1  UNL1        0.0618
     41 H          -2.4021   -1.7256    1.7496 H       1  UNL1        0.0636
     42 H           2.8154    3.6763   -0.1965 H       1  UNL1        0.1046
     43 H           1.5713    1.4871    0.0441 H       1  UNL1        0.1683
@<TRIPOS>BOND
     1     1     2    1
     2     2     3   ar
     3     3     4   ar
     4     4     5   ar
     5     5     6    1
     6     6     7   am
     7     7     8    2
     8     7     9    1
     9     9    10    1
    10    10    11   am
    11    11    12    2
    12    11    13    1
    13    13    14    1
    14    14    15    1
    15    15    16   ar
    16    16    17   ar
    17    17    18   ar
    18    18    19   ar
    19    19    20   ar
    20     5    21   ar
    21    21    22    1
    22    22    23   ar
    23    23    24   ar
    24    24    25   ar
    25    25    26   ar
    26    21     2   ar
    27    26    22   ar
    28    20    10    1
    29    20    15   ar
    30     1    27    1
    31     1    28    1
    32     1    29    1
    33     3    30    1
    34     6    31    1
    35     9    32    1
    36     9    33    1
    37    13    34    1
    38    13    35    1
    39    14    36    1
    40    14    37    1
    41    16    38    1
    42    17    39    1
    43    18    40    1
    44    19    41    1
    45    25    42    1
    46    26    43    1
