
     RDKit          3D

 43 46  0  0  0  0  0  0  0  0999 V2000
    5.5516   -1.5336   -0.6793 C   0  0  0  0  0  0  0  0  0  0  0  0
    4.0838   -1.8901   -0.4027 C   0  0  0  0  0  0  0  0  0  0  0  0
    3.7048   -3.2198   -0.3651 C   0  0  0  0  0  0  0  0  0  0  0  0
    1.9492   -3.1434   -0.0215 S   0  0  0  0  0  0  0  0  0  0  0  0
    1.8703   -1.3593    0.0433 C   0  0  0  0  0  0  0  0  0  0  0  0
    0.6578   -0.6497    0.3045 N   0  0  0  0  0  0  0  0  0  0  0  0
    0.2770   -0.4238    1.6546 C   0  0  0  0  0  0  0  0  0  0  0  0
    1.0461   -0.8625    2.5488 O   0  0  0  0  0  0  0  0  0  0  0  0
   -0.9308    0.2713    2.1052 C   0  0  0  0  0  0  0  0  0  0  0  0
   -1.7972    0.7651    1.0820 N   0  0  0  0  0  0  0  0  0  0  0  0
   -1.6834    2.0749    0.5435 C   0  0  0  0  0  0  0  0  0  0  0  0
   -0.6745    2.7767    0.8530 O   0  0  0  0  0  0  0  0  0  0  0  0
   -2.6643    2.6951   -0.3628 C   0  0  0  0  0  0  0  0  0  0  0  0
   -3.5777    1.7641   -1.0666 C   0  0  0  0  0  0  0  0  0  0  0  0
   -3.6665    0.4301   -0.4735 C   0  0  0  0  0  0  0  0  0  0  0  0
   -4.6716   -0.3962   -0.9865 C   0  0  0  0  0  0  0  0  0  0  0  0
   -4.8600   -1.6718   -0.5275 C   0  0  0  0  0  0  0  0  0  0  0  0
   -4.0331   -2.1451    0.4656 C   0  0  0  0  0  0  0  0  0  0  0  0
   -3.0289   -1.3233    0.9801 C   0  0  0  0  0  0  0  0  0  0  0  0
   -2.8304   -0.0561    0.5351 C   0  0  0  0  0  0  0  0  0  0  0  0
    3.1509   -0.9478   -0.1957 C   0  0  0  0  0  0  0  0  0  0  0  0
    3.4427    0.5205   -0.2491 C   0  0  0  0  0  0  0  0  0  0  0  0
    4.6359    1.1125   -0.4616 N   0  0  0  0  0  0  0  0  0  0  0  0
    4.5414    2.4097   -0.4676 N   0  0  0  0  0  0  0  0  0  0  0  0
    3.2492    2.6908   -0.2533 C   0  0  0  0  0  0  0  0  0  0  0  0
    2.5848    1.5165   -0.1209 N   0  0  0  0  0  0  0  0  0  0  0  0
    5.5642   -0.7961   -1.5208 H   0  0  0  0  0  0  0  0  0  0  0  0
    6.1096   -2.4197   -0.9606 H   0  0  0  0  0  0  0  0  0  0  0  0
    6.0089   -1.0855    0.2133 H   0  0  0  0  0  0  0  0  0  0  0  0
    4.3050   -4.1382   -0.5072 H   0  0  0  0  0  0  0  0  0  0  0  0
    0.0617   -0.3041   -0.4502 H   0  0  0  0  0  0  0  0  0  0  0  0
   -0.5398    1.1282    2.7543 H   0  0  0  0  0  0  0  0  0  0  0  0
   -1.4564   -0.3674    2.8525 H   0  0  0  0  0  0  0  0  0  0  0  0
   -2.0876    3.2993   -1.1167 H   0  0  0  0  0  0  0  0  0  0  0  0
   -3.2560    3.4593    0.2260 H   0  0  0  0  0  0  0  0  0  0  0  0
   -4.6055    2.2382   -1.0862 H   0  0  0  0  0  0  0  0  0  0  0  0
   -3.3108    1.6824   -2.1615 H   0  0  0  0  0  0  0  0  0  0  0  0
   -5.3433   -0.0493   -1.7746 H   0  0  0  0  0  0  0  0  0  0  0  0
   -5.6350   -2.3343   -0.9103 H   0  0  0  0  0  0  0  0  0  0  0  0
   -4.1264   -3.1551    0.8801 H   0  0  0  0  0  0  0  0  0  0  0  0
   -2.4021   -1.7256    1.7496 H   0  0  0  0  0  0  0  0  0  0  0  0
    2.8154    3.6763   -0.1965 H   0  0  0  0  0  0  0  0  0  0  0  0
    1.5713    1.4871    0.0441 H   0  0  0  0  0  0  0  0  0  0  0  0
  1  2  1  0
  2  3  2  0
  3  4  1  0
  4  5  1  0
  5  6  1  0
  6  7  1  0
  7  8  2  0
  7  9  1  0
  9 10  1  0
 10 11  1  0
 11 12  2  0
 11 13  1  0
 13 14  1  0
 14 15  1  0
 15 16  2  0
 16 17  1  0
 17 18  2  0
 18 19  1  0
 19 20  2  0
  5 21  2  0
 21 22  1  0
 22 23  2  0
 23 24  1  0
 24 25  2  0
 25 26  1  0
 21  2  1  0
 26 22  1  0
 20 10  1  0
 20 15  1  0
  1 27  1  0
  1 28  1  0
  1 29  1  0
  3 30  1  0
  6 31  1  0
  9 32  1  0
  9 33  1  0
 13 34  1  0
 13 35  1  0
 14 36  1  0
 14 37  1  0
 16 38  1  0
 17 39  1  0
 18 40  1  0
 19 41  1  0
 25 42  1  0
 26 43  1  0
M  END
$$$$
