@<TRIPOS>MOLECULE
*****
 27 28 0 0 0
SMALL
GASTEIGER

@<TRIPOS>ATOM
      1 C           0.5391   -2.0375   -1.2561 C.3     1  UNL1       -0.0215
      2 C           1.2174   -0.9520   -0.5336 C.ar    1  UNL1        0.0528
      3 C           0.5534    0.1127    0.0413 C.ar    1  UNL1        0.0428
      4 C           1.1486    1.1539    0.7288 C.ar    1  UNL1        0.1293
      5 N           0.3813    2.2040    1.2844 N.pl3   1  UNL1       -0.3425
      6 N           2.5017    1.0895    0.8263 N.ar    1  UNL1       -0.1995
      7 C           3.1888    0.0709    0.2815 C.ar    1  UNL1        0.2145
      8 N           4.6001    0.0911    0.4359 N.pl3   1  UNL1       -0.3274
      9 N           2.5665   -0.9172   -0.3767 N.ar    1  UNL1       -0.2192
     10 C          -0.9005    0.1383   -0.0897 C.ar    1  UNL1       -0.0114
     11 C          -1.6524    0.7129   -1.0946 C.ar    1  UNL1       -0.0341
     12 C          -3.0267    0.6268   -1.0345 C.ar    1  UNL1        0.0598
     13 CL         -3.9350    1.3681   -2.3272 Cl      1  UNL1       -0.0820
     14 C          -3.6557   -0.0306    0.0246 C.ar    1  UNL1        0.0593
     15 CL         -5.4046   -0.1048    0.0422 Cl      1  UNL1       -0.0820
     16 C          -2.9018   -0.6048    1.0289 C.ar    1  UNL1       -0.0414
     17 C          -1.5095   -0.5256    0.9813 C.ar    1  UNL1       -0.0524
     18 H           0.0492   -2.7819   -0.5973 H       1  UNL1        0.0293
     19 H          -0.1819   -1.6268   -2.0211 H       1  UNL1        0.0293
     20 H           1.3111   -2.5898   -1.8542 H       1  UNL1        0.0293
     21 H          -0.0298    2.4337    2.2263 H       1  UNL1        0.1437
     22 H           0.2691    2.8293    0.4525 H       1  UNL1        0.1437
     23 H           5.3384   -0.3852   -0.1141 H       1  UNL1        0.1452
     24 H           5.0758    0.6322    1.1801 H       1  UNL1        0.1452
     25 H          -1.0805    1.1899   -1.8559 H       1  UNL1        0.0639
     26 H          -3.4498   -1.0956    1.8149 H       1  UNL1        0.0633
     27 H          -1.0123   -1.0014    1.8058 H       1  UNL1        0.0624
@<TRIPOS>BOND
     1     1     2    1
     2     2     3   ar
     3     3     4   ar
     4     4     5    1
     5     4     6   ar
     6     6     7   ar
     7     7     8    1
     8     7     9   ar
     9     3    10    1
    10    10    11   ar
    11    11    12   ar
    12    12    13    1
    13    12    14   ar
    14    14    15    1
    15    14    16   ar
    16    16    17   ar
    17     9     2   ar
    18    17    10   ar
    19     1    18    1
    20     1    19    1
    21     1    20    1
    22     5    21    1
    23     5    22    1
    24     8    23    1
    25     8    24    1
    26    11    25    1
    27    16    26    1
    28    17    27    1
