
     RDKit          3D

 27 28  0  0  0  0  0  0  0  0999 V2000
    0.5391   -2.0375   -1.2561 C   0  0  0  0  0  0  0  0  0  0  0  0
    1.2174   -0.9520   -0.5336 C   0  0  0  0  0  0  0  0  0  0  0  0
    0.5534    0.1127    0.0413 C   0  0  0  0  0  0  0  0  0  0  0  0
    1.1486    1.1539    0.7288 C   0  0  0  0  0  0  0  0  0  0  0  0
    0.3813    2.2040    1.2844 N   0  0  0  0  0  0  0  0  0  0  0  0
    2.5017    1.0895    0.8263 N   0  0  0  0  0  0  0  0  0  0  0  0
    3.1888    0.0709    0.2815 C   0  0  0  0  0  0  0  0  0  0  0  0
    4.6001    0.0911    0.4359 N   0  0  0  0  0  0  0  0  0  0  0  0
    2.5665   -0.9172   -0.3767 N   0  0  0  0  0  0  0  0  0  0  0  0
   -0.9005    0.1383   -0.0897 C   0  0  0  0  0  0  0  0  0  0  0  0
   -1.6524    0.7129   -1.0946 C   0  0  0  0  0  0  0  0  0  0  0  0
   -3.0267    0.6268   -1.0345 C   0  0  0  0  0  0  0  0  0  0  0  0
   -3.9350    1.3681   -2.3272 Cl  0  0  0  0  0  0  0  0  0  0  0  0
   -3.6557   -0.0306    0.0246 C   0  0  0  0  0  0  0  0  0  0  0  0
   -5.4046   -0.1048    0.0422 Cl  0  0  0  0  0  0  0  0  0  0  0  0
   -2.9018   -0.6048    1.0289 C   0  0  0  0  0  0  0  0  0  0  0  0
   -1.5095   -0.5256    0.9813 C   0  0  0  0  0  0  0  0  0  0  0  0
    0.0492   -2.7819   -0.5973 H   0  0  0  0  0  0  0  0  0  0  0  0
   -0.1819   -1.6268   -2.0211 H   0  0  0  0  0  0  0  0  0  0  0  0
    1.3111   -2.5898   -1.8542 H   0  0  0  0  0  0  0  0  0  0  0  0
   -0.0298    2.4337    2.2263 H   0  0  0  0  0  0  0  0  0  0  0  0
    0.2691    2.8293    0.4525 H   0  0  0  0  0  0  0  0  0  0  0  0
    5.3384   -0.3852   -0.1141 H   0  0  0  0  0  0  0  0  0  0  0  0
    5.0758    0.6322    1.1801 H   0  0  0  0  0  0  0  0  0  0  0  0
   -1.0805    1.1899   -1.8559 H   0  0  0  0  0  0  0  0  0  0  0  0
   -3.4498   -1.0956    1.8149 H   0  0  0  0  0  0  0  0  0  0  0  0
   -1.0123   -1.0014    1.8058 H   0  0  0  0  0  0  0  0  0  0  0  0
  1  2  1  0
  2  3  2  0
  3  4  1  0
  4  5  1  0
  4  6  2  0
  6  7  1  0
  7  8  1  0
  7  9  2  0
  3 10  1  0
 10 11  2  0
 11 12  1  0
 12 13  1  0
 12 14  2  0
 14 15  1  0
 14 16  1  0
 16 17  2  0
  9  2  1  0
 17 10  1  0
  1 18  1  0
  1 19  1  0
  1 20  1  0
  5 21  1  0
  5 22  1  0
  8 23  1  0
  8 24  1  0
 11 25  1  0
 16 26  1  0
 17 27  1  0
M  END
$$$$
