@<TRIPOS>MOLECULE
*****
 43 46 0 0 0
SMALL
GASTEIGER

@<TRIPOS>ATOM
      1 O          -4.0681   -1.5361   -2.0175 O.2     1  UNL1       -0.2490
      2 C          -4.3557   -1.9756   -0.8765 C.2     1  UNL1        0.3247
      3 O          -5.3441   -2.9468   -0.8302 O.3     1  UNL1       -0.4794
      4 C          -3.7397   -1.5488    0.3789 C.3     1  UNL1        0.1204
      5 N          -2.7174   -0.5311    0.2190 N.ar    1  UNL1       -0.3327
      6 C          -1.3910   -0.7230    0.0097 C.ar    1  UNL1        0.0266
      7 C          -0.7227    0.4605   -0.0928 C.ar    1  UNL1       -0.0016
      8 C          -1.6618    1.4470    0.0577 C.ar    1  UNL1        0.0048
      9 C          -1.5431    2.8282    0.0427 C.ar    1  UNL1       -0.0523
     10 C          -2.6721    3.5985    0.2227 C.ar    1  UNL1       -0.0611
     11 C          -3.8873    2.9529    0.4127 C.ar    1  UNL1       -0.0598
     12 C          -4.0229    1.5984    0.4307 C.ar    1  UNL1       -0.0376
     13 C          -2.8747    0.8188    0.2472 C.ar    1  UNL1        0.0501
     14 C           0.7613    0.5390   -0.3345 C.3     1  UNL1        0.0423
     15 N           1.3113   -0.7400   -0.7067 N.am    1  UNL1       -0.2928
     16 C           2.6604   -1.1173   -0.6104 C.2     1  UNL1        0.2469
     17 O           2.9154   -2.3294   -1.0184 O.2     1  UNL1       -0.2700
     18 C           3.7854   -0.3650   -0.1305 C.ar    1  UNL1        0.0369
     19 C           3.8781    1.0017   -0.0969 C.ar    1  UNL1       -0.0496
     20 C           5.0241    1.6465    0.3834 C.ar    1  UNL1       -0.0610
     21 C           6.1003    0.9557    0.8381 C.ar    1  UNL1       -0.0617
     22 C           6.0335   -0.4188    0.8146 C.ar    1  UNL1       -0.0610
     23 C           4.9117   -1.0522    0.3456 C.ar    1  UNL1       -0.0496
     24 C           0.3676   -1.7476   -1.2349 C.3     1  UNL1        0.0207
     25 C          -0.6488   -2.0221   -0.1152 C.3     1  UNL1        0.0039
     26 H          -5.5008   -3.6541   -1.5390 H       1  UNL1        0.2951
     27 H          -3.3301   -2.4557    0.8927 H       1  UNL1        0.0607
     28 H          -4.5587   -1.1887    1.0525 H       1  UNL1        0.0607
     29 H          -0.5916    3.3215   -0.1054 H       1  UNL1        0.0624
     30 H          -2.6517    4.6876    0.2220 H       1  UNL1        0.0618
     31 H          -4.7828    3.5589    0.5560 H       1  UNL1        0.0618
     32 H          -4.9418    1.0723    0.5745 H       1  UNL1        0.0638
     33 H           1.1798    0.8051    0.6553 H       1  UNL1        0.0515
     34 H           0.9530    1.3029   -1.1304 H       1  UNL1        0.0515
     35 H           3.0961    1.6322   -0.4362 H       1  UNL1        0.0625
     36 H           5.0190    2.7497    0.3813 H       1  UNL1        0.0618
     37 H           6.9688    1.4905    1.2006 H       1  UNL1        0.0618
     38 H           6.9053   -0.9515    1.1830 H       1  UNL1        0.0618
     39 H           4.8837   -2.1450    0.3380 H       1  UNL1        0.0625
     40 H          -0.1957   -1.2586   -2.0507 H       1  UNL1        0.0468
     41 H           0.8889   -2.6469   -1.5511 H       1  UNL1        0.0468
     42 H          -0.1436   -2.2810    0.8241 H       1  UNL1        0.0343
     43 H          -1.2973   -2.8326   -0.4891 H       1  UNL1        0.0343
@<TRIPOS>BOND
     1     1     2    2
     2     2     3    1
     3     2     4    1
     4     4     5    1
     5     5     6   ar
     6     6     7   ar
     7     7     8   ar
     8     8     9   ar
     9     9    10   ar
    10    10    11   ar
    11    11    12   ar
    12    12    13   ar
    13     7    14    1
    14    14    15    1
    15    15    16   am
    16    16    17    2
    17    16    18    1
    18    18    19   ar
    19    19    20   ar
    20    20    21   ar
    21    21    22   ar
    22    22    23   ar
    23    15    24    1
    24    24    25    1
    25    13     5   ar
    26    23    18   ar
    27    25     6    1
    28    13     8   ar
    29     3    26    1
    30     4    27    1
    31     4    28    1
    32     9    29    1
    33    10    30    1
    34    11    31    1
    35    12    32    1
    36    14    33    1
    37    14    34    1
    38    19    35    1
    39    20    36    1
    40    21    37    1
    41    22    38    1
    42    23    39    1
    43    24    40    1
    44    24    41    1
    45    25    42    1
    46    25    43    1
