
     RDKit          3D

 43 46  0  0  0  0  0  0  0  0999 V2000
   -4.0681   -1.5361   -2.0175 O   0  0  0  0  0  0  0  0  0  0  0  0
   -4.3557   -1.9756   -0.8765 C   0  0  0  0  0  0  0  0  0  0  0  0
   -5.3441   -2.9468   -0.8302 O   0  0  0  0  0  0  0  0  0  0  0  0
   -3.7397   -1.5488    0.3789 C   0  0  0  0  0  0  0  0  0  0  0  0
   -2.7174   -0.5311    0.2190 N   0  0  0  0  0  0  0  0  0  0  0  0
   -1.3910   -0.7230    0.0097 C   0  0  0  0  0  0  0  0  0  0  0  0
   -0.7227    0.4605   -0.0928 C   0  0  0  0  0  0  0  0  0  0  0  0
   -1.6618    1.4470    0.0577 C   0  0  0  0  0  0  0  0  0  0  0  0
   -1.5431    2.8282    0.0427 C   0  0  0  0  0  0  0  0  0  0  0  0
   -2.6721    3.5985    0.2227 C   0  0  0  0  0  0  0  0  0  0  0  0
   -3.8873    2.9529    0.4127 C   0  0  0  0  0  0  0  0  0  0  0  0
   -4.0229    1.5984    0.4307 C   0  0  0  0  0  0  0  0  0  0  0  0
   -2.8747    0.8188    0.2472 C   0  0  0  0  0  0  0  0  0  0  0  0
    0.7613    0.5390   -0.3345 C   0  0  0  0  0  0  0  0  0  0  0  0
    1.3113   -0.7400   -0.7067 N   0  0  0  0  0  0  0  0  0  0  0  0
    2.6604   -1.1173   -0.6104 C   0  0  0  0  0  0  0  0  0  0  0  0
    2.9154   -2.3294   -1.0184 O   0  0  0  0  0  0  0  0  0  0  0  0
    3.7854   -0.3650   -0.1305 C   0  0  0  0  0  0  0  0  0  0  0  0
    3.8781    1.0017   -0.0969 C   0  0  0  0  0  0  0  0  0  0  0  0
    5.0241    1.6465    0.3834 C   0  0  0  0  0  0  0  0  0  0  0  0
    6.1003    0.9557    0.8381 C   0  0  0  0  0  0  0  0  0  0  0  0
    6.0335   -0.4188    0.8146 C   0  0  0  0  0  0  0  0  0  0  0  0
    4.9117   -1.0522    0.3456 C   0  0  0  0  0  0  0  0  0  0  0  0
    0.3676   -1.7476   -1.2349 C   0  0  0  0  0  0  0  0  0  0  0  0
   -0.6488   -2.0221   -0.1152 C   0  0  0  0  0  0  0  0  0  0  0  0
   -5.5008   -3.6541   -1.5390 H   0  0  0  0  0  0  0  0  0  0  0  0
   -3.3301   -2.4557    0.8927 H   0  0  0  0  0  0  0  0  0  0  0  0
   -4.5587   -1.1887    1.0525 H   0  0  0  0  0  0  0  0  0  0  0  0
   -0.5916    3.3215   -0.1054 H   0  0  0  0  0  0  0  0  0  0  0  0
   -2.6517    4.6876    0.2220 H   0  0  0  0  0  0  0  0  0  0  0  0
   -4.7828    3.5589    0.5560 H   0  0  0  0  0  0  0  0  0  0  0  0
   -4.9418    1.0723    0.5745 H   0  0  0  0  0  0  0  0  0  0  0  0
    1.1798    0.8051    0.6553 H   0  0  0  0  0  0  0  0  0  0  0  0
    0.9530    1.3029   -1.1304 H   0  0  0  0  0  0  0  0  0  0  0  0
    3.0961    1.6322   -0.4362 H   0  0  0  0  0  0  0  0  0  0  0  0
    5.0190    2.7497    0.3813 H   0  0  0  0  0  0  0  0  0  0  0  0
    6.9688    1.4905    1.2006 H   0  0  0  0  0  0  0  0  0  0  0  0
    6.9053   -0.9515    1.1830 H   0  0  0  0  0  0  0  0  0  0  0  0
    4.8837   -2.1450    0.3380 H   0  0  0  0  0  0  0  0  0  0  0  0
   -0.1957   -1.2586   -2.0507 H   0  0  0  0  0  0  0  0  0  0  0  0
    0.8889   -2.6469   -1.5511 H   0  0  0  0  0  0  0  0  0  0  0  0
   -0.1436   -2.2810    0.8241 H   0  0  0  0  0  0  0  0  0  0  0  0
   -1.2973   -2.8326   -0.4891 H   0  0  0  0  0  0  0  0  0  0  0  0
  1  2  2  0
  2  3  1  0
  2  4  1  0
  4  5  1  0
  5  6  1  0
  6  7  2  0
  7  8  1  0
  8  9  2  0
  9 10  1  0
 10 11  2  0
 11 12  1  0
 12 13  2  0
  7 14  1  0
 14 15  1  0
 15 16  1  0
 16 17  2  0
 16 18  1  0
 18 19  2  0
 19 20  1  0
 20 21  2  0
 21 22  1  0
 22 23  2  0
 15 24  1  0
 24 25  1  0
 13  5  1  0
 23 18  1  0
 25  6  1  0
 13  8  1  0
  3 26  1  0
  4 27  1  0
  4 28  1  0
  9 29  1  0
 10 30  1  0
 11 31  1  0
 12 32  1  0
 14 33  1  0
 14 34  1  0
 19 35  1  0
 20 36  1  0
 21 37  1  0
 22 38  1  0
 23 39  1  0
 24 40  1  0
 24 41  1  0
 25 42  1  0
 25 43  1  0
M  END
$$$$
