@<TRIPOS>MOLECULE
*****
 76 79 0 0 0
SMALL
GASTEIGER

@<TRIPOS>ATOM
      1 C          -6.6973    0.7053    0.9963 C.3     1  UNL1        0.0788
      2 O          -6.5370    2.0245    0.5127 O.3     1  UNL1       -0.4950
      3 C          -5.2508    2.4549    0.1798 C.ar    1  UNL1        0.1241
      4 C          -5.1068    3.7417   -0.2923 C.ar    1  UNL1        0.0218
      5 C          -3.8493    4.1789   -0.6231 C.ar    1  UNL1        0.1241
      6 O          -3.7002    5.4723   -1.0979 O.3     1  UNL1       -0.4950
      7 C          -4.7324    6.3940   -1.2742 C.3     1  UNL1        0.0788
      8 C          -2.7866    3.3408   -0.4788 C.ar    1  UNL1       -0.0119
      9 C          -2.9097    2.0204    0.0022 C.ar    1  UNL1       -0.0077
     10 C          -1.7358    1.2097    0.1535 C.ar    1  UNL1        0.0232
     11 C          -0.6807    1.7718    0.8713 C.ar    1  UNL1       -0.0401
     12 C           0.5088    1.0963    1.0697 C.ar    1  UNL1        0.0193
     13 C           1.5404    1.6714    1.7781 C.ar    1  UNL1        0.0389
     14 N           2.6992    1.0238    1.9713 N.ar    1  UNL1       -0.2398
     15 C           2.8430   -0.2095    1.4582 C.ar    1  UNL1        0.1207
     16 N           4.0565   -0.9506    1.6218 N.pl3   1  UNL1       -0.3290
     17 C           5.1420   -0.3105    2.3356 C.3     1  UNL1        0.0116
     18 C           6.3149   -1.2502    2.3942 C.3     1  UNL1       -0.0246
     19 C           6.8151   -1.6351    1.0352 C.3     1  UNL1        0.0005
     20 N           7.2462   -0.4785    0.2818 N.3     1  UNL1       -0.2979
     21 C           8.4270    0.1308    0.8167 C.3     1  UNL1        0.0224
     22 C           8.7885    1.3032   -0.0902 C.3     1  UNL1        0.0604
     23 O           9.1686    0.7724   -1.3059 O.3     1  UNL1       -0.3772
     24 C           8.1703    0.0790   -1.9439 C.3     1  UNL1        0.0604
     25 C           7.4403   -0.8922   -1.0727 C.3     1  UNL1        0.0224
     26 C           1.8397   -0.8334    0.7395 C.ar    1  UNL1        0.0041
     27 C           0.6451   -0.1789    0.5339 C.ar    1  UNL1        0.0778
     28 N          -0.3674   -0.7053   -0.1483 N.ar    1  UNL1       -0.2310
     29 C          -1.5449   -0.0313   -0.3423 C.ar    1  UNL1        0.1345
     30 N          -2.5162   -0.6916   -1.1186 N.am    1  UNL1       -0.2537
     31 C          -3.3893   -1.7103   -0.6034 C.2     1  UNL1        0.3053
     32 O          -3.3049   -2.0367    0.6066 O.2     1  UNL1       -0.2525
     33 N          -4.3349   -2.3566   -1.4159 N.am    1  UNL1       -0.2944
     34 C          -5.2368   -3.3943   -1.0005 C.3     1  UNL1        0.0276
     35 C          -4.4863   -4.6114   -0.4722 C.3     1  UNL1       -0.0442
     36 C          -6.0725   -3.8797   -2.1834 C.3     1  UNL1       -0.0442
     37 C          -6.1507   -2.8818    0.0756 C.3     1  UNL1       -0.0442
     38 C          -4.1723    1.6028    0.3270 C.ar    1  UNL1       -0.0119
     39 H          -7.7757    0.5485    1.1704 H       1  UNL1        0.0660
     40 H          -6.2501   -0.0250    0.3005 H       1  UNL1        0.0660
     41 H          -6.1724    0.5541    1.9714 H       1  UNL1        0.0660
     42 H          -5.9846    4.3995   -0.3996 H       1  UNL1        0.0691
     43 H          -5.3565    6.2453   -2.1605 H       1  UNL1        0.0660
     44 H          -4.2372    7.4092   -1.3225 H       1  UNL1        0.0660
     45 H          -5.3820    6.4571   -0.3694 H       1  UNL1        0.0660
     46 H          -1.7675    3.6684   -0.7372 H       1  UNL1        0.0660
     47 H          -0.7970    2.7605    1.2832 H       1  UNL1        0.0632
     48 H           1.4313    2.6734    2.1986 H       1  UNL1        0.0837
     49 H           4.1891   -1.9000    1.2633 H       1  UNL1        0.1475
     50 H           4.8468   -0.0276    3.3595 H       1  UNL1        0.0462
     51 H           5.3733    0.6194    1.7771 H       1  UNL1        0.0462
     52 H           6.0176   -2.2123    2.9005 H       1  UNL1        0.0293
     53 H           7.1326   -0.7926    2.9659 H       1  UNL1        0.0293
     54 H           6.0243   -2.1270    0.4252 H       1  UNL1        0.0427
     55 H           7.6350   -2.3829    1.1031 H       1  UNL1        0.0427
     56 H           9.2441   -0.6445    0.7520 H       1  UNL1        0.0449
     57 H           8.3492    0.4157    1.8650 H       1  UNL1        0.0449
     58 H           9.6537    1.8748    0.3023 H       1  UNL1        0.0572
     59 H           7.8642    1.9133   -0.1731 H       1  UNL1        0.0572
     60 H           7.4640    0.7507   -2.5143 H       1  UNL1        0.0572
     61 H           8.6700   -0.5312   -2.7528 H       1  UNL1        0.0572
     62 H           6.4092   -1.0206   -1.5155 H       1  UNL1        0.0449
     63 H           7.8778   -1.9188   -1.0986 H       1  UNL1        0.0449
     64 H           1.9688   -1.8229    0.3341 H       1  UNL1        0.0673
     65 H          -2.6153   -0.4427   -2.1323 H       1  UNL1        0.1578
     66 H          -4.3846   -2.0466   -2.4291 H       1  UNL1        0.1508
     67 H          -3.8435   -4.9919   -1.2737 H       1  UNL1        0.0250
     68 H          -3.9345   -4.3790    0.4638 H       1  UNL1        0.0250
     69 H          -5.2431   -5.3855   -0.2372 H       1  UNL1        0.0250
     70 H          -5.9852   -4.9630   -2.3354 H       1  UNL1        0.0250
     71 H          -5.7629   -3.2852   -3.0853 H       1  UNL1        0.0250
     72 H          -7.1359   -3.6243   -2.0055 H       1  UNL1        0.0250
     73 H          -6.7516   -3.7362    0.5066 H       1  UNL1        0.0250
     74 H          -6.9186   -2.2192   -0.4123 H       1  UNL1        0.0250
     75 H          -5.5962   -2.3492    0.8452 H       1  UNL1        0.0250
     76 H          -4.3393    0.5821    0.7217 H       1  UNL1        0.0660
@<TRIPOS>BOND
     1     1     2    1
     2     2     3    1
     3     3     4   ar
     4     4     5   ar
     5     5     6    1
     6     6     7    1
     7     5     8   ar
     8     8     9   ar
     9     9    10    1
    10    10    11   ar
    11    11    12   ar
    12    12    13   ar
    13    13    14   ar
    14    14    15   ar
    15    15    16    1
    16    16    17    1
    17    17    18    1
    18    18    19    1
    19    19    20    1
    20    20    21    1
    21    21    22    1
    22    22    23    1
    23    23    24    1
    24    24    25    1
    25    15    26   ar
    26    26    27   ar
    27    27    28   ar
    28    28    29   ar
    29    29    30    1
    30    30    31   am
    31    31    32    2
    32    31    33   am
    33    33    34    1
    34    34    35    1
    35    34    36    1
    36    34    37    1
    37     9    38   ar
    38    38     3   ar
    39    29    10   ar
    40    27    12   ar
    41    25    20    1
    42     1    39    1
    43     1    40    1
    44     1    41    1
    45     4    42    1
    46     7    43    1
    47     7    44    1
    48     7    45    1
    49     8    46    1
    50    11    47    1
    51    13    48    1
    52    16    49    1
    53    17    50    1
    54    17    51    1
    55    18    52    1
    56    18    53    1
    57    19    54    1
    58    19    55    1
    59    21    56    1
    60    21    57    1
    61    22    58    1
    62    22    59    1
    63    24    60    1
    64    24    61    1
    65    25    62    1
    66    25    63    1
    67    26    64    1
    68    30    65    1
    69    33    66    1
    70    35    67    1
    71    35    68    1
    72    35    69    1
    73    36    70    1
    74    36    71    1
    75    36    72    1
    76    37    73    1
    77    37    74    1
    78    37    75    1
    79    38    76    1
