
     RDKit          3D

 76 79  0  0  0  0  0  0  0  0999 V2000
   -6.6973    0.7053    0.9963 C   0  0  0  0  0  0  0  0  0  0  0  0
   -6.5370    2.0245    0.5127 O   0  0  0  0  0  0  0  0  0  0  0  0
   -5.2508    2.4549    0.1798 C   0  0  0  0  0  0  0  0  0  0  0  0
   -5.1068    3.7417   -0.2923 C   0  0  0  0  0  0  0  0  0  0  0  0
   -3.8493    4.1789   -0.6231 C   0  0  0  0  0  0  0  0  0  0  0  0
   -3.7002    5.4723   -1.0979 O   0  0  0  0  0  0  0  0  0  0  0  0
   -4.7324    6.3940   -1.2742 C   0  0  0  0  0  0  0  0  0  0  0  0
   -2.7866    3.3408   -0.4788 C   0  0  0  0  0  0  0  0  0  0  0  0
   -2.9097    2.0204    0.0022 C   0  0  0  0  0  0  0  0  0  0  0  0
   -1.7358    1.2097    0.1535 C   0  0  0  0  0  0  0  0  0  0  0  0
   -0.6807    1.7718    0.8713 C   0  0  0  0  0  0  0  0  0  0  0  0
    0.5088    1.0963    1.0697 C   0  0  0  0  0  0  0  0  0  0  0  0
    1.5404    1.6714    1.7781 C   0  0  0  0  0  0  0  0  0  0  0  0
    2.6992    1.0238    1.9713 N   0  0  0  0  0  0  0  0  0  0  0  0
    2.8430   -0.2095    1.4582 C   0  0  0  0  0  0  0  0  0  0  0  0
    4.0565   -0.9506    1.6218 N   0  0  0  0  0  0  0  0  0  0  0  0
    5.1420   -0.3105    2.3356 C   0  0  0  0  0  0  0  0  0  0  0  0
    6.3149   -1.2502    2.3942 C   0  0  0  0  0  0  0  0  0  0  0  0
    6.8151   -1.6351    1.0352 C   0  0  0  0  0  0  0  0  0  0  0  0
    7.2462   -0.4785    0.2818 N   0  0  0  0  0  0  0  0  0  0  0  0
    8.4270    0.1308    0.8167 C   0  0  0  0  0  0  0  0  0  0  0  0
    8.7885    1.3032   -0.0902 C   0  0  0  0  0  0  0  0  0  0  0  0
    9.1686    0.7724   -1.3059 O   0  0  0  0  0  0  0  0  0  0  0  0
    8.1703    0.0790   -1.9439 C   0  0  0  0  0  0  0  0  0  0  0  0
    7.4403   -0.8922   -1.0727 C   0  0  0  0  0  0  0  0  0  0  0  0
    1.8397   -0.8334    0.7395 C   0  0  0  0  0  0  0  0  0  0  0  0
    0.6451   -0.1789    0.5339 C   0  0  0  0  0  0  0  0  0  0  0  0
   -0.3674   -0.7053   -0.1483 N   0  0  0  0  0  0  0  0  0  0  0  0
   -1.5449   -0.0313   -0.3423 C   0  0  0  0  0  0  0  0  0  0  0  0
   -2.5162   -0.6916   -1.1186 N   0  0  0  0  0  0  0  0  0  0  0  0
   -3.3893   -1.7103   -0.6034 C   0  0  0  0  0  0  0  0  0  0  0  0
   -3.3049   -2.0367    0.6066 O   0  0  0  0  0  0  0  0  0  0  0  0
   -4.3349   -2.3566   -1.4159 N   0  0  0  0  0  0  0  0  0  0  0  0
   -5.2368   -3.3943   -1.0005 C   0  0  0  0  0  0  0  0  0  0  0  0
   -4.4863   -4.6114   -0.4722 C   0  0  0  0  0  0  0  0  0  0  0  0
   -6.0725   -3.8797   -2.1834 C   0  0  0  0  0  0  0  0  0  0  0  0
   -6.1507   -2.8818    0.0756 C   0  0  0  0  0  0  0  0  0  0  0  0
   -4.1723    1.6028    0.3270 C   0  0  0  0  0  0  0  0  0  0  0  0
   -7.7757    0.5485    1.1704 H   0  0  0  0  0  0  0  0  0  0  0  0
   -6.2501   -0.0250    0.3005 H   0  0  0  0  0  0  0  0  0  0  0  0
   -6.1724    0.5541    1.9714 H   0  0  0  0  0  0  0  0  0  0  0  0
   -5.9846    4.3995   -0.3996 H   0  0  0  0  0  0  0  0  0  0  0  0
   -5.3565    6.2453   -2.1605 H   0  0  0  0  0  0  0  0  0  0  0  0
   -4.2372    7.4092   -1.3225 H   0  0  0  0  0  0  0  0  0  0  0  0
   -5.3820    6.4571   -0.3694 H   0  0  0  0  0  0  0  0  0  0  0  0
   -1.7675    3.6684   -0.7372 H   0  0  0  0  0  0  0  0  0  0  0  0
   -0.7970    2.7605    1.2832 H   0  0  0  0  0  0  0  0  0  0  0  0
    1.4313    2.6734    2.1986 H   0  0  0  0  0  0  0  0  0  0  0  0
    4.1891   -1.9000    1.2633 H   0  0  0  0  0  0  0  0  0  0  0  0
    4.8468   -0.0276    3.3595 H   0  0  0  0  0  0  0  0  0  0  0  0
    5.3733    0.6194    1.7771 H   0  0  0  0  0  0  0  0  0  0  0  0
    6.0176   -2.2123    2.9005 H   0  0  0  0  0  0  0  0  0  0  0  0
    7.1326   -0.7926    2.9659 H   0  0  0  0  0  0  0  0  0  0  0  0
    6.0243   -2.1270    0.4252 H   0  0  0  0  0  0  0  0  0  0  0  0
    7.6350   -2.3829    1.1031 H   0  0  0  0  0  0  0  0  0  0  0  0
    9.2441   -0.6445    0.7520 H   0  0  0  0  0  0  0  0  0  0  0  0
    8.3492    0.4157    1.8650 H   0  0  0  0  0  0  0  0  0  0  0  0
    9.6537    1.8748    0.3023 H   0  0  0  0  0  0  0  0  0  0  0  0
    7.8642    1.9133   -0.1731 H   0  0  0  0  0  0  0  0  0  0  0  0
    7.4640    0.7507   -2.5143 H   0  0  0  0  0  0  0  0  0  0  0  0
    8.6700   -0.5312   -2.7528 H   0  0  0  0  0  0  0  0  0  0  0  0
    6.4092   -1.0206   -1.5155 H   0  0  0  0  0  0  0  0  0  0  0  0
    7.8778   -1.9188   -1.0986 H   0  0  0  0  0  0  0  0  0  0  0  0
    1.9688   -1.8229    0.3341 H   0  0  0  0  0  0  0  0  0  0  0  0
   -2.6153   -0.4427   -2.1323 H   0  0  0  0  0  0  0  0  0  0  0  0
   -4.3846   -2.0466   -2.4291 H   0  0  0  0  0  0  0  0  0  0  0  0
   -3.8435   -4.9919   -1.2737 H   0  0  0  0  0  0  0  0  0  0  0  0
   -3.9345   -4.3790    0.4638 H   0  0  0  0  0  0  0  0  0  0  0  0
   -5.2431   -5.3855   -0.2372 H   0  0  0  0  0  0  0  0  0  0  0  0
   -5.9852   -4.9630   -2.3354 H   0  0  0  0  0  0  0  0  0  0  0  0
   -5.7629   -3.2852   -3.0853 H   0  0  0  0  0  0  0  0  0  0  0  0
   -7.1359   -3.6243   -2.0055 H   0  0  0  0  0  0  0  0  0  0  0  0
   -6.7516   -3.7362    0.5066 H   0  0  0  0  0  0  0  0  0  0  0  0
   -6.9186   -2.2192   -0.4123 H   0  0  0  0  0  0  0  0  0  0  0  0
   -5.5962   -2.3492    0.8452 H   0  0  0  0  0  0  0  0  0  0  0  0
   -4.3393    0.5821    0.7217 H   0  0  0  0  0  0  0  0  0  0  0  0
  1  2  1  0
  2  3  1  0
  3  4  2  0
  4  5  1  0
  5  6  1  0
  6  7  1  0
  5  8  2  0
  8  9  1  0
  9 10  1  0
 10 11  2  0
 11 12  1  0
 12 13  2  0
 13 14  1  0
 14 15  2  0
 15 16  1  0
 16 17  1  0
 17 18  1  0
 18 19  1  0
 19 20  1  0
 20 21  1  0
 21 22  1  0
 22 23  1  0
 23 24  1  0
 24 25  1  0
 15 26  1  0
 26 27  2  0
 27 28  1  0
 28 29  2  0
 29 30  1  0
 30 31  1  0
 31 32  2  0
 31 33  1  0
 33 34  1  0
 34 35  1  0
 34 36  1  0
 34 37  1  0
  9 38  2  0
 38  3  1  0
 29 10  1  0
 27 12  1  0
 25 20  1  0
  1 39  1  0
  1 40  1  0
  1 41  1  0
  4 42  1  0
  7 43  1  0
  7 44  1  0
  7 45  1  0
  8 46  1  0
 11 47  1  0
 13 48  1  0
 16 49  1  0
 17 50  1  0
 17 51  1  0
 18 52  1  0
 18 53  1  0
 19 54  1  0
 19 55  1  0
 21 56  1  0
 21 57  1  0
 22 58  1  0
 22 59  1  0
 24 60  1  0
 24 61  1  0
 25 62  1  0
 25 63  1  0
 26 64  1  0
 30 65  1  0
 33 66  1  0
 35 67  1  0
 35 68  1  0
 35 69  1  0
 36 70  1  0
 36 71  1  0
 36 72  1  0
 37 73  1  0
 37 74  1  0
 37 75  1  0
 38 76  1  0
M  END
$$$$
