
     RDKit          3D

 48 51  0  0  0  0  0  0  0  0999 V2000
   -4.1592   -1.8939    0.3981 C   0  0  0  0  0  0  0  0  0  0  0  0
   -4.4678   -0.4600    0.1462 C   0  0  0  0  0  0  0  0  0  0  0  0
   -5.7866   -0.1188   -0.2121 C   0  0  0  0  0  0  0  0  0  0  0  0
   -6.1745    1.1698   -0.4114 C   0  0  0  0  0  0  0  0  0  0  0  0
   -7.5839    1.5238   -0.7936 C   0  0  0  0  0  0  0  0  0  0  0  0
   -7.9040    0.8479   -1.9506 F   0  0  0  0  0  0  0  0  0  0  0  0
   -8.4501    1.0483    0.1955 F   0  0  0  0  0  0  0  0  0  0  0  0
   -5.2232    2.1469   -0.2496 C   0  0  0  0  0  0  0  0  0  0  0  0
   -3.9727    1.8285    0.0887 N   0  0  0  0  0  0  0  0  0  0  0  0
   -3.5492    0.5321    0.2965 C   0  0  0  0  0  0  0  0  0  0  0  0
   -2.1443    0.3571    0.5985 C   0  0  0  0  0  0  0  0  0  0  0  0
   -1.5152    1.3563    1.1543 O   0  0  0  0  0  0  0  0  0  0  0  0
   -1.4043   -0.8054    0.3333 N   0  0  0  0  0  0  0  0  0  0  0  0
   -0.0153   -0.7910    0.7179 C   0  0  0  0  0  0  0  0  0  0  0  0
    0.3369   -1.2182    1.9774 C   0  0  0  0  0  0  0  0  0  0  0  0
    1.6524   -1.2078    2.3502 C   0  0  0  0  0  0  0  0  0  0  0  0
    2.6031   -0.7657    1.4478 C   0  0  0  0  0  0  0  0  0  0  0  0
    3.8922   -0.7752    1.8648 F   0  0  0  0  0  0  0  0  0  0  0  0
    2.2203   -0.3436    0.1928 C   0  0  0  0  0  0  0  0  0  0  0  0
    3.3305    0.1256   -0.7170 C   0  0  1  0  0  0  0  0  0  0  0  0
    2.7642    0.5981   -2.0310 C   0  0  0  0  0  0  0  0  0  0  0  0
    3.7949    1.0380   -2.8282 F   0  0  0  0  0  0  0  0  0  0  0  0
    2.2629   -0.5336   -2.7021 F   0  0  0  0  0  0  0  0  0  0  0  0
    3.9461    1.2345   -0.0495 N   0  0  0  0  0  0  0  0  0  0  0  0
    5.1583    1.3231    0.2933 C   0  0  0  0  0  0  0  0  0  0  0  0
    5.6512    2.4884    0.9564 N   0  0  0  0  0  0  0  0  0  0  0  0
    6.0182    0.2838    0.0252 O   0  0  0  0  0  0  0  0  0  0  0  0
    5.5837   -0.9576   -0.4647 C   0  0  2  0  0  0  0  0  0  0  0  0
    5.2938   -1.0450   -1.9423 C   0  0  0  0  0  0  0  0  0  0  0  0
    4.1997   -1.0513   -0.9330 C   0  0  2  0  0  0  0  0  0  0  0  0
    0.9018   -0.3476   -0.1979 C   0  0  0  0  0  0  0  0  0  0  0  0
   -5.1494   -2.3646    0.7252 H   0  0  0  0  0  0  0  0  0  0  0  0
   -3.8909   -2.4586   -0.4963 H   0  0  0  0  0  0  0  0  0  0  0  0
   -3.5220   -2.0190    1.2835 H   0  0  0  0  0  0  0  0  0  0  0  0
   -6.5094   -0.9081   -0.3313 H   0  0  0  0  0  0  0  0  0  0  0  0
   -7.6980    2.6115   -0.9081 H   0  0  0  0  0  0  0  0  0  0  0  0
   -5.5309    3.1742   -0.4073 H   0  0  0  0  0  0  0  0  0  0  0  0
   -1.7983   -1.6319   -0.1342 H   0  0  0  0  0  0  0  0  0  0  0  0
   -0.4029   -1.5676    2.6938 H   0  0  0  0  0  0  0  0  0  0  0  0
    1.9284   -1.5435    3.3399 H   0  0  0  0  0  0  0  0  0  0  0  0
    2.0267    1.3926   -1.9495 H   0  0  0  0  0  0  0  0  0  0  0  0
    5.3258    3.4127    0.6373 H   0  0  0  0  0  0  0  0  0  0  0  0
    6.3154    2.4029    1.7341 H   0  0  0  0  0  0  0  0  0  0  0  0
    6.0425   -1.8426    0.0071 H   0  0  0  0  0  0  0  0  0  0  0  0
    5.5968   -2.0068   -2.4214 H   0  0  0  0  0  0  0  0  0  0  0  0
    5.6147   -0.1612   -2.5032 H   0  0  0  0  0  0  0  0  0  0  0  0
    3.7202   -2.0727   -0.8165 H   0  0  0  0  0  0  0  0  0  0  0  0
    0.6713   -0.0048   -1.1835 H   0  0  0  0  0  0  0  0  0  0  0  0
  1  2  1  0
  2  3  2  0
  3  4  1  0
  4  5  1  0
  5  6  1  0
  5  7  1  0
  4  8  2  0
  8  9  1  0
  9 10  2  0
 10 11  1  0
 11 12  2  0
 11 13  1  0
 13 14  1  0
 14 15  2  0
 15 16  1  0
 16 17  2  0
 17 18  1  0
 17 19  1  0
 19 20  1  0
 20 21  1  6
 21 22  1  0
 21 23  1  0
 20 24  1  0
 24 25  2  0
 25 26  1  0
 25 27  1  0
 27 28  1  0
 28 29  1  0
 29 30  1  0
 19 31  2  0
 10  2  1  0
 31 14  1  0
 30 20  1  0
 30 28  1  0
  1 32  1  0
  1 33  1  0
  1 34  1  0
  3 35  1  0
  5 36  1  0
  8 37  1  0
 13 38  1  0
 15 39  1  0
 16 40  1  0
 21 41  1  0
 26 42  1  0
 26 43  1  0
 28 44  1  1
 29 45  1  0
 29 46  1  0
 30 47  1  1
 31 48  1  0
M  END
$$$$
