@<TRIPOS>MOLECULE
*****
 48 51 0 0 0
SMALL
GASTEIGER

@<TRIPOS>ATOM
      1 C          -4.1592   -1.8939    0.3981 C.3     1  UNL1       -0.0375
      2 C          -4.4678   -0.4600    0.1462 C.ar    1  UNL1       -0.0195
      3 C          -5.7866   -0.1188   -0.2121 C.ar    1  UNL1       -0.0467
      4 C          -6.1745    1.1698   -0.4114 C.ar    1  UNL1        0.0358
      5 C          -7.5839    1.5238   -0.7936 C.3     1  UNL1        0.2658
      6 F          -7.9040    0.8479   -1.9506 F       1  UNL1       -0.2039
      7 F          -8.4501    1.0483    0.1955 F       1  UNL1       -0.2039
      8 C          -5.2232    2.1469   -0.2496 C.ar    1  UNL1        0.0369
      9 N          -3.9727    1.8285    0.0887 N.ar    1  UNL1       -0.2496
     10 C          -3.5492    0.5321    0.2965 C.ar    1  UNL1        0.1286
     11 C          -2.1443    0.3571    0.5985 C.2     1  UNL1        0.2668
     12 O          -1.5152    1.3563    1.1543 O.2     1  UNL1       -0.2682
     13 N          -1.4043   -0.8054    0.3333 N.am    1  UNL1       -0.2802
     14 C          -0.0153   -0.7910    0.7179 C.ar    1  UNL1        0.0342
     15 C           0.3369   -1.2182    1.9774 C.ar    1  UNL1       -0.0377
     16 C           1.6524   -1.2078    2.3502 C.ar    1  UNL1       -0.0243
     17 C           2.6031   -0.7657    1.4478 C.ar    1  UNL1        0.1292
     18 F           3.8922   -0.7752    1.8648 F       1  UNL1       -0.2051
     19 C           2.2203   -0.3436    0.1928 C.ar    1  UNL1        0.0228
     20 C           3.3305    0.1256   -0.7170 C.3     1  UNL1        0.1603
     21 C           2.7642    0.5981   -2.0310 C.3     1  UNL1        0.2686
     22 F           3.7949    1.0380   -2.8282 F       1  UNL1       -0.2062
     23 F           2.2629   -0.5336   -2.7021 F       1  UNL1       -0.2062
     24 N           3.9461    1.2345   -0.0495 N.2     1  UNL1       -0.2194
     25 C           5.1583    1.3231    0.2933 C.2     1  UNL1        0.2764
     26 N           5.6512    2.4884    0.9564 N.pl3   1  UNL1       -0.3134
     27 O           6.0182    0.2838    0.0252 O.2     1  UNL1       -0.4622
     28 C           5.5837   -0.9576   -0.4647 C.3     1  UNL1        0.1091
     29 C           5.2938   -1.0450   -1.9423 C.3     1  UNL1       -0.0064
     30 C           4.1997   -1.0513   -0.9330 C.3     1  UNL1        0.0344
     31 C           0.9018   -0.3476   -0.1979 C.ar    1  UNL1       -0.0321
     32 H          -5.1494   -2.3646    0.7252 H       1  UNL1        0.0278
     33 H          -3.8909   -2.4586   -0.4963 H       1  UNL1        0.0278
     34 H          -3.5220   -2.0190    1.2835 H       1  UNL1        0.0278
     35 H          -6.5094   -0.9081   -0.3313 H       1  UNL1        0.0626
     36 H          -7.6980    2.6115   -0.9081 H       1  UNL1        0.1072
     37 H          -5.5309    3.1742   -0.4073 H       1  UNL1        0.0834
     38 H          -1.7983   -1.6319   -0.1342 H       1  UNL1        0.1552
     39 H          -0.4029   -1.5676    2.6938 H       1  UNL1        0.0637
     40 H           1.9284   -1.5435    3.3399 H       1  UNL1        0.0647
     41 H           2.0267    1.3926   -1.9495 H       1  UNL1        0.1047
     42 H           5.3258    3.4127    0.6373 H       1  UNL1        0.1466
     43 H           6.3154    2.4029    1.7341 H       1  UNL1        0.1466
     44 H           6.0425   -1.8426    0.0071 H       1  UNL1        0.0737
     45 H           5.5968   -2.0068   -2.4214 H       1  UNL1        0.0306
     46 H           5.6147   -0.1612   -2.5032 H       1  UNL1        0.0306
     47 H           3.7202   -2.0727   -0.8165 H       1  UNL1        0.0366
     48 H           0.6713   -0.0048   -1.1835 H       1  UNL1        0.0640
@<TRIPOS>BOND
     1     1     2    1
     2     2     3   ar
     3     3     4   ar
     4     4     5    1
     5     5     6    1
     6     5     7    1
     7     4     8   ar
     8     8     9   ar
     9     9    10   ar
    10    10    11    1
    11    11    12    2
    12    11    13   am
    13    13    14    1
    14    14    15   ar
    15    15    16   ar
    16    16    17   ar
    17    17    18    1
    18    17    19   ar
    19    19    20    1
    20    20    21    1
    21    21    22    1
    22    21    23    1
    23    20    24    1
    24    24    25    2
    25    25    26    1
    26    25    27    1
    27    27    28    1
    28    28    29    1
    29    29    30    1
    30    19    31   ar
    31    10     2   ar
    32    31    14   ar
    33    30    20    1
    34    30    28    1
    35     1    32    1
    36     1    33    1
    37     1    34    1
    38     3    35    1
    39     5    36    1
    40     8    37    1
    41    13    38    1
    42    15    39    1
    43    16    40    1
    44    21    41    1
    45    26    42    1
    46    26    43    1
    47    28    44    1
    48    29    45    1
    49    29    46    1
    50    30    47    1
    51    31    48    1
