@<TRIPOS>MOLECULE
*****
 75 78 0 0 0
SMALL
GASTEIGER

@<TRIPOS>ATOM
      1 C          -7.0853   -1.8742    1.0666 C.3     1  UNL1        0.0370
      2 O          -6.4376   -1.1661    0.0485 O.3     1  UNL1       -0.3759
      3 C          -6.0343    0.0858    0.4193 C.3     1  UNL1        0.0971
      4 C          -6.6996    1.1974   -0.3406 C.3     1  UNL1        0.0753
      5 O          -6.6826    2.3247    0.4796 O.3     1  UNL1       -0.3771
      6 C          -5.6271    2.3509    1.3539 C.3     1  UNL1        0.0493
      7 C          -4.3354    1.7771    0.7523 C.3     1  UNL1       -0.0113
      8 C          -4.5522    0.3292    0.4115 C.3     1  UNL1        0.0408
      9 N          -3.8677   -0.1374   -0.7469 N.3     1  UNL1       -0.2968
     10 C          -4.0453   -1.5414   -0.8908 C.3     1  UNL1       -0.0121
     11 C          -2.5384    0.3462   -0.8204 C.3     1  UNL1        0.0115
     12 C          -1.8014   -0.1590   -2.0756 C.3     1  UNL1       -0.0364
     13 C          -0.4849    0.6035   -1.7804 C.3     1  UNL1       -0.0374
     14 C          -0.2169    0.3801   -0.3325 C.3     1  UNL1        0.0509
     15 C           0.6489   -0.8128   -0.1431 C.2     1  UNL1        0.2221
     16 O           0.2686   -1.6174    0.8493 O.2     1  UNL1       -0.2750
     17 N           1.7733   -1.2670   -0.7846 N.am    1  UNL1       -0.2980
     18 C           2.4307   -2.5013   -0.2586 C.3     1  UNL1        0.0305
     19 C           3.7351   -1.9574    0.3433 C.3     1  UNL1        0.0293
     20 N           4.4655   -1.3675   -0.7499 N.pl3   1  UNL1       -0.3122
     21 C           5.7721   -0.9038   -0.5418 C.ar    1  UNL1        0.1218
     22 C           6.3412   -0.8576    0.7047 C.ar    1  UNL1       -0.0101
     23 C           7.6309   -0.4045    0.8845 C.ar    1  UNL1        0.0595
     24 C           8.2434   -0.3533    2.2353 C.3     1  UNL1        0.4176
     25 F           7.6286   -1.2415    3.1073 F       1  UNL1       -0.1659
     26 F           8.1538    0.9107    2.7886 F       1  UNL1       -0.1659
     27 F           9.5872   -0.7017    2.2132 F       1  UNL1       -0.1659
     28 C           8.3585    0.0078   -0.2098 C.ar    1  UNL1       -0.0318
     29 C           7.7643   -0.0458   -1.4728 C.ar    1  UNL1        0.0302
     30 N           6.5039   -0.4953   -1.5933 N.ar    1  UNL1       -0.2403
     31 C           3.8685   -1.2410   -2.0556 C.3     1  UNL1        0.0293
     32 C           2.4188   -0.7428   -1.9436 C.3     1  UNL1        0.0305
     33 C           0.3181    1.5455    0.4290 C.3     1  UNL1       -0.0327
     34 C           1.6242    2.0787   -0.0641 C.3     1  UNL1       -0.0617
     35 C          -0.5902    2.7106    0.6237 C.3     1  UNL1       -0.0617
     36 C          -1.5928   -0.0266    0.2140 C.3     1  UNL1       -0.0231
     37 H          -7.9889   -1.3871    1.4333 H       1  UNL1        0.0524
     38 H          -7.2801   -2.9010    0.6448 H       1  UNL1        0.0524
     39 H          -6.3064   -2.0433    1.8567 H       1  UNL1        0.0524
     40 H          -6.3552    0.2068    1.4988 H       1  UNL1        0.0634
     41 H          -7.7727    0.9808   -0.5627 H       1  UNL1        0.0586
     42 H          -6.1444    1.4753   -1.2662 H       1  UNL1        0.0586
     43 H          -5.3867    3.4459    1.5135 H       1  UNL1        0.0560
     44 H          -5.8195    1.9653    2.3608 H       1  UNL1        0.0560
     45 H          -4.1451    2.4256   -0.1327 H       1  UNL1        0.0303
     46 H          -3.5848    1.9118    1.5664 H       1  UNL1        0.0303
     47 H          -4.1487   -0.2587    1.2859 H       1  UNL1        0.0489
     48 H          -3.2106   -2.1247   -1.2718 H       1  UNL1        0.0391
     49 H          -4.8965   -1.7341   -1.5985 H       1  UNL1        0.0391
     50 H          -4.2567   -1.9723    0.1333 H       1  UNL1        0.0391
     51 H          -2.5967    1.4497   -0.9898 H       1  UNL1        0.0463
     52 H          -1.5552   -1.2274   -2.0040 H       1  UNL1        0.0281
     53 H          -2.2623    0.1738   -3.0010 H       1  UNL1        0.0281
     54 H           0.2610    0.3310   -2.5003 H       1  UNL1        0.0276
     55 H          -0.7976    1.6839   -1.9662 H       1  UNL1        0.0276
     56 H           1.8079   -3.0261    0.4527 H       1  UNL1        0.0480
     57 H           2.7293   -3.1663   -1.0874 H       1  UNL1        0.0480
     58 H           4.2874   -2.7192    0.8990 H       1  UNL1        0.0480
     59 H           3.4100   -1.1126    0.9982 H       1  UNL1        0.0480
     60 H           5.8025   -1.1725    1.5986 H       1  UNL1        0.0657
     61 H           9.3849    0.3812   -0.1545 H       1  UNL1        0.0638
     62 H           8.3522    0.2840   -2.3183 H       1  UNL1        0.0830
     63 H           3.8345   -2.2440   -2.5285 H       1  UNL1        0.0480
     64 H           4.4018   -0.5278   -2.6903 H       1  UNL1        0.0480
     65 H           2.5057    0.3488   -1.9830 H       1  UNL1        0.0480
     66 H           1.9575   -1.1677   -2.8948 H       1  UNL1        0.0480
     67 H           0.5408    1.1509    1.4693 H       1  UNL1        0.0305
     68 H           1.8457    3.0466    0.4800 H       1  UNL1        0.0233
     69 H           2.4802    1.4114    0.1580 H       1  UNL1        0.0233
     70 H           1.5510    2.3702   -1.1289 H       1  UNL1        0.0233
     71 H          -1.0144    3.0786   -0.3302 H       1  UNL1        0.0233
     72 H           0.0617    3.5811    0.9516 H       1  UNL1        0.0233
     73 H          -1.3138    2.6111    1.4278 H       1  UNL1        0.0233
     74 H          -1.5636   -1.1272    0.3141 H       1  UNL1        0.0290
     75 H          -1.7583    0.3657    1.2253 H       1  UNL1        0.0290
@<TRIPOS>BOND
     1     1     2    1
     2     2     3    1
     3     3     4    1
     4     4     5    1
     5     5     6    1
     6     6     7    1
     7     7     8    1
     8     8     9    1
     9     9    10    1
    10     9    11    1
    11    11    12    1
    12    12    13    1
    13    13    14    1
    14    14    15    1
    15    15    16    2
    16    15    17   am
    17    17    18    1
    18    18    19    1
    19    19    20    1
    20    20    21    1
    21    21    22   ar
    22    22    23   ar
    23    23    24    1
    24    24    25    1
    25    24    26    1
    26    24    27    1
    27    23    28   ar
    28    28    29   ar
    29    29    30   ar
    30    20    31    1
    31    31    32    1
    32    14    33    1
    33    33    34    1
    34    33    35    1
    35    14    36    1
    36     8     3    1
    37    36    11    1
    38    32    17    1
    39    30    21   ar
    40     1    37    1
    41     1    38    1
    42     1    39    1
    43     3    40    1
    44     4    41    1
    45     4    42    1
    46     6    43    1
    47     6    44    1
    48     7    45    1
    49     7    46    1
    50     8    47    1
    51    10    48    1
    52    10    49    1
    53    10    50    1
    54    11    51    1
    55    12    52    1
    56    12    53    1
    57    13    54    1
    58    13    55    1
    59    18    56    1
    60    18    57    1
    61    19    58    1
    62    19    59    1
    63    22    60    1
    64    28    61    1
    65    29    62    1
    66    31    63    1
    67    31    64    1
    68    32    65    1
    69    32    66    1
    70    33    67    1
    71    34    68    1
    72    34    69    1
    73    34    70    1
    74    35    71    1
    75    35    72    1
    76    35    73    1
    77    36    74    1
    78    36    75    1
