
     RDKit          3D

 51 54  0  0  0  0  0  0  0  0999 V2000
    7.4787   -0.0820    0.2212 C   0  0  0  0  0  0  0  0  0  0  0  0
    6.4553    0.8836    0.4580 O   0  0  0  0  0  0  0  0  0  0  0  0
    5.1235    0.5478    0.5179 C   0  0  0  0  0  0  0  0  0  0  0  0
    4.6724   -0.7549    0.3529 C   0  0  0  0  0  0  0  0  0  0  0  0
    3.3117   -1.0099    0.4279 C   0  0  0  0  0  0  0  0  0  0  0  0
    2.3868   -0.0237    0.6596 C   0  0  0  0  0  0  0  0  0  0  0  0
    1.0321   -0.3140    0.7286 O   0  0  0  0  0  0  0  0  0  0  0  0
    0.2412   -0.2797   -0.4120 C   0  0  0  0  0  0  0  0  0  0  0  0
    0.8348    0.0266   -1.4797 O   0  0  0  0  0  0  0  0  0  0  0  0
   -1.1888   -0.5699   -0.4333 C   0  0  0  0  0  0  0  0  0  0  0  0
   -1.9980    0.3633    0.4504 C   0  0  0  0  0  0  0  0  0  0  0  0
   -1.8593    1.7702    0.0438 C   0  0  0  0  0  0  0  0  0  0  0  0
   -2.1498    2.1364   -1.2636 C   0  0  0  0  0  0  0  0  0  0  0  0
   -2.0365    3.4355   -1.6934 C   0  0  0  0  0  0  0  0  0  0  0  0
   -1.6269    4.4100   -0.8212 C   0  0  0  0  0  0  0  0  0  0  0  0
   -1.4614    6.0979   -1.3122 Cl  0  0  0  0  0  0  0  0  0  0  0  0
   -1.3231    4.0957    0.5014 C   0  0  0  0  0  0  0  0  0  0  0  0
   -1.4509    2.7835    0.8862 C   0  0  0  0  0  0  0  0  0  0  0  0
   -3.4628   -0.0204    0.2492 C   0  0  0  0  0  0  0  0  0  0  0  0
   -3.6025   -1.5326    0.3010 C   0  0  0  0  0  0  0  0  0  0  0  0
   -3.4818   -2.1352   -1.0960 C   0  0  0  0  0  0  0  0  0  0  0  0
   -2.0775   -2.7357   -1.1106 C   0  0  0  0  0  0  0  0  0  0  0  0
   -1.4234   -1.9934    0.0317 C   0  0  0  0  0  0  0  0  0  0  0  0
   -2.4476   -2.0216    1.0372 N   0  0  0  0  0  0  0  0  0  0  0  0
   -2.6418   -3.2833    1.6513 C   0  0  0  0  0  0  0  0  0  0  0  0
    2.8704    1.2655    0.8198 C   0  0  0  0  0  0  0  0  0  0  0  0
    4.2198    1.5665    0.7529 C   0  0  0  0  0  0  0  0  0  0  0  0
    7.3390   -0.5737   -0.7692 H   0  0  0  0  0  0  0  0  0  0  0  0
    8.4565    0.4371    0.2123 H   0  0  0  0  0  0  0  0  0  0  0  0
    7.4997   -0.8370    1.0109 H   0  0  0  0  0  0  0  0  0  0  0  0
    5.3970   -1.5295    0.1711 H   0  0  0  0  0  0  0  0  0  0  0  0
    3.0076   -2.0425    0.2926 H   0  0  0  0  0  0  0  0  0  0  0  0
   -1.5666   -0.4021   -1.4616 H   0  0  0  0  0  0  0  0  0  0  0  0
   -1.7409    0.2057    1.4994 H   0  0  0  0  0  0  0  0  0  0  0  0
   -2.4756    1.3600   -1.9566 H   0  0  0  0  0  0  0  0  0  0  0  0
   -2.2693    3.6832   -2.7115 H   0  0  0  0  0  0  0  0  0  0  0  0
   -1.0005    4.8936    1.1683 H   0  0  0  0  0  0  0  0  0  0  0  0
   -1.2212    2.5060    1.9126 H   0  0  0  0  0  0  0  0  0  0  0  0
   -3.8803    0.4136   -0.6759 H   0  0  0  0  0  0  0  0  0  0  0  0
   -4.0046    0.3903    1.1438 H   0  0  0  0  0  0  0  0  0  0  0  0
   -4.5568   -1.8677    0.7058 H   0  0  0  0  0  0  0  0  0  0  0  0
   -4.1917   -2.9422   -1.2736 H   0  0  0  0  0  0  0  0  0  0  0  0
   -3.5277   -1.3214   -1.8746 H   0  0  0  0  0  0  0  0  0  0  0  0
   -1.5381   -2.4884   -2.0474 H   0  0  0  0  0  0  0  0  0  0  0  0
   -2.0862   -3.8194   -0.9835 H   0  0  0  0  0  0  0  0  0  0  0  0
   -0.4987   -2.4796    0.3905 H   0  0  0  0  0  0  0  0  0  0  0  0
   -3.6504   -3.2851    2.1378 H   0  0  0  0  0  0  0  0  0  0  0  0
   -1.9104   -3.4251    2.4604 H   0  0  0  0  0  0  0  0  0  0  0  0
   -2.6332   -4.1433    0.9615 H   0  0  0  0  0  0  0  0  0  0  0  0
    2.1397    2.0440    1.0027 H   0  0  0  0  0  0  0  0  0  0  0  0
    4.5179    2.5975    0.8885 H   0  0  0  0  0  0  0  0  0  0  0  0
  1  2  1  0
  2  3  1  0
  3  4  2  0
  4  5  1  0
  5  6  2  0
  6  7  1  0
  7  8  1  0
  8  9  2  0
  8 10  1  0
 10 11  1  0
 11 12  1  0
 12 13  2  0
 13 14  1  0
 14 15  2  0
 15 16  1  0
 15 17  1  0
 17 18  2  0
 11 19  1  0
 19 20  1  0
 20 21  1  0
 21 22  1  0
 22 23  1  0
 23 24  1  0
 24 25  1  0
  6 26  1  0
 26 27  2  0
 27  3  1  0
 23 10  1  0
 18 12  1  0
 24 20  1  0
  1 28  1  0
  1 29  1  0
  1 30  1  0
  4 31  1  0
  5 32  1  0
 10 33  1  0
 11 34  1  0
 13 35  1  0
 14 36  1  0
 17 37  1  0
 18 38  1  0
 19 39  1  0
 19 40  1  0
 20 41  1  0
 21 42  1  0
 21 43  1  0
 22 44  1  0
 22 45  1  0
 23 46  1  0
 25 47  1  0
 25 48  1  0
 25 49  1  0
 26 50  1  0
 27 51  1  0
M  END
$$$$
