@<TRIPOS>MOLECULE
*****
 51 54 0 0 0
SMALL
GASTEIGER

@<TRIPOS>ATOM
      1 C           7.4787   -0.0820    0.2212 C.3     1  UNL1        0.0788
      2 O           6.4553    0.8836    0.4580 O.3     1  UNL1       -0.4951
      3 C           5.1235    0.5478    0.5179 C.ar    1  UNL1        0.1203
      4 C           4.6724   -0.7549    0.3529 C.ar    1  UNL1       -0.0165
      5 C           3.3117   -1.0099    0.4279 C.ar    1  UNL1       -0.0158
      6 C           2.3868   -0.0237    0.6596 C.ar    1  UNL1        0.1319
      7 O           1.0321   -0.3140    0.7286 O.3     1  UNL1       -0.4256
      8 C           0.2412   -0.2797   -0.4120 C.2     1  UNL1        0.3175
      9 O           0.8348    0.0266   -1.4797 O.2     1  UNL1       -0.2500
     10 C          -1.1888   -0.5699   -0.4333 C.3     1  UNL1        0.0791
     11 C          -1.9980    0.3633    0.4504 C.3     1  UNL1       -0.0001
     12 C          -1.8593    1.7702    0.0438 C.ar    1  UNL1       -0.0433
     13 C          -2.1498    2.1364   -1.2636 C.ar    1  UNL1       -0.0569
     14 C          -2.0365    3.4355   -1.6934 C.ar    1  UNL1       -0.0431
     15 C          -1.6269    4.4100   -0.8212 C.ar    1  UNL1        0.0410
     16 CL         -1.4614    6.0979   -1.3122 Cl      1  UNL1       -0.0835
     17 C          -1.3231    4.0957    0.5014 C.ar    1  UNL1       -0.0431
     18 C          -1.4509    2.7835    0.8862 C.ar    1  UNL1       -0.0569
     19 C          -3.4628   -0.0204    0.2492 C.3     1  UNL1       -0.0297
     20 C          -3.6025   -1.5326    0.3010 C.3     1  UNL1        0.0110
     21 C          -3.4818   -2.1352   -1.0960 C.3     1  UNL1       -0.0359
     22 C          -2.0775   -2.7357   -1.1106 C.3     1  UNL1       -0.0351
     23 C          -1.4234   -1.9934    0.0317 C.3     1  UNL1        0.0239
     24 N          -2.4476   -2.0216    1.0372 N.3     1  UNL1       -0.2986
     25 C          -2.6418   -3.2833    1.6513 C.3     1  UNL1       -0.0122
     26 C           2.8704    1.2655    0.8198 C.ar    1  UNL1       -0.0158
     27 C           4.2198    1.5665    0.7529 C.ar    1  UNL1       -0.0165
     28 H           7.3390   -0.5737   -0.7692 H       1  UNL1        0.0660
     29 H           8.4565    0.4371    0.2123 H       1  UNL1        0.0660
     30 H           7.4997   -0.8370    1.0109 H       1  UNL1        0.0660
     31 H           5.3970   -1.5295    0.1711 H       1  UNL1        0.0655
     32 H           3.0076   -2.0425    0.2926 H       1  UNL1        0.0655
     33 H          -1.5666   -0.4021   -1.4616 H       1  UNL1        0.0435
     34 H          -1.7409    0.2057    1.4994 H       1  UNL1        0.0358
     35 H          -2.4756    1.3600   -1.9566 H       1  UNL1        0.0621
     36 H          -2.2693    3.6832   -2.7115 H       1  UNL1        0.0632
     37 H          -1.0005    4.8936    1.1683 H       1  UNL1        0.0632
     38 H          -1.2212    2.5060    1.9126 H       1  UNL1        0.0621
     39 H          -3.8803    0.4136   -0.6759 H       1  UNL1        0.0286
     40 H          -4.0046    0.3903    1.1438 H       1  UNL1        0.0286
     41 H          -4.5568   -1.8677    0.7058 H       1  UNL1        0.0463
     42 H          -4.1917   -2.9422   -1.2736 H       1  UNL1        0.0281
     43 H          -3.5277   -1.3214   -1.8746 H       1  UNL1        0.0281
     44 H          -1.5381   -2.4884   -2.0474 H       1  UNL1        0.0281
     45 H          -2.0862   -3.8194   -0.9835 H       1  UNL1        0.0281
     46 H          -0.4987   -2.4796    0.3905 H       1  UNL1        0.0471
     47 H          -3.6504   -3.2851    2.1378 H       1  UNL1        0.0391
     48 H          -1.9104   -3.4251    2.4604 H       1  UNL1        0.0391
     49 H          -2.6332   -4.1433    0.9615 H       1  UNL1        0.0391
     50 H           2.1397    2.0440    1.0027 H       1  UNL1        0.0655
     51 H           4.5179    2.5975    0.8885 H       1  UNL1        0.0655
@<TRIPOS>BOND
     1     1     2    1
     2     2     3    1
     3     3     4   ar
     4     4     5   ar
     5     5     6   ar
     6     6     7    1
     7     7     8    1
     8     8     9    2
     9     8    10    1
    10    10    11    1
    11    11    12    1
    12    12    13   ar
    13    13    14   ar
    14    14    15   ar
    15    15    16    1
    16    15    17   ar
    17    17    18   ar
    18    11    19    1
    19    19    20    1
    20    20    21    1
    21    21    22    1
    22    22    23    1
    23    23    24    1
    24    24    25    1
    25     6    26   ar
    26    26    27   ar
    27    27     3   ar
    28    23    10    1
    29    18    12   ar
    30    24    20    1
    31     1    28    1
    32     1    29    1
    33     1    30    1
    34     4    31    1
    35     5    32    1
    36    10    33    1
    37    11    34    1
    38    13    35    1
    39    14    36    1
    40    17    37    1
    41    18    38    1
    42    19    39    1
    43    19    40    1
    44    20    41    1
    45    21    42    1
    46    21    43    1
    47    22    44    1
    48    22    45    1
    49    23    46    1
    50    25    47    1
    51    25    48    1
    52    25    49    1
    53    26    50    1
    54    27    51    1
