@<TRIPOS>MOLECULE
*****
 37 38 0 0 0
SMALL
GASTEIGER

@<TRIPOS>ATOM
      1 N          -2.6487   -0.2886    0.6063 N.am    1  UNL1        0.0000
      2 C          -3.6015   -1.3091    0.7058 C.2     1  UNL1        0.0000
      3 C          -4.6369   -1.3306    1.7697 C.3     1  UNL1        0.0000
      4 O          -3.6357   -2.2699   -0.1036 O.2     1  UNL1        0.0000
      5 C          -1.6075   -0.2250   -0.4295 C.3     1  UNL1        0.0000
      6 C          -0.3169   -0.2559    0.3557 C.3     1  UNL1        0.0000
      7 C           0.9052   -0.2166   -0.4333 C.ar    1  UNL1        0.0000
      8 C           2.0831   -0.0304    0.2666 C.ar    1  UNL1        0.0000
      9 C           2.1483    0.1146    1.6270 C.ar    1  UNL1        0.0000
     10 C           3.2870    0.2990    2.3657 C.ar    1  UNL1        0.0000
     11 C           4.4994    0.3466    1.6909 C.ar    1  UNL1        0.0000
     12 C           4.5031    0.2066    0.3144 C.ar    1  UNL1        0.0000
     13 C           3.3073    0.0222   -0.3665 C.ar    1  UNL1        0.0000
     14 C           3.4402   -0.1058   -1.7266 C.ar    1  UNL1        0.0000
     15 C           2.2543   -0.2940   -2.4376 C.ar    1  UNL1        0.0000
     16 C           1.0456   -0.3446   -1.7972 C.ar    1  UNL1        0.0000
     17 B          -1.8252    1.1234   -1.2021 B       1  UNL1        0.0000
     18 O          -0.6056    1.9248   -1.3913 O.3     1  UNL1        0.0000
     19 O          -2.4081    0.7883   -2.5340 O.3     1  UNL1        0.0000
     20 O          -2.8509    1.9251   -0.4977 O.3     1  UNL1        0.0000
     21 H          -2.6651    0.5006    1.3196 H       1  UNL1        0.0000
     22 H          -4.2294   -1.9228    2.6165 H       1  UNL1        0.0000
     23 H          -4.8805   -0.3108    2.1332 H       1  UNL1        0.0000
     24 H          -5.6028   -1.7413    1.3828 H       1  UNL1        0.0000
     25 H          -1.7299   -1.1146   -1.0463 H       1  UNL1        0.0000
     26 H          -0.3821    0.5731    1.1092 H       1  UNL1        0.0000
     27 H          -0.3299   -1.1992    0.9426 H       1  UNL1        0.0000
     28 H           1.2464    0.0873    2.2162 H       1  UNL1        0.0000
     29 H           3.2941    0.4096    3.4375 H       1  UNL1        0.0000
     30 H           5.4187    0.4912    2.2364 H       1  UNL1        0.0000
     31 H           5.4606    0.2474   -0.1893 H       1  UNL1        0.0000
     32 H           4.3772   -0.0670   -2.2296 H       1  UNL1        0.0000
     33 H           2.3368   -0.3980   -3.5164 H       1  UNL1        0.0000
     34 H           0.1365   -0.4978   -2.3614 H       1  UNL1        0.0000
     35 H          -0.7128    2.3652   -2.2930 H       1  UNL1        0.0000
     36 H          -2.7019   -0.1569   -2.5571 H       1  UNL1        0.0000
     37 H          -2.3722    2.6539    0.0165 H       1  UNL1        0.0000
@<TRIPOS>UNITY_ATOM_ATTR
17 1
charge -1
@<TRIPOS>BOND
     1     1     2   am
     2     2     3    1
     3     2     4    2
     4     1     5    1
     5     5     6    1
     6     6     7    1
     7     7     8   ar
     8     8     9   ar
     9     9    10   ar
    10    10    11   ar
    11    11    12   ar
    12    12    13   ar
    13    13    14   ar
    14    14    15   ar
    15    15    16   ar
    16     5    17    1
    17    17    18    1
    18    17    19    1
    19    17    20    1
    20    16     7   ar
    21    13     8   ar
    22     1    21    1
    23     3    22    1
    24     3    23    1
    25     3    24    1
    26     5    25    1
    27     6    26    1
    28     6    27    1
    29     9    28    1
    30    10    29    1
    31    11    30    1
    32    12    31    1
    33    14    32    1
    34    15    33    1
    35    16    34    1
    36    18    35    1
    37    19    36    1
    38    20    37    1
