@<TRIPOS>MOLECULE
*****
 11 11 0 0 0
SMALL
GASTEIGER

@<TRIPOS>ATOM
      1 O           2.5344    0.3880   -0.3788 O.3     1  UNL1        0.0000
      2 B           1.2865   -0.3847   -0.2415 B       1  UNL1        0.0000
      3 O           0.6295   -0.4700    1.0708 O.3     1  UNL1        0.0000
      4 C          -0.6607   -0.0202    0.8347 C.3     1  UNL1        0.0000
      5 C          -0.9768   -0.2783   -0.6048 C.3     1  UNL1        0.0000
      6 O           0.2337   -0.2107   -1.2526 O.3     1  UNL1        0.0000
      7 H           2.2308    1.3379   -0.3033 H       1  UNL1        0.0000
      8 H          -0.8260    1.0309    1.1528 H       1  UNL1        0.0000
      9 H          -1.3327   -0.6363    1.4534 H       1  UNL1        0.0000
     10 H          -1.6439    0.4956   -1.0182 H       1  UNL1        0.0000
     11 H          -1.4747   -1.2522   -0.7125 H       1  UNL1        0.0000
@<TRIPOS>BOND
     1     1     2    1
     2     2     3    1
     3     3     4    1
     4     4     5    1
     5     5     6    1
     6     6     2    1
     7     1     7    1
     8     4     8    1
     9     4     9    1
    10     5    10    1
    11     5    11    1
