
     RDKit          3D

 11 11  0  0  0  0  0  0  0  0999 V2000
    2.5344    0.3880   -0.3788 O   0  0  0  0  0  0  0  0  0  0  0  0
    1.2865   -0.3847   -0.2415 B   0  0  0  0  0  0  0  0  0  0  0  0
    0.6295   -0.4700    1.0708 O   0  0  0  0  0  0  0  0  0  0  0  0
   -0.6607   -0.0202    0.8347 C   0  0  0  0  0  0  0  0  0  0  0  0
   -0.9768   -0.2783   -0.6048 C   0  0  0  0  0  0  0  0  0  0  0  0
    0.2337   -0.2107   -1.2526 O   0  0  0  0  0  0  0  0  0  0  0  0
    2.2308    1.3379   -0.3033 H   0  0  0  0  0  0  0  0  0  0  0  0
   -0.8260    1.0309    1.1528 H   0  0  0  0  0  0  0  0  0  0  0  0
   -1.3327   -0.6363    1.4534 H   0  0  0  0  0  0  0  0  0  0  0  0
   -1.6439    0.4956   -1.0182 H   0  0  0  0  0  0  0  0  0  0  0  0
   -1.4747   -1.2522   -0.7125 H   0  0  0  0  0  0  0  0  0  0  0  0
  1  2  1  0
  2  3  1  0
  3  4  1  0
  4  5  1  0
  5  6  1  0
  6  2  1  0
  1  7  1  0
  4  8  1  0
  4  9  1  0
  5 10  1  0
  5 11  1  0
M  END
$$$$
