@<TRIPOS>MOLECULE
*****
 49 52 0 0 0
SMALL
GASTEIGER

@<TRIPOS>ATOM
      1 C           3.8298   -2.4257    2.0481 C.3     1  UNL1        0.0805
      2 O           4.4927   -1.5584    1.1633 O.3     1  UNL1       -0.4776
      3 C           3.7758   -0.7645    0.2629 C.ar    1  UNL1        0.2557
      4 N           2.4401   -0.7724    0.1802 N.ar    1  UNL1       -0.1768
      5 C           1.7474   -0.0030   -0.6922 C.ar    1  UNL1        0.2214
      6 N           0.3296   -0.0379   -0.7517 N.pl3   1  UNL1       -0.2949
      7 C          -0.4632    0.7552   -1.6596 C.3     1  UNL1        0.0313
      8 C          -1.8926    0.6711   -1.1798 C.3     1  UNL1        0.1067
      9 C          -2.5734   -0.3368   -2.0304 C.2     1  UNL1        0.2858
     10 O          -2.3917   -0.3211   -3.2748 O.2     1  UNL1       -0.2567
     11 N          -3.4372   -1.3416   -1.5170 N.am    1  UNL1       -0.1649
     12 C          -4.1119   -2.2715   -2.3983 C.3     1  UNL1        0.0571
     13 C          -3.6363   -1.4282   -0.1134 C.2     1  UNL1        0.3717
     14 N          -4.4211   -2.3344    0.4103 N.2     1  UNL1       -0.1329
     15 N          -2.9480   -0.4896    0.7037 N.pl3   1  UNL1       -0.2262
     16 C          -1.7335    0.1373    0.2265 C.3     1  UNL1        0.1372
     17 C          -1.3406    1.1617    1.1944 C.ar    1  UNL1        0.0279
     18 C          -1.2032    2.5036    0.9227 C.ar    1  UNL1       -0.0497
     19 C          -0.8239    3.4195    1.8887 C.ar    1  UNL1       -0.0259
     20 C          -0.5678    2.9987    3.1803 C.ar    1  UNL1        0.1261
     21 F          -0.1968    3.9281    4.1046 F       1  UNL1       -0.2054
     22 C          -0.6967    1.6579    3.4856 C.ar    1  UNL1        0.0092
     23 C          -1.0809    0.7597    2.4890 C.ar    1  UNL1        0.1327
     24 F          -1.1808   -0.5317    2.8913 F       1  UNL1       -0.2050
     25 C          -0.5929   -0.8320    0.0407 C.3     1  UNL1        0.0547
     26 N           2.4517    0.7971   -1.5022 N.ar    1  UNL1       -0.2165
     27 C           3.7825    0.8774   -1.4973 C.ar    1  UNL1        0.0822
     28 C           4.5416    1.7729   -2.4057 C.3     1  UNL1       -0.0193
     29 C           4.4616    0.0822   -0.5982 C.ar    1  UNL1        0.2055
     30 F           5.8148    0.1200   -0.5462 F       1  UNL1       -0.1980
     31 H           4.3676   -3.3930    2.1453 H       1  UNL1        0.0660
     32 H           2.8106   -2.6707    1.6457 H       1  UNL1        0.0660
     33 H           3.7614   -1.9910    3.0634 H       1  UNL1        0.0660
     34 H          -0.0931    1.7818   -1.7696 H       1  UNL1        0.0474
     35 H          -0.3406    0.2823   -2.6783 H       1  UNL1        0.0474
     36 H          -2.4571    1.5984   -1.2520 H       1  UNL1        0.0464
     37 H          -3.4112   -2.7214   -3.1393 H       1  UNL1        0.0602
     38 H          -4.9528   -1.7362   -2.8674 H       1  UNL1        0.0602
     39 H          -4.5278   -3.1028   -1.8001 H       1  UNL1        0.0602
     40 H          -4.5223   -2.3420    1.4471 H       1  UNL1        0.3058
     41 H          -3.3699   -0.2883    1.6510 H       1  UNL1        0.2454
     42 H          -1.3936    2.8514   -0.0609 H       1  UNL1        0.0623
     43 H          -0.7151    4.4842    1.6723 H       1  UNL1        0.0646
     44 H          -0.4954    1.3238    4.5032 H       1  UNL1        0.0675
     45 H          -0.9598   -1.6401   -0.6325 H       1  UNL1        0.0503
     46 H          -0.1407   -1.1824    0.9649 H       1  UNL1        0.0503
     47 H           5.4244    2.2251   -1.9091 H       1  UNL1        0.0293
     48 H           3.8450    2.6164   -2.6558 H       1  UNL1        0.0293
     49 H           4.7954    1.2642   -3.3534 H       1  UNL1        0.0293
@<TRIPOS>BOND
     1     1     2    1
     2     2     3    1
     3     3     4   ar
     4     4     5   ar
     5     5     6    1
     6     6     7    1
     7     7     8    1
     8     8     9    1
     9     9    10    2
    10     9    11   am
    11    11    12    1
    12    11    13    1
    13    13    14    2
    14    13    15    1
    15    15    16    1
    16    16    17    1
    17    17    18   ar
    18    18    19   ar
    19    19    20   ar
    20    20    21    1
    21    20    22   ar
    22    22    23   ar
    23    23    24    1
    24    16    25    1
    25     5    26   ar
    26    26    27   ar
    27    27    28    1
    28    27    29   ar
    29    29    30    1
    30    29     3   ar
    31    25     6    1
    32    16     8    1
    33    23    17   ar
    34     1    31    1
    35     1    32    1
    36     1    33    1
    37     7    34    1
    38     7    35    1
    39     8    36    1
    40    12    37    1
    41    12    38    1
    42    12    39    1
    43    14    40    1
    44    15    41    1
    45    18    42    1
    46    19    43    1
    47    22    44    1
    48    25    45    1
    49    25    46    1
    50    28    47    1
    51    28    48    1
    52    28    49    1
