@<TRIPOS>MOLECULE
*****
 66 70 0 0 0
SMALL
GASTEIGER

@<TRIPOS>ATOM
      1 C          -5.2981   -0.5446    4.3589 C.3     1  UNL1       -0.0386
      2 C          -4.0572   -0.4129    3.5441 C.ar    1  UNL1       -0.0350
      3 C          -2.8533   -0.4083    4.2159 C.ar    1  UNL1       -0.0570
      4 C          -1.6970   -0.2848    3.4597 C.ar    1  UNL1       -0.0493
      5 C          -1.7351   -0.1712    2.0971 C.ar    1  UNL1        0.0382
      6 C          -0.4899   -0.0398    1.3589 C.2     1  UNL1        0.2483
      7 O           0.6291    0.0076    1.9833 O.2     1  UNL1       -0.2699
      8 N          -0.4112    0.0435   -0.0609 N.am    1  UNL1       -0.2815
      9 C           0.8750    0.1733   -0.6727 C.ar    1  UNL1        0.0342
     10 C           1.4537    1.3911   -0.9423 C.ar    1  UNL1       -0.0401
     11 C           2.7000    1.4249   -1.5213 C.ar    1  UNL1       -0.0551
     12 C           3.4246    0.2772   -1.8565 C.ar    1  UNL1       -0.0216
     13 C           4.7871    0.4283   -2.3591 C.3     1  UNL1        0.0247
     14 N           5.7911    0.6700   -1.4105 N.3     1  UNL1       -0.2957
     15 C           5.8999    0.0297   -0.1932 C.3     1  UNL1        0.0120
     16 C           7.0699   -0.8724    0.0251 C.3     1  UNL1        0.0114
     17 N           8.2211   -0.5514   -0.7735 N.3     1  UNL1       -0.3029
     18 C           9.1881    0.2524   -0.0923 C.3     1  UNL1       -0.0127
     19 C           7.9126   -0.1570   -2.1073 C.3     1  UNL1        0.0114
     20 C           7.0316    1.0705   -2.0388 C.3     1  UNL1        0.0120
     21 C           2.8256   -0.9319   -1.5818 C.ar    1  UNL1        0.0609
     22 C           3.4154   -2.2049   -1.9819 C.3     1  UNL1        0.4178
     23 F           4.6373   -2.5024   -1.4921 F       1  UNL1       -0.1659
     24 F           3.4130   -2.2379   -3.3938 F       1  UNL1       -0.1659
     25 F           2.5690   -3.2476   -1.6042 F       1  UNL1       -0.1659
     26 C           1.5521   -0.9782   -0.9885 C.ar    1  UNL1       -0.0285
     27 C          -2.9518   -0.1797    1.4655 C.ar    1  UNL1       -0.0339
     28 C          -4.1443   -0.3006    2.1737 C.ar    1  UNL1        0.0289
     29 C          -5.4009   -0.3022    1.4949 C.1     1  UNL1       -0.0592
     30 C          -6.4713   -0.3102    0.8935 C.1     1  UNL1       -0.0395
     31 C          -7.7351   -0.3114    0.2090 C.ar    1  UNL1        0.1356
     32 C          -8.4120   -1.4263   -0.2520 C.ar    1  UNL1        0.0639
     33 N          -9.5591   -1.0113   -0.8406 N.ar    1  UNL1       -0.2334
     34 C          -9.6203    0.3421   -0.7602 C.ar    1  UNL1        0.1554
     35 C         -10.5742    1.2346   -1.2047 C.ar    1  UNL1       -0.0159
     36 C         -10.3834    2.5830   -0.9886 C.ar    1  UNL1       -0.0384
     37 C          -9.2297    2.9554   -0.3296 C.ar    1  UNL1        0.0485
     38 N          -8.3367    2.0354    0.0792 N.ar    1  UNL1       -0.1723
     39 N          -8.5077    0.7463   -0.1218 N.ar    1  UNL1       -0.2049
     40 H          -5.9395    0.3680    4.3045 H       1  UNL1        0.0278
     41 H          -5.0790   -0.7790    5.4017 H       1  UNL1        0.0278
     42 H          -5.9222   -1.3780    3.9340 H       1  UNL1        0.0278
     43 H          -2.7853   -0.4949    5.2900 H       1  UNL1        0.0621
     44 H          -0.7417   -0.2792    3.9845 H       1  UNL1        0.0625
     45 H          -1.2907    0.0075   -0.6213 H       1  UNL1        0.1551
     46 H           0.9130    2.2919   -0.6914 H       1  UNL1        0.0636
     47 H           3.1769    2.3789   -1.7445 H       1  UNL1        0.0621
     48 H           4.7674    1.2955   -3.0956 H       1  UNL1        0.0476
     49 H           5.0421   -0.4406   -3.0128 H       1  UNL1        0.0476
     50 H           4.9739   -0.4948    0.0891 H       1  UNL1        0.0439
     51 H           5.9469    0.8584    0.6128 H       1  UNL1        0.0439
     52 H           6.8409   -1.9430   -0.1162 H       1  UNL1        0.0439
     53 H           7.3823   -0.7865    1.0953 H       1  UNL1        0.0439
     54 H           8.8425    1.2850    0.0399 H       1  UNL1        0.0391
     55 H          10.1332    0.2338   -0.6866 H       1  UNL1        0.0391
     56 H           9.3842   -0.2189    0.9161 H       1  UNL1        0.0391
     57 H           8.8442    0.1159   -2.6346 H       1  UNL1        0.0439
     58 H           7.4152   -1.0034   -2.6233 H       1  UNL1        0.0439
     59 H           6.7673    1.4406   -3.0549 H       1  UNL1        0.0439
     60 H           7.5460    1.8239   -1.4268 H       1  UNL1        0.0439
     61 H           1.0783   -1.9472   -0.7681 H       1  UNL1        0.0642
     62 H          -3.0314   -0.0936    0.4029 H       1  UNL1        0.0637
     63 H          -8.1004   -2.4646   -0.1688 H       1  UNL1        0.0859
     64 H         -11.4788    0.9456   -1.7212 H       1  UNL1        0.0655
     65 H         -11.1319    3.3070   -1.3366 H       1  UNL1        0.0634
     66 H          -9.0814    4.0253   -0.1587 H       1  UNL1        0.0847
@<TRIPOS>BOND
     1     1     2    1
     2     2     3   ar
     3     3     4   ar
     4     4     5   ar
     5     5     6    1
     6     6     7    2
     7     6     8   am
     8     8     9    1
     9     9    10   ar
    10    10    11   ar
    11    11    12   ar
    12    12    13    1
    13    13    14    1
    14    14    15    1
    15    15    16    1
    16    16    17    1
    17    17    18    1
    18    17    19    1
    19    19    20    1
    20    12    21   ar
    21    21    22    1
    22    22    23    1
    23    22    24    1
    24    22    25    1
    25    21    26   ar
    26     5    27   ar
    27    27    28   ar
    28    28    29    1
    29    29    30    3
    30    30    31    1
    31    31    32   ar
    32    32    33   ar
    33    33    34   ar
    34    34    35   ar
    35    35    36   ar
    36    36    37   ar
    37    37    38   ar
    38    38    39   ar
    39    28     2   ar
    40    39    31   ar
    41    26     9   ar
    42    39    34   ar
    43    20    14    1
    44     1    40    1
    45     1    41    1
    46     1    42    1
    47     3    43    1
    48     4    44    1
    49     8    45    1
    50    10    46    1
    51    11    47    1
    52    13    48    1
    53    13    49    1
    54    15    50    1
    55    15    51    1
    56    16    52    1
    57    16    53    1
    58    18    54    1
    59    18    55    1
    60    18    56    1
    61    19    57    1
    62    19    58    1
    63    20    59    1
    64    20    60    1
    65    26    61    1
    66    27    62    1
    67    32    63    1
    68    35    64    1
    69    36    65    1
    70    37    66    1
