
     RDKit          3D

 66 70  0  0  0  0  0  0  0  0999 V2000
   -5.2981   -0.5446    4.3589 C   0  0  0  0  0  0  0  0  0  0  0  0
   -4.0572   -0.4129    3.5441 C   0  0  0  0  0  0  0  0  0  0  0  0
   -2.8533   -0.4083    4.2159 C   0  0  0  0  0  0  0  0  0  0  0  0
   -1.6970   -0.2848    3.4597 C   0  0  0  0  0  0  0  0  0  0  0  0
   -1.7351   -0.1712    2.0971 C   0  0  0  0  0  0  0  0  0  0  0  0
   -0.4899   -0.0398    1.3589 C   0  0  0  0  0  0  0  0  0  0  0  0
    0.6291    0.0076    1.9833 O   0  0  0  0  0  0  0  0  0  0  0  0
   -0.4112    0.0435   -0.0609 N   0  0  0  0  0  0  0  0  0  0  0  0
    0.8750    0.1733   -0.6727 C   0  0  0  0  0  0  0  0  0  0  0  0
    1.4537    1.3911   -0.9423 C   0  0  0  0  0  0  0  0  0  0  0  0
    2.7000    1.4249   -1.5213 C   0  0  0  0  0  0  0  0  0  0  0  0
    3.4246    0.2772   -1.8565 C   0  0  0  0  0  0  0  0  0  0  0  0
    4.7871    0.4283   -2.3591 C   0  0  0  0  0  0  0  0  0  0  0  0
    5.7911    0.6700   -1.4105 N   0  0  0  0  0  0  0  0  0  0  0  0
    5.8999    0.0297   -0.1932 C   0  0  0  0  0  0  0  0  0  0  0  0
    7.0699   -0.8724    0.0251 C   0  0  0  0  0  0  0  0  0  0  0  0
    8.2211   -0.5514   -0.7735 N   0  0  0  0  0  0  0  0  0  0  0  0
    9.1881    0.2524   -0.0923 C   0  0  0  0  0  0  0  0  0  0  0  0
    7.9126   -0.1570   -2.1073 C   0  0  0  0  0  0  0  0  0  0  0  0
    7.0316    1.0705   -2.0388 C   0  0  0  0  0  0  0  0  0  0  0  0
    2.8256   -0.9319   -1.5818 C   0  0  0  0  0  0  0  0  0  0  0  0
    3.4154   -2.2049   -1.9819 C   0  0  0  0  0  0  0  0  0  0  0  0
    4.6373   -2.5024   -1.4921 F   0  0  0  0  0  0  0  0  0  0  0  0
    3.4130   -2.2379   -3.3938 F   0  0  0  0  0  0  0  0  0  0  0  0
    2.5690   -3.2476   -1.6042 F   0  0  0  0  0  0  0  0  0  0  0  0
    1.5521   -0.9782   -0.9885 C   0  0  0  0  0  0  0  0  0  0  0  0
   -2.9518   -0.1797    1.4655 C   0  0  0  0  0  0  0  0  0  0  0  0
   -4.1443   -0.3006    2.1737 C   0  0  0  0  0  0  0  0  0  0  0  0
   -5.4009   -0.3022    1.4949 C   0  0  0  0  0  0  0  0  0  0  0  0
   -6.4713   -0.3102    0.8935 C   0  0  0  0  0  0  0  0  0  0  0  0
   -7.7351   -0.3114    0.2090 C   0  0  0  0  0  0  0  0  0  0  0  0
   -8.4120   -1.4263   -0.2520 C   0  0  0  0  0  0  0  0  0  0  0  0
   -9.5591   -1.0113   -0.8406 N   0  0  0  0  0  0  0  0  0  0  0  0
   -9.6203    0.3421   -0.7602 C   0  0  0  0  0  0  0  0  0  0  0  0
  -10.5742    1.2346   -1.2047 C   0  0  0  0  0  0  0  0  0  0  0  0
  -10.3834    2.5830   -0.9886 C   0  0  0  0  0  0  0  0  0  0  0  0
   -9.2297    2.9554   -0.3296 C   0  0  0  0  0  0  0  0  0  0  0  0
   -8.3367    2.0354    0.0792 N   0  0  0  0  0  0  0  0  0  0  0  0
   -8.5077    0.7463   -0.1218 N   0  0  0  0  0  0  0  0  0  0  0  0
   -5.9395    0.3680    4.3045 H   0  0  0  0  0  0  0  0  0  0  0  0
   -5.0790   -0.7790    5.4017 H   0  0  0  0  0  0  0  0  0  0  0  0
   -5.9222   -1.3780    3.9340 H   0  0  0  0  0  0  0  0  0  0  0  0
   -2.7853   -0.4949    5.2900 H   0  0  0  0  0  0  0  0  0  0  0  0
   -0.7417   -0.2792    3.9845 H   0  0  0  0  0  0  0  0  0  0  0  0
   -1.2907    0.0075   -0.6213 H   0  0  0  0  0  0  0  0  0  0  0  0
    0.9130    2.2919   -0.6914 H   0  0  0  0  0  0  0  0  0  0  0  0
    3.1769    2.3789   -1.7445 H   0  0  0  0  0  0  0  0  0  0  0  0
    4.7674    1.2955   -3.0956 H   0  0  0  0  0  0  0  0  0  0  0  0
    5.0421   -0.4406   -3.0128 H   0  0  0  0  0  0  0  0  0  0  0  0
    4.9739   -0.4948    0.0891 H   0  0  0  0  0  0  0  0  0  0  0  0
    5.9469    0.8584    0.6128 H   0  0  0  0  0  0  0  0  0  0  0  0
    6.8409   -1.9430   -0.1162 H   0  0  0  0  0  0  0  0  0  0  0  0
    7.3823   -0.7865    1.0953 H   0  0  0  0  0  0  0  0  0  0  0  0
    8.8425    1.2850    0.0399 H   0  0  0  0  0  0  0  0  0  0  0  0
   10.1332    0.2338   -0.6866 H   0  0  0  0  0  0  0  0  0  0  0  0
    9.3842   -0.2189    0.9161 H   0  0  0  0  0  0  0  0  0  0  0  0
    8.8442    0.1159   -2.6346 H   0  0  0  0  0  0  0  0  0  0  0  0
    7.4152   -1.0034   -2.6233 H   0  0  0  0  0  0  0  0  0  0  0  0
    6.7673    1.4406   -3.0549 H   0  0  0  0  0  0  0  0  0  0  0  0
    7.5460    1.8239   -1.4268 H   0  0  0  0  0  0  0  0  0  0  0  0
    1.0783   -1.9472   -0.7681 H   0  0  0  0  0  0  0  0  0  0  0  0
   -3.0314   -0.0936    0.4029 H   0  0  0  0  0  0  0  0  0  0  0  0
   -8.1004   -2.4646   -0.1688 H   0  0  0  0  0  0  0  0  0  0  0  0
  -11.4788    0.9456   -1.7212 H   0  0  0  0  0  0  0  0  0  0  0  0
  -11.1319    3.3070   -1.3366 H   0  0  0  0  0  0  0  0  0  0  0  0
   -9.0814    4.0253   -0.1587 H   0  0  0  0  0  0  0  0  0  0  0  0
  1  2  1  0
  2  3  2  0
  3  4  1  0
  4  5  2  0
  5  6  1  0
  6  7  2  0
  6  8  1  0
  8  9  1  0
  9 10  2  0
 10 11  1  0
 11 12  2  0
 12 13  1  0
 13 14  1  0
 14 15  1  0
 15 16  1  0
 16 17  1  0
 17 18  1  0
 17 19  1  0
 19 20  1  0
 12 21  1  0
 21 22  1  0
 22 23  1  0
 22 24  1  0
 22 25  1  0
 21 26  2  0
  5 27  1  0
 27 28  2  0
 28 29  1  0
 29 30  3  0
 30 31  1  0
 31 32  2  0
 32 33  1  0
 33 34  2  0
 34 35  1  0
 35 36  2  0
 36 37  1  0
 37 38  2  0
 38 39  1  0
 28  2  1  0
 39 31  1  0
 26  9  1  0
 39 34  1  0
 20 14  1  0
  1 40  1  0
  1 41  1  0
  1 42  1  0
  3 43  1  0
  4 44  1  0
  8 45  1  0
 10 46  1  0
 11 47  1  0
 13 48  1  0
 13 49  1  0
 15 50  1  0
 15 51  1  0
 16 52  1  0
 16 53  1  0
 18 54  1  0
 18 55  1  0
 18 56  1  0
 19 57  1  0
 19 58  1  0
 20 59  1  0
 20 60  1  0
 26 61  1  0
 27 62  1  0
 32 63  1  0
 35 64  1  0
 36 65  1  0
 37 66  1  0
M  END
$$$$
