@<TRIPOS>MOLECULE
*****
 70 75 0 0 0
SMALL
GASTEIGER

@<TRIPOS>ATOM
      1 C          -2.0789    7.6268    1.3787 C.3     1  UNL1        0.0804
      2 O          -1.4588    6.3664    1.5220 O.3     1  UNL1       -0.4795
      3 C          -1.4714    5.4891    0.4628 C.ar    1  UNL1        0.2191
      4 C          -0.8753    4.2303    0.5461 C.ar    1  UNL1        0.0404
      5 C          -0.8857    3.3487   -0.5121 C.ar    1  UNL1        0.1364
      6 N          -0.2821    2.0848   -0.4217 N.am    1  UNL1       -0.2240
      7 C           1.0986    1.8250   -0.7657 C.2     1  UNL1        0.3219
      8 O           1.7909    2.5282   -1.5368 O.2     1  UNL1       -0.2512
      9 N           1.4572    0.6400   -0.0527 N.am    1  UNL1       -0.1920
     10 C           2.7248   -0.0297   -0.0621 C.ar    1  UNL1        0.0455
     11 C           3.7792    0.4861   -0.7833 C.ar    1  UNL1       -0.0392
     12 C           5.0238   -0.1630   -0.8132 C.ar    1  UNL1       -0.0518
     13 C           5.2180   -1.3284   -0.1229 C.ar    1  UNL1       -0.0112
     14 C           6.4685   -2.0376   -0.1230 C.ar    1  UNL1        0.0201
     15 C           6.8910   -3.1628    0.4614 C.ar    1  UNL1       -0.0461
     16 C           8.1436   -3.6024    0.2806 C.ar    1  UNL1       -0.0400
     17 C           8.9659   -2.8543   -0.5230 C.ar    1  UNL1        0.0966
     18 C          10.3694   -3.0610   -0.9145 C.2     1  UNL1        0.3435
     19 O          10.9564   -2.2471   -1.6723 O.2     1  UNL1       -0.2445
     20 O          10.9951   -4.1736   -0.4164 O.3     1  UNL1       -0.4768
     21 S           7.9472   -1.5205   -1.0208 S.2     1  UNL1       -0.0818
     22 C           4.1588   -1.8225    0.5863 C.ar    1  UNL1       -0.0518
     23 C           2.9232   -1.1979    0.6287 C.ar    1  UNL1       -0.0392
     24 C           0.3233    0.1947    0.7057 C.2     1  UNL1        0.2516
     25 O           0.2423   -0.5401    1.7131 O.2     1  UNL1       -0.2724
     26 C          -0.8589    0.8307    0.0072 C.3     1  UNL1        0.1240
     27 C          -1.9986    0.9593    0.9581 C.3     1  UNL1       -0.0095
     28 C          -2.8131   -0.3230    0.8555 C.3     1  UNL1        0.0017
     29 N          -3.5900   -0.3738   -0.3460 N.3     1  UNL1       -0.2965
     30 C          -3.8514   -1.7405   -0.7689 C.3     1  UNL1        0.0415
     31 C          -4.5898   -2.5296    0.2356 C.ar    1  UNL1        0.0581
     32 N          -3.9748   -3.4665    1.0086 N.ar    1  UNL1       -0.2583
     33 C          -4.6325   -4.1947    1.9264 C.ar    1  UNL1        0.0279
     34 C          -5.9689   -4.0171    2.1204 C.ar    1  UNL1       -0.0433
     35 C          -6.6503   -3.0841    1.3699 C.ar    1  UNL1       -0.0557
     36 C          -5.9428   -2.3518    0.4340 C.ar    1  UNL1       -0.0279
     37 C          -6.6857   -1.3464   -0.3711 C.3     1  UNL1       -0.0380
     38 C          -2.7844    0.2261   -1.4011 C.3     1  UNL1        0.0017
     39 C          -1.3045   -0.0130   -1.1624 C.3     1  UNL1       -0.0095
     40 N          -1.5042    3.7666   -1.6373 N.ar    1  UNL1       -0.2200
     41 C          -2.0818    4.9780   -1.7277 C.ar    1  UNL1        0.1219
     42 N          -2.0570    5.8200   -0.6780 N.ar    1  UNL1       -0.2013
     43 H          -2.8238    7.7242    2.1902 H       1  UNL1        0.0660
     44 H          -1.3423    8.4558    1.4298 H       1  UNL1        0.0660
     45 H          -2.5884    7.7397    0.3941 H       1  UNL1        0.0660
     46 H          -0.3984    3.9692    1.4856 H       1  UNL1        0.0705
     47 H           3.6937    1.4099   -1.3539 H       1  UNL1        0.0636
     48 H           5.8282    0.2784   -1.3948 H       1  UNL1        0.0624
     49 H           6.1776   -3.7448    1.1149 H       1  UNL1        0.0629
     50 H           8.5780   -4.5344    0.7326 H       1  UNL1        0.0631
     51 H          12.0197   -4.2191   -0.5213 H       1  UNL1        0.2954
     52 H           4.2765   -2.7502    1.1500 H       1  UNL1        0.0624
     53 H           2.1224   -1.6231    1.1941 H       1  UNL1        0.0636
     54 H          -1.6809    1.0713    2.0075 H       1  UNL1        0.0303
     55 H          -2.6617    1.8196    0.7318 H       1  UNL1        0.0303
     56 H          -3.4755   -0.4002    1.7544 H       1  UNL1        0.0427
     57 H          -2.1469   -1.1940    0.8817 H       1  UNL1        0.0427
     58 H          -4.2985   -1.7879   -1.7711 H       1  UNL1        0.0491
     59 H          -2.8357   -2.2227   -0.8780 H       1  UNL1        0.0491
     60 H          -4.1020   -4.9349    2.5247 H       1  UNL1        0.0829
     61 H          -6.4845   -4.6177    2.8697 H       1  UNL1        0.0633
     62 H          -7.7183   -2.9321    1.5151 H       1  UNL1        0.0621
     63 H          -6.8202   -0.4118    0.2143 H       1  UNL1        0.0278
     64 H          -6.1645   -1.1063   -1.3023 H       1  UNL1        0.0278
     65 H          -7.6677   -1.8001   -0.6317 H       1  UNL1        0.0278
     66 H          -3.0776   -0.2208   -2.3517 H       1  UNL1        0.0427
     67 H          -3.0326    1.3032   -1.4146 H       1  UNL1        0.0427
     68 H          -1.1584   -1.0706   -0.9408 H       1  UNL1        0.0303
     69 H          -0.7699    0.2455   -2.1031 H       1  UNL1        0.0303
     70 H          -2.5844    5.3348   -2.6217 H       1  UNL1        0.1049
@<TRIPOS>BOND
     1     1     2    1
     2     2     3    1
     3     3     4   ar
     4     4     5   ar
     5     5     6    1
     6     6     7   am
     7     7     8    2
     8     7     9   am
     9     9    10    1
    10    10    11   ar
    11    11    12   ar
    12    12    13   ar
    13    13    14    1
    14    14    15   ar
    15    15    16   ar
    16    16    17   ar
    17    17    18    1
    18    18    19    2
    19    18    20    1
    20    17    21   ar
    21    13    22   ar
    22    22    23   ar
    23     9    24   am
    24    24    25    2
    25    24    26    1
    26    26    27    1
    27    27    28    1
    28    28    29    1
    29    29    30    1
    30    30    31    1
    31    31    32   ar
    32    32    33   ar
    33    33    34   ar
    34    34    35   ar
    35    35    36   ar
    36    36    37    1
    37    29    38    1
    38    38    39    1
    39     5    40   ar
    40    40    41   ar
    41    41    42   ar
    42    42     3   ar
    43    26     6    1
    44    36    31   ar
    45    23    10   ar
    46    39    26    1
    47    21    14   ar
    48     1    43    1
    49     1    44    1
    50     1    45    1
    51     4    46    1
    52    11    47    1
    53    12    48    1
    54    15    49    1
    55    16    50    1
    56    20    51    1
    57    22    52    1
    58    23    53    1
    59    27    54    1
    60    27    55    1
    61    28    56    1
    62    28    57    1
    63    30    58    1
    64    30    59    1
    65    33    60    1
    66    34    61    1
    67    35    62    1
    68    37    63    1
    69    37    64    1
    70    37    65    1
    71    38    66    1
    72    38    67    1
    73    39    68    1
    74    39    69    1
    75    41    70    1
