
     RDKit          3D

 52 55  0  0  0  0  0  0  0  0999 V2000
    0.6383    2.5382   -1.5457 O   0  0  0  0  0  0  0  0  0  0  0  0
    0.0997    2.2852   -0.4368 C   0  0  0  0  0  0  0  0  0  0  0  0
    0.8380    2.6369    0.7198 N   0  0  0  0  0  0  0  0  0  0  0  0
    2.1408    3.2532    0.6224 C   0  0  0  0  0  0  0  0  0  0  0  0
    2.2862    4.6176    0.5710 C   0  0  0  0  0  0  0  0  0  0  0  0
    3.4960    5.2678    0.4786 C   0  0  0  0  0  0  0  0  0  0  0  0
    4.6205    4.4797    0.4364 C   0  0  0  0  0  0  0  0  0  0  0  0
    6.1906    5.2714    0.3183 Cl  0  0  0  0  0  0  0  0  0  0  0  0
    4.5248    3.0869    0.4858 C   0  0  0  0  0  0  0  0  0  0  0  0
    3.2833    2.4738    0.5789 C   0  0  0  0  0  0  0  0  0  0  0  0
    3.1787    1.0261    0.6303 C   0  0  0  0  0  0  0  0  0  0  0  0
    2.0376    0.5132    0.7135 O   0  0  0  0  0  0  0  0  0  0  0  0
    4.2989    0.1603    0.5915 N   0  0  0  0  0  0  0  0  0  0  0  0
    4.1721   -1.2570    0.6432 C   0  0  0  0  0  0  0  0  0  0  0  0
    5.2692   -2.0812    0.6048 C   0  0  0  0  0  0  0  0  0  0  0  0
    5.1427   -3.4741    0.6555 C   0  0  0  0  0  0  0  0  0  0  0  0
    3.8864   -4.0095    0.7455 C   0  0  0  0  0  0  0  0  0  0  0  0
    3.6429   -5.7327    0.8131 Cl  0  0  0  0  0  0  0  0  0  0  0  0
    2.8027   -3.1712    0.7826 C   0  0  0  0  0  0  0  0  0  0  0  0
    2.9553   -1.8463    0.7326 N   0  0  0  0  0  0  0  0  0  0  0  0
   -1.2181    1.6613   -0.4271 C   0  0  0  0  0  0  0  0  0  0  0  0
   -1.8666    1.3563   -1.6181 C   0  0  0  0  0  0  0  0  0  0  0  0
   -3.1129    0.7658   -1.6302 C   0  0  0  0  0  0  0  0  0  0  0  0
   -3.7788    0.4481   -0.4651 C   0  0  0  0  0  0  0  0  0  0  0  0
   -5.1230   -0.1882   -0.4673 C   0  0  0  0  0  0  0  0  0  0  0  0
   -5.0383   -1.6287   -0.4716 N   0  0  0  0  0  0  0  0  0  0  0  0
   -4.4092   -2.4525   -1.4805 C   0  0  0  0  0  0  0  0  0  0  0  0
   -4.7737   -3.8802   -1.1417 C   0  0  0  0  0  0  0  0  0  0  0  0
   -5.0923   -3.8180    0.2553 N   0  0  0  0  0  0  0  0  0  0  0  0
   -5.5584   -2.5034    0.5162 C   0  0  0  0  0  0  0  0  0  0  0  0
   -6.5422   -2.0848    1.7675 S   0  0  0  0  0  0  0  0  0  0  0  0
   -3.1498    0.7438    0.7246 C   0  0  0  0  0  0  0  0  0  0  0  0
   -1.8845    1.3433    0.7360 C   0  0  0  0  0  0  0  0  0  0  0  0
    0.4096    2.4361    1.6476 H   0  0  0  0  0  0  0  0  0  0  0  0
    1.4012    5.2390    0.6041 H   0  0  0  0  0  0  0  0  0  0  0  0
    3.5324    6.3598    0.4422 H   0  0  0  0  0  0  0  0  0  0  0  0
    5.4485    2.5516    0.4476 H   0  0  0  0  0  0  0  0  0  0  0  0
    5.2737    0.5503    0.5221 H   0  0  0  0  0  0  0  0  0  0  0  0
    6.2708   -1.6987    0.5345 H   0  0  0  0  0  0  0  0  0  0  0  0
    6.0379   -4.1003    0.6228 H   0  0  0  0  0  0  0  0  0  0  0  0
    1.8189   -3.5963    0.8533 H   0  0  0  0  0  0  0  0  0  0  0  0
   -1.3335    1.6106   -2.5352 H   0  0  0  0  0  0  0  0  0  0  0  0
   -3.6083    0.5329   -2.5678 H   0  0  0  0  0  0  0  0  0  0  0  0
   -5.7600    0.1941    0.3583 H   0  0  0  0  0  0  0  0  0  0  0  0
   -5.6819    0.0945   -1.4061 H   0  0  0  0  0  0  0  0  0  0  0  0
   -3.2983   -2.3713   -1.4550 H   0  0  0  0  0  0  0  0  0  0  0  0
   -4.8154   -2.2419   -2.4921 H   0  0  0  0  0  0  0  0  0  0  0  0
   -3.9452   -4.5831   -1.3652 H   0  0  0  0  0  0  0  0  0  0  0  0
   -5.6614   -4.2296   -1.7064 H   0  0  0  0  0  0  0  0  0  0  0  0
   -4.9837   -4.6189    0.9164 H   0  0  0  0  0  0  0  0  0  0  0  0
   -3.6501    0.5049    1.6659 H   0  0  0  0  0  0  0  0  0  0  0  0
   -1.4125    1.5651    1.6928 H   0  0  0  0  0  0  0  0  0  0  0  0
  1  2  2  0
  2  3  1  0
  3  4  1  0
  4  5  2  0
  5  6  1  0
  6  7  2  0
  7  8  1  0
  7  9  1  0
  9 10  2  0
 10 11  1  0
 11 12  2  0
 11 13  1  0
 13 14  1  0
 14 15  2  0
 15 16  1  0
 16 17  2  0
 17 18  1  0
 17 19  1  0
 19 20  2  0
  2 21  1  0
 21 22  2  0
 22 23  1  0
 23 24  2  0
 24 25  1  0
 25 26  1  0
 26 27  1  0
 27 28  1  0
 28 29  1  0
 29 30  1  0
 30 31  2  0
 24 32  1  0
 32 33  2  0
 10  4  1  0
 20 14  1  0
 33 21  1  0
 30 26  1  0
  3 34  1  0
  5 35  1  0
  6 36  1  0
  9 37  1  0
 13 38  1  0
 15 39  1  0
 16 40  1  0
 19 41  1  0
 22 42  1  0
 23 43  1  0
 25 44  1  0
 25 45  1  0
 27 46  1  0
 27 47  1  0
 28 48  1  0
 28 49  1  0
 29 50  1  0
 32 51  1  0
 33 52  1  0
M  END
$$$$
