@<TRIPOS>MOLECULE
*****
 52 55 0 0 0
SMALL
GASTEIGER

@<TRIPOS>ATOM
      1 O           0.6383    2.5382   -1.5457 O.2     1  UNL1       -0.2699
      2 C           0.0997    2.2852   -0.4368 C.2     1  UNL1        0.2483
      3 N           0.8380    2.6369    0.7198 N.am    1  UNL1       -0.2808
      4 C           2.1408    3.2532    0.6224 C.ar    1  UNL1        0.0459
      5 C           2.2862    4.6176    0.5710 C.ar    1  UNL1       -0.0384
      6 C           3.4960    5.2678    0.4786 C.ar    1  UNL1       -0.0416
      7 C           4.6205    4.4797    0.4364 C.ar    1  UNL1        0.0418
      8 CL          6.1906    5.2714    0.3183 Cl      1  UNL1       -0.0835
      9 C           4.5248    3.0869    0.4858 C.ar    1  UNL1       -0.0295
     10 C           3.2833    2.4738    0.5789 C.ar    1  UNL1        0.0596
     11 C           3.1787    1.0261    0.6303 C.2     1  UNL1        0.2511
     12 O           2.0376    0.5132    0.7135 O.2     1  UNL1       -0.2697
     13 N           4.2989    0.1603    0.5915 N.am    1  UNL1       -0.2663
     14 C           4.1721   -1.2570    0.6432 C.ar    1  UNL1        0.1252
     15 C           5.2692   -2.0812    0.6048 C.ar    1  UNL1       -0.0201
     16 C           5.1427   -3.4741    0.6555 C.ar    1  UNL1       -0.0387
     17 C           3.8864   -4.0095    0.7455 C.ar    1  UNL1        0.0592
     18 CL          3.6429   -5.7327    0.8131 Cl      1  UNL1       -0.0820
     19 C           2.8027   -3.1712    0.7826 C.ar    1  UNL1        0.0480
     20 N           2.9553   -1.8463    0.7326 N.ar    1  UNL1       -0.2387
     21 C          -1.2181    1.6613   -0.4271 C.ar    1  UNL1        0.0370
     22 C          -1.8666    1.3563   -1.6181 C.ar    1  UNL1       -0.0493
     23 C          -3.1129    0.7658   -1.6302 C.ar    1  UNL1       -0.0564
     24 C          -3.7788    0.4481   -0.4651 C.ar    1  UNL1       -0.0301
     25 C          -5.1230   -0.1882   -0.4673 C.3     1  UNL1        0.0388
     26 N          -5.0383   -1.6287   -0.4716 N.am    1  UNL1       -0.3069
     27 C          -4.4092   -2.4525   -1.4805 C.3     1  UNL1        0.0296
     28 C          -4.7737   -3.8802   -1.1417 C.3     1  UNL1        0.0265
     29 N          -5.0923   -3.8180    0.2553 N.am    1  UNL1       -0.3249
     30 C          -5.5584   -2.5034    0.5162 C.2     1  UNL1        0.1332
     31 S          -6.5422   -2.0848    1.7675 S.2     1  UNL1       -0.0187
     32 C          -3.1498    0.7438    0.7246 C.ar    1  UNL1       -0.0564
     33 C          -1.8845    1.3433    0.7360 C.ar    1  UNL1       -0.0493
     34 H           0.4096    2.4361    1.6476 H       1  UNL1        0.1552
     35 H           1.4012    5.2390    0.6041 H       1  UNL1        0.0637
     36 H           3.5324    6.3598    0.4422 H       1  UNL1        0.0633
     37 H           5.4485    2.5516    0.4476 H       1  UNL1        0.0640
     38 H           5.2737    0.5503    0.5221 H       1  UNL1        0.1566
     39 H           6.2708   -1.6987    0.5345 H       1  UNL1        0.0652
     40 H           6.0379   -4.1003    0.6228 H       1  UNL1        0.0634
     41 H           1.8189   -3.5963    0.8533 H       1  UNL1        0.0845
     42 H          -1.3335    1.6106   -2.5352 H       1  UNL1        0.0625
     43 H          -3.6083    0.5329   -2.5678 H       1  UNL1        0.0621
     44 H          -5.7600    0.1941    0.3583 H       1  UNL1        0.0513
     45 H          -5.6819    0.0945   -1.4061 H       1  UNL1        0.0513
     46 H          -3.2983   -2.3713   -1.4550 H       1  UNL1        0.0480
     47 H          -4.8154   -2.2419   -2.4921 H       1  UNL1        0.0480
     48 H          -3.9452   -4.5831   -1.3652 H       1  UNL1        0.0477
     49 H          -5.6614   -4.2296   -1.7064 H       1  UNL1        0.0477
     50 H          -4.9837   -4.6189    0.9164 H       1  UNL1        0.1478
     51 H          -3.6501    0.5049    1.6659 H       1  UNL1        0.0621
     52 H          -1.4125    1.5651    1.6928 H       1  UNL1        0.0625
@<TRIPOS>BOND
     1     1     2    2
     2     2     3   am
     3     3     4    1
     4     4     5   ar
     5     5     6   ar
     6     6     7   ar
     7     7     8    1
     8     7     9   ar
     9     9    10   ar
    10    10    11    1
    11    11    12    2
    12    11    13   am
    13    13    14    1
    14    14    15   ar
    15    15    16   ar
    16    16    17   ar
    17    17    18    1
    18    17    19   ar
    19    19    20   ar
    20     2    21    1
    21    21    22   ar
    22    22    23   ar
    23    23    24   ar
    24    24    25    1
    25    25    26    1
    26    26    27    1
    27    27    28    1
    28    28    29    1
    29    29    30    1
    30    30    31    2
    31    24    32   ar
    32    32    33   ar
    33    10     4   ar
    34    20    14   ar
    35    33    21   ar
    36    30    26    1
    37     3    34    1
    38     5    35    1
    39     6    36    1
    40     9    37    1
    41    13    38    1
    42    15    39    1
    43    16    40    1
    44    19    41    1
    45    22    42    1
    46    23    43    1
    47    25    44    1
    48    25    45    1
    49    27    46    1
    50    27    47    1
    51    28    48    1
    52    28    49    1
    53    29    50    1
    54    32    51    1
    55    33    52    1
