
     RDKit          3D

 43 45  0  0  0  0  0  0  0  0999 V2000
   -1.5452    2.3333   -0.5927 C   0  0  0  0  0  0  0  0  0  0  0  0
   -1.8189    0.9093   -0.2069 C   0  0  0  0  0  0  0  0  0  0  0  0
   -2.7578    0.4790    0.6867 C   0  0  0  0  0  0  0  0  0  0  0  0
   -3.6824    1.3301    1.4356 C   0  0  0  0  0  0  0  0  0  0  0  0
   -4.8132    1.8312    0.6428 C   0  0  0  0  0  0  0  0  0  0  0  0
   -4.9230    1.5155   -0.5652 O   0  0  0  0  0  0  0  0  0  0  0  0
   -5.7754    2.6505    1.1873 O   0  0  0  0  0  0  0  0  0  0  0  0
   -2.6733   -0.9027    0.7477 C   0  0  0  0  0  0  0  0  0  0  0  0
   -3.3934   -1.8101    1.4902 C   0  0  0  0  0  0  0  0  0  0  0  0
   -3.1025   -3.1479    1.3595 C   0  0  0  0  0  0  0  0  0  0  0  0
   -2.0926   -3.5025    0.4795 C   0  0  0  0  0  0  0  0  0  0  0  0
   -1.4059   -2.5912   -0.2332 N   0  0  0  0  0  0  0  0  0  0  0  0
   -1.6755   -1.2622   -0.1209 C   0  0  0  0  0  0  0  0  0  0  0  0
   -1.1557   -0.1662   -0.7009 N   0  0  0  0  0  0  0  0  0  0  0  0
   -0.0826   -0.1498   -1.6760 C   0  0  0  0  0  0  0  0  0  0  0  0
    1.2426   -0.0449   -1.0526 C   0  0  0  0  0  0  0  0  0  0  0  0
    1.8934    1.1333   -0.7712 C   0  0  0  0  0  0  0  0  0  0  0  0
    3.1371    1.1068   -0.1838 C   0  0  0  0  0  0  0  0  0  0  0  0
    3.7737   -0.0682    0.1421 C   0  0  0  0  0  0  0  0  0  0  0  0
    5.3587   -0.0931    0.8920 S   0  0  0  0  0  6  0  0  0  0  0  0
    6.6421   -0.1045   -0.3375 C   0  0  0  0  0  0  0  0  0  0  0  0
    5.5058    1.0789    1.7860 O   0  0  0  0  0  0  0  0  0  0  0  0
    5.4869   -1.3557    1.6903 O   0  0  0  0  0  0  0  0  0  0  0  0
    3.1373   -1.2559   -0.1323 C   0  0  0  0  0  0  0  0  0  0  0  0
    1.8938   -1.2124   -0.7199 C   0  0  0  0  0  0  0  0  0  0  0  0
   -2.5154    2.7941   -0.8495 H   0  0  0  0  0  0  0  0  0  0  0  0
   -1.1229    2.8970    0.2568 H   0  0  0  0  0  0  0  0  0  0  0  0
   -0.9177    2.3760   -1.5041 H   0  0  0  0  0  0  0  0  0  0  0  0
   -3.1152    2.1768    1.8673 H   0  0  0  0  0  0  0  0  0  0  0  0
   -4.0636    0.7480    2.3097 H   0  0  0  0  0  0  0  0  0  0  0  0
   -6.3275    3.2113    0.5510 H   0  0  0  0  0  0  0  0  0  0  0  0
   -4.1738   -1.5169    2.1683 H   0  0  0  0  0  0  0  0  0  0  0  0
   -3.6346   -3.9244    1.9184 H   0  0  0  0  0  0  0  0  0  0  0  0
   -1.8814   -4.5777    0.3950 H   0  0  0  0  0  0  0  0  0  0  0  0
   -0.1802    0.6955   -2.3972 H   0  0  0  0  0  0  0  0  0  0  0  0
   -0.1269   -1.0747   -2.2874 H   0  0  0  0  0  0  0  0  0  0  0  0
    1.4096    2.0581   -1.0198 H   0  0  0  0  0  0  0  0  0  0  0  0
    3.6870    2.0304    0.0554 H   0  0  0  0  0  0  0  0  0  0  0  0
    7.6151    0.1871    0.0956 H   0  0  0  0  0  0  0  0  0  0  0  0
    6.7357   -1.0739   -0.8521 H   0  0  0  0  0  0  0  0  0  0  0  0
    6.4001    0.6876   -1.0939 H   0  0  0  0  0  0  0  0  0  0  0  0
    3.6211   -2.2134    0.1171 H   0  0  0  0  0  0  0  0  0  0  0  0
    1.4163   -2.1817   -0.9240 H   0  0  0  0  0  0  0  0  0  0  0  0
  1  2  1  0
  2  3  2  0
  3  4  1  0
  4  5  1  0
  5  6  2  0
  5  7  1  0
  3  8  1  0
  8  9  2  0
  9 10  1  0
 10 11  2  0
 11 12  1  0
 12 13  2  0
 13 14  1  0
 14 15  1  0
 15 16  1  0
 16 17  2  0
 17 18  1  0
 18 19  2  0
 19 20  1  0
 20 21  1  0
 20 22  2  0
 20 23  2  0
 19 24  1  0
 24 25  2  0
 14  2  1  0
 25 16  1  0
 13  8  1  0
  1 26  1  0
  1 27  1  0
  1 28  1  0
  4 29  1  0
  4 30  1  0
  7 31  1  0
  9 32  1  0
 10 33  1  0
 11 34  1  0
 15 35  1  0
 15 36  1  0
 17 37  1  0
 18 38  1  0
 21 39  1  0
 21 40  1  0
 21 41  1  0
 24 42  1  0
 25 43  1  0
M  END
$$$$
