@<TRIPOS>MOLECULE
*****
 43 45 0 0 0
SMALL
GASTEIGER

@<TRIPOS>ATOM
      1 C          -1.5452    2.3333   -0.5927 C.3     1  UNL1       -0.0239
      2 C          -1.8189    0.9093   -0.2069 C.ar    1  UNL1        0.0222
      3 C          -2.7578    0.4790    0.6867 C.ar    1  UNL1       -0.0070
      4 C          -3.6824    1.3301    1.4356 C.3     1  UNL1        0.0721
      5 C          -4.8132    1.8312    0.6428 C.2     1  UNL1        0.3091
      6 O          -4.9230    1.5155   -0.5652 O.2     1  UNL1       -0.2507
      7 O          -5.7754    2.6505    1.1873 O.3     1  UNL1       -0.4804
      8 C          -2.6733   -0.9027    0.7477 C.ar    1  UNL1        0.0228
      9 C          -3.3934   -1.8101    1.4902 C.ar    1  UNL1       -0.0493
     10 C          -3.1025   -3.1479    1.3595 C.ar    1  UNL1       -0.0429
     11 C          -2.0926   -3.5025    0.4795 C.ar    1  UNL1        0.0299
     12 N          -1.4059   -2.5912   -0.2332 N.ar    1  UNL1       -0.2373
     13 C          -1.6755   -1.2622   -0.1209 C.ar    1  UNL1        0.1414
     14 N          -1.1557   -0.1662   -0.7009 N.ar    1  UNL1       -0.3247
     15 C          -0.0826   -0.1498   -1.6760 C.3     1  UNL1        0.0499
     16 C           1.2426   -0.0449   -1.0526 C.ar    1  UNL1       -0.0276
     17 C           1.8934    1.1333   -0.7712 C.ar    1  UNL1       -0.0551
     18 C           3.1371    1.1068   -0.1838 C.ar    1  UNL1       -0.0366
     19 C           3.7737   -0.0682    0.1421 C.ar    1  UNL1        0.0879
     20 S           5.3587   -0.0931    0.8920 S.O2    1  UNL1       -0.0059
     21 C           6.6421   -0.1045   -0.3375 C.3     1  UNL1        0.0596
     22 O           5.5058    1.0789    1.7860 O.2     1  UNL1       -0.1696
     23 O           5.4869   -1.3557    1.6903 O.2     1  UNL1       -0.1696
     24 C           3.1373   -1.2559   -0.1323 C.ar    1  UNL1       -0.0366
     25 C           1.8938   -1.2124   -0.7199 C.ar    1  UNL1       -0.0551
     26 H          -2.5154    2.7941   -0.8495 H       1  UNL1        0.0292
     27 H          -1.1229    2.8970    0.2568 H       1  UNL1        0.0292
     28 H          -0.9177    2.3760   -1.5041 H       1  UNL1        0.0292
     29 H          -3.1152    2.1768    1.8673 H       1  UNL1        0.0427
     30 H          -4.0636    0.7480    2.3097 H       1  UNL1        0.0427
     31 H          -6.3275    3.2113    0.5510 H       1  UNL1        0.2951
     32 H          -4.1738   -1.5169    2.1683 H       1  UNL1        0.0625
     33 H          -3.6346   -3.9244    1.9184 H       1  UNL1        0.0633
     34 H          -1.8814   -4.5777    0.3950 H       1  UNL1        0.0830
     35 H          -0.1802    0.6955   -2.3972 H       1  UNL1        0.0542
     36 H          -0.1269   -1.0747   -2.2874 H       1  UNL1        0.0542
     37 H           1.4096    2.0581   -1.0198 H       1  UNL1        0.0621
     38 H           3.6870    2.0304    0.0554 H       1  UNL1        0.0637
     39 H           7.6151    0.1871    0.0956 H       1  UNL1        0.0468
     40 H           6.7357   -1.0739   -0.8521 H       1  UNL1        0.0468
     41 H           6.4001    0.6876   -1.0939 H       1  UNL1        0.0468
     42 H           3.6211   -2.2134    0.1171 H       1  UNL1        0.0637
     43 H           1.4163   -2.1817   -0.9240 H       1  UNL1        0.0621
@<TRIPOS>BOND
     1     1     2    1
     2     2     3   ar
     3     3     4    1
     4     4     5    1
     5     5     6    2
     6     5     7    1
     7     3     8   ar
     8     8     9   ar
     9     9    10   ar
    10    10    11   ar
    11    11    12   ar
    12    12    13   ar
    13    13    14   ar
    14    14    15    1
    15    15    16    1
    16    16    17   ar
    17    17    18   ar
    18    18    19   ar
    19    19    20    1
    20    20    21    1
    21    20    22    2
    22    20    23    2
    23    19    24   ar
    24    24    25   ar
    25    14     2   ar
    26    25    16   ar
    27    13     8   ar
    28     1    26    1
    29     1    27    1
    30     1    28    1
    31     4    29    1
    32     4    30    1
    33     7    31    1
    34     9    32    1
    35    10    33    1
    36    11    34    1
    37    15    35    1
    38    15    36    1
    39    17    37    1
    40    18    38    1
    41    21    39    1
    42    21    40    1
    43    21    41    1
    44    24    42    1
    45    25    43    1
