@<TRIPOS>MOLECULE
*****
 47 49 0 0 0
SMALL
GASTEIGER

@<TRIPOS>ATOM
      1 C          -2.8826   -0.4504   -0.3242 C.3     1  UNL1        0.0397
      2 C          -3.1922   -0.9688   -1.6710 C.3     1  UNL1        0.0119
      3 N          -2.7788   -0.0871   -2.7449 N.3     1  UNL1       -0.3282
      4 C          -3.4987    0.8210    0.1199 C.3     1  UNL1       -0.0066
      5 C          -4.9676    0.8202    0.2061 C.ar    1  UNL1       -0.0272
      6 C          -6.0068    1.0214   -0.6676 C.ar    1  UNL1        0.0456
      7 CL         -5.5803    1.4853   -2.2695 Cl      1  UNL1       -0.0832
      8 C          -7.3288    0.9077   -0.3281 C.ar    1  UNL1       -0.0248
      9 C          -7.7366    0.5740    0.9548 C.ar    1  UNL1        0.0424
     10 CL         -9.4404    0.4538    1.2994 Cl      1  UNL1       -0.0835
     11 C          -6.7377    0.3527    1.9070 C.ar    1  UNL1       -0.0430
     12 C          -5.4272    0.4846    1.4915 C.ar    1  UNL1       -0.0558
     13 N          -1.4368   -0.4674   -0.1454 N.am    1  UNL1       -0.3065
     14 C          -0.7637   -1.2259    0.8453 C.2     1  UNL1        0.2510
     15 O          -1.2847   -1.9746    1.6927 O.2     1  UNL1       -0.2696
     16 C           0.6557   -1.1228    0.8791 C.ar    1  UNL1        0.0745
     17 C           1.6142   -1.7384    1.7527 C.ar    1  UNL1       -0.0419
     18 C           2.9262   -1.4213    1.5236 C.ar    1  UNL1       -0.0447
     19 C           3.2506   -0.5708    0.5181 C.ar    1  UNL1        0.0384
     20 S           1.7037   -0.1289   -0.2136 S.2     1  UNL1       -0.0822
     21 C           4.4931   -0.0644    0.0336 C.ar    1  UNL1        0.0826
     22 C           4.4941    0.7975   -1.0731 C.ar    1  UNL1       -0.0169
     23 C           5.7232    1.2505   -1.4988 C.ar    1  UNL1        0.0332
     24 N           6.8449    0.8648   -0.8611 N.ar    1  UNL1       -0.2229
     25 C           6.8399    0.0373    0.2015 C.ar    1  UNL1        0.2155
     26 N           8.1582   -0.1941    0.6604 N.pl3   1  UNL1       -0.3165
     27 C           8.8715    0.7270    1.5405 C.3     1  UNL1        0.0003
     28 N           5.6474   -0.4076    0.6217 N.ar    1  UNL1       -0.2140
     29 H          -3.2439   -1.2289    0.4216 H       1  UNL1        0.0514
     30 H          -4.2765   -1.1703   -1.8179 H       1  UNL1        0.0440
     31 H          -2.6674   -1.9254   -1.8369 H       1  UNL1        0.0440
     32 H          -3.0078   -0.5649   -3.6411 H       1  UNL1        0.1183
     33 H          -1.7482    0.0791   -2.7447 H       1  UNL1        0.1183
     34 H          -3.2313    1.5864   -0.6902 H       1  UNL1        0.0332
     35 H          -3.0987    1.1923    1.0913 H       1  UNL1        0.0332
     36 H          -8.0655    1.0854   -1.0808 H       1  UNL1        0.0647
     37 H          -7.0498    0.0932    2.9036 H       1  UNL1        0.0632
     38 H          -4.7505    0.2826    2.3332 H       1  UNL1        0.0621
     39 H          -0.9064    0.1394   -0.8231 H       1  UNL1        0.1494
     40 H           1.2332   -2.3984    2.5187 H       1  UNL1        0.0631
     41 H           3.7084   -1.8425    2.1361 H       1  UNL1        0.0630
     42 H           3.5851    1.0992   -1.5757 H       1  UNL1        0.0654
     43 H           5.7097    1.9123   -2.3506 H       1  UNL1        0.0831
     44 H           8.5746   -1.0697    0.3197 H       1  UNL1        0.1486
     45 H           9.5891    1.2945    0.9005 H       1  UNL1        0.0426
     46 H           9.3596    0.2195    2.3706 H       1  UNL1        0.0426
     47 H           8.1261    1.4410    1.9384 H       1  UNL1        0.0426
@<TRIPOS>BOND
     1     1     2    1
     2     2     3    1
     3     1     4    1
     4     4     5    1
     5     5     6   ar
     6     6     7    1
     7     6     8   ar
     8     8     9   ar
     9     9    10    1
    10     9    11   ar
    11    11    12   ar
    12     1    13    1
    13    13    14   am
    14    14    15    2
    15    14    16    1
    16    16    17   ar
    17    17    18   ar
    18    18    19   ar
    19    19    20   ar
    20    19    21    1
    21    21    22   ar
    22    22    23   ar
    23    23    24   ar
    24    24    25   ar
    25    25    26    1
    26    26    27    1
    27    25    28   ar
    28    12     5   ar
    29    20    16   ar
    30    28    21   ar
    31     1    29    1
    32     2    30    1
    33     2    31    1
    34     3    32    1
    35     3    33    1
    36     4    34    1
    37     4    35    1
    38     8    36    1
    39    11    37    1
    40    12    38    1
    41    13    39    1
    42    17    40    1
    43    18    41    1
    44    22    42    1
    45    23    43    1
    46    26    44    1
    47    27    45    1
    48    27    46    1
    49    27    47    1
