
     RDKit          3D

 44 47  0  0  0  0  0  0  0  0999 V2000
    1.0907    0.3754    1.9302 O   0  0  0  0  0  0  0  0  0  0  0  0
    0.5741    0.8784    0.9190 C   0  0  0  0  0  0  0  0  0  0  0  0
   -0.8376    0.9355    0.8557 N   0  0  0  0  0  0  0  0  0  0  0  0
   -1.6649    0.4251    1.9333 C   0  0  0  0  0  0  0  0  0  0  0  0
   -3.0971    0.6087    1.6113 C   0  0  0  0  0  0  0  0  0  0  0  0
   -3.9533   -0.2068    0.9730 N   0  0  0  0  0  0  0  0  0  0  0  0
   -5.1692    0.3541    0.8946 C   0  0  0  0  0  0  0  0  0  0  0  0
   -6.3850   -0.2028    0.2777 C   0  0  0  0  0  0  0  0  0  0  0  0
   -6.3770   -1.4448   -0.3183 C   0  0  0  0  0  0  0  0  0  0  0  0
   -7.5538   -1.9348   -0.8917 C   0  0  0  0  0  0  0  0  0  0  0  0
   -8.7157   -1.2122   -0.8768 C   0  0  0  0  0  0  0  0  0  0  0  0
   -8.7166    0.0246   -0.2813 C   0  0  0  0  0  0  0  0  0  0  0  0
  -10.3291    1.0436   -0.2528 Br  0  0  0  0  0  0  0  0  0  0  0  0
   -7.5426    0.5279    0.2978 C   0  0  0  0  0  0  0  0  0  0  0  0
   -5.0610    1.5754    1.5138 C   0  0  0  0  0  0  0  0  0  0  0  0
   -3.7994    1.7127    1.9417 N   0  0  0  0  0  0  0  0  0  0  0  0
    1.4196    1.3673   -0.1150 N   0  0  0  0  0  0  0  0  0  0  0  0
    2.8066    1.2612    0.0495 C   0  0  0  0  0  0  0  0  0  0  0  0
    3.4966    0.7057    1.1618 N   0  0  0  0  0  0  0  0  0  0  0  0
    4.7275    0.6593    1.2101 C   0  0  0  0  0  0  0  0  0  0  0  0
    5.5338    1.1779    0.1165 C   0  0  0  0  0  0  0  0  0  0  0  0
    7.2184    1.2686   -0.1333 S   0  0  0  0  0  0  0  0  0  0  0  0
    7.9159   -0.1682   -0.9610 C   0  0  0  0  0  0  0  0  0  0  0  0
    7.9897   -0.1797   -2.3405 C   0  0  0  0  0  0  0  0  0  0  0  0
    8.5170   -1.2604   -3.0176 C   0  0  0  0  0  0  0  0  0  0  0  0
    8.9792   -2.3493   -2.3091 C   0  0  0  0  0  0  0  0  0  0  0  0
    8.8939   -2.3124   -0.9336 C   0  0  0  0  0  0  0  0  0  0  0  0
    8.3670   -1.2285   -0.2936 N   0  0  0  0  0  0  0  0  0  0  0  0
    4.1335    1.7165   -0.9339 S   0  0  0  0  0  0  0  0  0  0  0  0
   -1.2739    1.3566    0.0092 H   0  0  0  0  0  0  0  0  0  0  0  0
   -1.4434    0.9700    2.8858 H   0  0  0  0  0  0  0  0  0  0  0  0
   -1.4247   -0.6378    2.1445 H   0  0  0  0  0  0  0  0  0  0  0  0
   -5.4561   -2.0130   -0.3279 H   0  0  0  0  0  0  0  0  0  0  0  0
   -7.5279   -2.9126   -1.3553 H   0  0  0  0  0  0  0  0  0  0  0  0
   -9.6079   -1.5987   -1.3188 H   0  0  0  0  0  0  0  0  0  0  0  0
   -7.5559    1.4993    0.7618 H   0  0  0  0  0  0  0  0  0  0  0  0
   -5.8703    2.2740    1.6184 H   0  0  0  0  0  0  0  0  0  0  0  0
   -3.4124    2.5472    2.4547 H   0  0  0  0  0  0  0  0  0  0  0  0
    0.9631    1.7762   -0.9358 H   0  0  0  0  0  0  0  0  0  0  0  0
    5.3108    0.2233    2.0814 H   0  0  0  0  0  0  0  0  0  0  0  0
    7.6190    0.6901   -2.8761 H   0  0  0  0  0  0  0  0  0  0  0  0
    8.5794   -1.2805   -4.0895 H   0  0  0  0  0  0  0  0  0  0  0  0
    9.4041   -3.2295   -2.7686 H   0  0  0  0  0  0  0  0  0  0  0  0
    9.2351   -3.1269   -0.3114 H   0  0  0  0  0  0  0  0  0  0  0  0
  1  2  2  0
  2  3  1  0
  3  4  1  0
  4  5  1  0
  5  6  2  0
  6  7  1  0
  7  8  1  0
  8  9  2  0
  9 10  1  0
 10 11  2  0
 11 12  1  0
 12 13  1  0
 12 14  2  0
  7 15  2  0
 15 16  1  0
  2 17  1  0
 17 18  1  0
 18 19  2  0
 19 20  1  0
 20 21  2  0
 21 22  1  0
 22 23  1  0
 23 24  2  0
 24 25  1  0
 25 26  2  0
 26 27  1  0
 27 28  2  0
 21 29  1  0
 16  5  1  0
 29 18  1  0
 14  8  1  0
 28 23  1  0
  3 30  1  0
  4 31  1  0
  4 32  1  0
  9 33  1  0
 10 34  1  0
 11 35  1  0
 14 36  1  0
 15 37  1  0
 16 38  1  0
 17 39  1  0
 20 40  1  0
 24 41  1  0
 25 42  1  0
 26 43  1  0
 27 44  1  0
M  END
$$$$
