@<TRIPOS>MOLECULE
*****
 44 47 0 0 0
SMALL
GASTEIGER

@<TRIPOS>ATOM
      1 O           1.0907    0.3754    1.9302 O.2     1  UNL1       -0.2524
      2 C           0.5741    0.8784    0.9190 C.2     1  UNL1        0.3057
      3 N          -0.8376    0.9355    0.8557 N.am    1  UNL1       -0.2920
      4 C          -1.6649    0.4251    1.9333 C.3     1  UNL1        0.0711
      5 C          -3.0971    0.6087    1.6113 C.ar    1  UNL1        0.1251
      6 N          -3.9533   -0.2068    0.9730 N.ar    1  UNL1       -0.2309
      7 C          -5.1692    0.3541    0.8946 C.ar    1  UNL1        0.0889
      8 C          -6.3850   -0.2028    0.2777 C.ar    1  UNL1        0.0029
      9 C          -6.3770   -1.4448   -0.3183 C.ar    1  UNL1       -0.0525
     10 C          -7.5538   -1.9348   -0.8917 C.ar    1  UNL1       -0.0601
     11 C          -8.7157   -1.2122   -0.8768 C.ar    1  UNL1       -0.0477
     12 C          -8.7166    0.0246   -0.2813 C.ar    1  UNL1        0.0185
     13 BR        -10.3291    1.0436   -0.2528 Br      1  UNL1       -0.0503
     14 C          -7.5426    0.5279    0.2978 C.ar    1  UNL1       -0.0385
     15 C          -5.0610    1.5754    1.5138 C.ar    1  UNL1        0.0293
     16 N          -3.7994    1.7127    1.9417 N.ar    1  UNL1       -0.3464
     17 N           1.4196    1.3673   -0.1150 N.am    1  UNL1       -0.2485
     18 C           2.8066    1.2612    0.0495 C.ar    1  UNL1        0.1666
     19 N           3.4966    0.7057    1.1618 N.ar    1  UNL1       -0.2318
     20 C           4.7275    0.6593    1.2101 C.ar    1  UNL1        0.0507
     21 C           5.5338    1.1779    0.1165 C.ar    1  UNL1        0.0724
     22 S           7.2184    1.2686   -0.1333 S.3     1  UNL1       -0.0611
     23 C           7.9159   -0.1682   -0.9610 C.ar    1  UNL1        0.1020
     24 C           7.9897   -0.1797   -2.3405 C.ar    1  UNL1       -0.0295
     25 C           8.5170   -1.2604   -3.0176 C.ar    1  UNL1       -0.0578
     26 C           8.9792   -2.3493   -2.3091 C.ar    1  UNL1       -0.0435
     27 C           8.8939   -2.3124   -0.9336 C.ar    1  UNL1        0.0288
     28 N           8.3670   -1.2285   -0.2936 N.ar    1  UNL1       -0.2484
     29 S           4.1335    1.7165   -0.9339 S.2     1  UNL1       -0.0454
     30 H          -1.2739    1.3566    0.0092 H       1  UNL1        0.1507
     31 H          -1.4434    0.9700    2.8858 H       1  UNL1        0.0543
     32 H          -1.4247   -0.6378    2.1445 H       1  UNL1        0.0543
     33 H          -5.4561   -2.0130   -0.3279 H       1  UNL1        0.0624
     34 H          -7.5279   -2.9126   -1.3553 H       1  UNL1        0.0618
     35 H          -9.6079   -1.5987   -1.3188 H       1  UNL1        0.0629
     36 H          -7.5559    1.4993    0.7618 H       1  UNL1        0.0635
     37 H          -5.8703    2.2740    1.6184 H       1  UNL1        0.0829
     38 H          -3.4124    2.5472    2.4547 H       1  UNL1        0.1666
     39 H           0.9631    1.7762   -0.9358 H       1  UNL1        0.1583
     40 H           5.3108    0.2233    2.0814 H       1  UNL1        0.0847
     41 H           7.6190    0.6901   -2.8761 H       1  UNL1        0.0644
     42 H           8.5794   -1.2805   -4.0895 H       1  UNL1        0.0619
     43 H           9.4041   -3.2295   -2.7686 H       1  UNL1        0.0633
     44 H           9.2351   -3.1269   -0.3114 H       1  UNL1        0.0830
@<TRIPOS>BOND
     1     1     2    2
     2     2     3   am
     3     3     4    1
     4     4     5    1
     5     5     6   ar
     6     6     7   ar
     7     7     8    1
     8     8     9   ar
     9     9    10   ar
    10    10    11   ar
    11    11    12   ar
    12    12    13    1
    13    12    14   ar
    14     7    15   ar
    15    15    16   ar
    16     2    17   am
    17    17    18    1
    18    18    19   ar
    19    19    20   ar
    20    20    21   ar
    21    21    22    1
    22    22    23    1
    23    23    24   ar
    24    24    25   ar
    25    25    26   ar
    26    26    27   ar
    27    27    28   ar
    28    21    29   ar
    29    16     5   ar
    30    29    18   ar
    31    14     8   ar
    32    28    23   ar
    33     3    30    1
    34     4    31    1
    35     4    32    1
    36     9    33    1
    37    10    34    1
    38    11    35    1
    39    14    36    1
    40    15    37    1
    41    16    38    1
    42    17    39    1
    43    20    40    1
    44    24    41    1
    45    25    42    1
    46    26    43    1
    47    27    44    1
