
     RDKit          3D

 52 53  0  0  0  0  0  0  0  0999 V2000
   -6.9082    0.1235   -0.9431 C   0  0  0  0  0  0  0  0  0  0  0  0
   -6.5959   -0.4578    0.4126 C   0  0  0  0  0  0  0  0  0  0  0  0
   -6.7140    0.6997    1.4121 C   0  0  0  0  0  0  0  0  0  0  0  0
   -7.5408   -1.5516    0.8202 C   0  0  0  0  0  0  0  0  0  0  0  0
   -5.1851   -0.8774    0.4205 C   0  0  0  0  0  0  0  0  0  0  0  0
   -4.8847   -2.0669    0.6263 O   0  0  0  0  0  0  0  0  0  0  0  0
   -4.2002    0.0551    0.1987 O   0  0  0  0  0  0  0  0  0  0  0  0
   -2.8530   -0.3116    0.1999 C   0  0  0  0  0  0  0  0  0  0  0  0
   -2.0941   -0.2909    1.3493 C   0  0  0  0  0  0  0  0  0  0  0  0
   -0.7692   -0.6572    1.3218 C   0  0  0  0  0  0  0  0  0  0  0  0
   -0.1817   -1.0560    0.1146 C   0  0  0  0  0  0  0  0  0  0  0  0
    1.4822   -1.5110    0.1537 S   0  0  0  0  0  6  0  0  0  0  0  0
    1.7457   -2.4981   -0.9270 O   0  0  0  0  0  0  0  0  0  0  0  0
    1.7536   -2.1774    1.4751 O   0  0  0  0  0  0  0  0  0  0  0  0
    2.4539   -0.0871    0.0050 N   0  0  0  0  0  0  0  0  0  0  0  0
    3.2635    0.1148   -1.1221 C   0  0  0  0  0  0  0  0  0  0  0  0
    2.7259   -0.2469   -2.3637 C   0  0  0  0  0  0  0  0  0  0  0  0
    3.4586   -0.0379   -3.5016 C   0  0  0  0  0  0  0  0  0  0  0  0
    4.7136    0.5206   -3.4518 C   0  0  0  0  0  0  0  0  0  0  0  0
    5.2434    0.8759   -2.2318 C   0  0  0  0  0  0  0  0  0  0  0  0
    4.5079    0.6687   -1.0574 C   0  0  0  0  0  0  0  0  0  0  0  0
    5.0889    1.0082    0.2380 C   0  0  0  0  0  0  0  0  0  0  0  0
    4.4798    0.7362    1.3079 O   0  0  0  0  0  0  0  0  0  0  0  0
    6.3474    1.6520    0.3809 N   0  0  0  0  0  0  0  0  0  0  0  0
    6.8407    1.9437    1.7004 C   0  0  0  0  0  0  0  0  0  0  0  0
    6.9991    0.6827    2.4504 C   0  0  0  0  0  0  0  0  0  0  0  0
    7.3957    0.6443    3.6456 O   0  0  0  0  0  0  0  0  0  0  0  0
    6.7062   -0.5157    1.8333 O   0  0  0  0  0  0  0  0  0  0  0  0
   -0.9377   -1.0754   -1.0227 C   0  0  0  0  0  0  0  0  0  0  0  0
   -2.2575   -0.7066   -0.9759 C   0  0  0  0  0  0  0  0  0  0  0  0
   -7.3880   -0.6915   -1.5351 H   0  0  0  0  0  0  0  0  0  0  0  0
   -5.9915    0.4260   -1.5036 H   0  0  0  0  0  0  0  0  0  0  0  0
   -7.5567    1.0119   -0.8765 H   0  0  0  0  0  0  0  0  0  0  0  0
   -7.6539    1.2496    1.2894 H   0  0  0  0  0  0  0  0  0  0  0  0
   -6.5500    0.3031    2.4340 H   0  0  0  0  0  0  0  0  0  0  0  0
   -5.8278    1.3586    1.1769 H   0  0  0  0  0  0  0  0  0  0  0  0
   -7.1402   -2.5440    0.6138 H   0  0  0  0  0  0  0  0  0  0  0  0
   -7.7155   -1.4548    1.9098 H   0  0  0  0  0  0  0  0  0  0  0  0
   -8.4861   -1.4133    0.2609 H   0  0  0  0  0  0  0  0  0  0  0  0
   -2.5892    0.0263    2.2707 H   0  0  0  0  0  0  0  0  0  0  0  0
   -0.1927   -0.6329    2.2378 H   0  0  0  0  0  0  0  0  0  0  0  0
    2.3885    0.6007    0.7595 H   0  0  0  0  0  0  0  0  0  0  0  0
    1.7414   -0.6856   -2.4014 H   0  0  0  0  0  0  0  0  0  0  0  0
    3.0509   -0.3159   -4.4805 H   0  0  0  0  0  0  0  0  0  0  0  0
    5.2959    0.6872   -4.3571 H   0  0  0  0  0  0  0  0  0  0  0  0
    6.2369    1.3188   -2.1738 H   0  0  0  0  0  0  0  0  0  0  0  0
    6.9142    1.9158   -0.4376 H   0  0  0  0  0  0  0  0  0  0  0  0
    7.7838    2.5286    1.6476 H   0  0  0  0  0  0  0  0  0  0  0  0
    6.0679    2.5434    2.2601 H   0  0  0  0  0  0  0  0  0  0  0  0
    6.8105   -1.4086    2.3067 H   0  0  0  0  0  0  0  0  0  0  0  0
   -0.4613   -1.3950   -1.9546 H   0  0  0  0  0  0  0  0  0  0  0  0
   -2.8212   -0.7392   -1.9163 H   0  0  0  0  0  0  0  0  0  0  0  0
  1  2  1  0
  2  3  1  0
  2  4  1  0
  2  5  1  0
  5  6  2  0
  5  7  1  0
  7  8  1  0
  8  9  2  0
  9 10  1  0
 10 11  2  0
 11 12  1  0
 12 13  2  0
 12 14  2  0
 12 15  1  0
 15 16  1  0
 16 17  2  0
 17 18  1  0
 18 19  2  0
 19 20  1  0
 20 21  2  0
 21 22  1  0
 22 23  2  0
 22 24  1  0
 24 25  1  0
 25 26  1  0
 26 27  2  0
 26 28  1  0
 11 29  1  0
 29 30  2  0
 30  8  1  0
 21 16  1  0
  1 31  1  0
  1 32  1  0
  1 33  1  0
  3 34  1  0
  3 35  1  0
  3 36  1  0
  4 37  1  0
  4 38  1  0
  4 39  1  0
  9 40  1  0
 10 41  1  0
 15 42  1  0
 17 43  1  0
 18 44  1  0
 19 45  1  0
 20 46  1  0
 24 47  1  0
 25 48  1  0
 25 49  1  0
 28 50  1  0
 29 51  1  0
 30 52  1  0
M  END
$$$$
