@<TRIPOS>MOLECULE
*****
 52 53 0 0 0
SMALL
GASTEIGER

@<TRIPOS>ATOM
      1 C          -6.9082    0.1235   -0.9431 C.3     1  UNL1       -0.0499
      2 C          -6.5959   -0.4578    0.4126 C.3     1  UNL1        0.0598
      3 C          -6.7140    0.6997    1.4121 C.3     1  UNL1       -0.0499
      4 C          -7.5408   -1.5516    0.8202 C.3     1  UNL1       -0.0499
      5 C          -5.1851   -0.8774    0.4205 C.2     1  UNL1        0.3178
      6 O          -4.8847   -2.0669    0.6263 O.2     1  UNL1       -0.2498
      7 O          -4.2002    0.0551    0.1987 O.3     1  UNL1       -0.4255
      8 C          -2.8530   -0.3116    0.1999 C.ar    1  UNL1        0.1318
      9 C          -2.0941   -0.2909    1.3493 C.ar    1  UNL1       -0.0174
     10 C          -0.7692   -0.6572    1.3218 C.ar    1  UNL1       -0.0316
     11 C          -0.1817   -1.0560    0.1146 C.ar    1  UNL1        0.1087
     12 S           1.4822   -1.5110    0.1537 S.O2    1  UNL1        0.0724
     13 O           1.7457   -2.4981   -0.9270 O.2     1  UNL1       -0.1500
     14 O           1.7536   -2.1774    1.4751 O.2     1  UNL1       -0.1500
     15 N           2.4539   -0.0871    0.0050 N.pl3   1  UNL1       -0.2155
     16 C           3.2635    0.1148   -1.1221 C.ar    1  UNL1        0.0601
     17 C           2.7259   -0.2469   -2.3637 C.ar    1  UNL1       -0.0386
     18 C           3.4586   -0.0379   -3.5016 C.ar    1  UNL1       -0.0599
     19 C           4.7136    0.5206   -3.4518 C.ar    1  UNL1       -0.0609
     20 C           5.2434    0.8759   -2.2318 C.ar    1  UNL1       -0.0478
     21 C           4.5079    0.6687   -1.0574 C.ar    1  UNL1        0.0590
     22 C           5.0889    1.0082    0.2380 C.2     1  UNL1        0.2463
     23 O           4.4798    0.7362    1.3079 O.2     1  UNL1       -0.2701
     24 N           6.3474    1.6520    0.3809 N.am    1  UNL1       -0.3008
     25 C           6.8407    1.9437    1.7004 C.3     1  UNL1        0.1091
     26 C           6.9991    0.6827    2.4504 C.2     1  UNL1        0.3221
     27 O           7.3957    0.6443    3.6456 O.2     1  UNL1       -0.2492
     28 O           6.7062   -0.5157    1.8333 O.3     1  UNL1       -0.4795
     29 C          -0.9377   -1.0754   -1.0227 C.ar    1  UNL1       -0.0316
     30 C          -2.2575   -0.7066   -0.9759 C.ar    1  UNL1       -0.0174
     31 H          -7.3880   -0.6915   -1.5351 H       1  UNL1        0.0240
     32 H          -5.9915    0.4260   -1.5036 H       1  UNL1        0.0240
     33 H          -7.5567    1.0119   -0.8765 H       1  UNL1        0.0240
     34 H          -7.6539    1.2496    1.2894 H       1  UNL1        0.0240
     35 H          -6.5500    0.3031    2.4340 H       1  UNL1        0.0240
     36 H          -5.8278    1.3586    1.1769 H       1  UNL1        0.0240
     37 H          -7.1402   -2.5440    0.6138 H       1  UNL1        0.0240
     38 H          -7.7155   -1.4548    1.9098 H       1  UNL1        0.0240
     39 H          -8.4861   -1.4133    0.2609 H       1  UNL1        0.0240
     40 H          -2.5892    0.0263    2.2707 H       1  UNL1        0.0655
     41 H          -0.1927   -0.6329    2.2378 H       1  UNL1        0.0638
     42 H           2.3885    0.6007    0.7595 H       1  UNL1        0.1737
     43 H           1.7414   -0.6856   -2.4014 H       1  UNL1        0.0637
     44 H           3.0509   -0.3159   -4.4805 H       1  UNL1        0.0618
     45 H           5.2959    0.6872   -4.3571 H       1  UNL1        0.0618
     46 H           6.2369    1.3188   -2.1738 H       1  UNL1        0.0626
     47 H           6.9142    1.9158   -0.4376 H       1  UNL1        0.1496
     48 H           7.7838    2.5286    1.6476 H       1  UNL1        0.0577
     49 H           6.0679    2.5434    2.2601 H       1  UNL1        0.0577
     50 H           6.8105   -1.4086    2.3067 H       1  UNL1        0.2951
     51 H          -0.4613   -1.3950   -1.9546 H       1  UNL1        0.0638
     52 H          -2.8212   -0.7392   -1.9163 H       1  UNL1        0.0655
@<TRIPOS>BOND
     1     1     2    1
     2     2     3    1
     3     2     4    1
     4     2     5    1
     5     5     6    2
     6     5     7    1
     7     7     8    1
     8     8     9   ar
     9     9    10   ar
    10    10    11   ar
    11    11    12    1
    12    12    13    2
    13    12    14    2
    14    12    15    1
    15    15    16    1
    16    16    17   ar
    17    17    18   ar
    18    18    19   ar
    19    19    20   ar
    20    20    21   ar
    21    21    22    1
    22    22    23    2
    23    22    24   am
    24    24    25    1
    25    25    26    1
    26    26    27    2
    27    26    28    1
    28    11    29   ar
    29    29    30   ar
    30    30     8   ar
    31    21    16   ar
    32     1    31    1
    33     1    32    1
    34     1    33    1
    35     3    34    1
    36     3    35    1
    37     3    36    1
    38     4    37    1
    39     4    38    1
    40     4    39    1
    41     9    40    1
    42    10    41    1
    43    15    42    1
    44    17    43    1
    45    18    44    1
    46    19    45    1
    47    20    46    1
    48    24    47    1
    49    25    48    1
    50    25    49    1
    51    28    50    1
    52    29    51    1
    53    30    52    1
