@<TRIPOS>MOLECULE
*****
 49 51 0 0 0
SMALL
GASTEIGER

@<TRIPOS>ATOM
      1 C          -0.8086   -1.5777   -0.2052 C.3     1  UNL1        0.0922
      2 C          -1.6593   -2.8094   -0.3322 C.3     1  UNL1        0.0052
      3 C          -2.8610   -2.8182    0.5448 C.3     1  UNL1        0.0907
      4 O          -3.5381   -4.0565    0.3714 O.3     1  UNL1       -0.3887
      5 C          -3.9157   -1.7807    0.1641 C.3     1  UNL1        0.1427
      6 O          -4.2979   -2.0307   -1.1520 O.3     1  UNL1       -0.3814
      7 C          -3.4162   -0.4120    0.3515 C.2     1  UNL1        0.1865
      8 O          -3.7553   -0.5422   -0.8813 O.2     1  UNL1       -0.2898
      9 C          -2.9553    0.9229    0.4247 C.2     1  UNL1       -0.0203
     10 C          -2.4633    1.7630    1.2933 C.2     1  UNL1       -0.0772
     11 C          -2.2238    3.0263    0.5399 C.3     1  UNL1        0.0027
     12 C          -0.7343    3.3572    0.5640 C.3     1  UNL1        0.1040
     13 C          -0.5255    4.6181   -0.2127 C.3     1  UNL1       -0.0274
     14 O          -0.0450    2.2299    0.0009 O.3     1  UNL1       -0.4578
     15 C           0.9149    1.5588    0.7392 C.2     1  UNL1        0.3434
     16 O           1.2447    1.8759    1.9104 O.2     1  UNL1       -0.2448
     17 C           1.7467    0.3977    0.3991 C.ar    1  UNL1        0.1062
     18 C           1.5784   -0.9644    0.2910 C.ar    1  UNL1        0.0046
     19 C           2.6771   -1.6780   -0.0947 C.ar    1  UNL1       -0.0132
     20 C           3.9312   -1.1855   -0.3854 C.ar    1  UNL1        0.1239
     21 O           5.0016   -1.9788   -0.7729 O.3     1  UNL1       -0.4950
     22 C           6.2717   -1.4632   -1.0654 C.3     1  UNL1        0.0788
     23 C           4.1333    0.1625   -0.2864 C.ar    1  UNL1        0.0224
     24 C           3.0175    0.9183    0.1088 C.ar    1  UNL1        0.1346
     25 O           3.2919    2.3002    0.1962 O.3     1  UNL1       -0.5058
     26 C           0.3881   -1.7723    0.5577 C.3     1  UNL1        0.1112
     27 O          -0.6842   -1.1795    1.1896 O.3     1  UNL1       -0.3632
     28 H          -0.9827   -0.7153   -0.8462 H       1  UNL1        0.0626
     29 H          -1.9591   -2.8775   -1.4010 H       1  UNL1        0.0317
     30 H          -1.0550   -3.7006   -0.0816 H       1  UNL1        0.0317
     31 H          -2.6013   -2.6954    1.6011 H       1  UNL1        0.0624
     32 H          -3.0526   -4.6293   -0.2697 H       1  UNL1        0.2099
     33 H          -4.7833   -2.0108    0.8157 H       1  UNL1        0.0702
     34 H          -5.2643   -1.8286   -1.2199 H       1  UNL1        0.2105
     35 H          -2.9358    0.3389    1.3334 H       1  UNL1        0.0650
     36 H          -2.1121    2.0611    2.3118 H       1  UNL1        0.0574
     37 H          -2.7426    3.8710    1.0604 H       1  UNL1        0.0343
     38 H          -2.5471    3.0260   -0.5046 H       1  UNL1        0.0343
     39 H          -0.4106    3.5476    1.5979 H       1  UNL1        0.0734
     40 H           0.3831    5.1817    0.1115 H       1  UNL1        0.0265
     41 H          -0.4916    4.4555   -1.3145 H       1  UNL1        0.0265
     42 H          -1.3855    5.2965    0.0281 H       1  UNL1        0.0265
     43 H           2.6308   -2.7644   -0.2065 H       1  UNL1        0.0658
     44 H           6.6403   -0.9064   -0.1734 H       1  UNL1        0.0660
     45 H           6.2691   -0.7241   -1.8944 H       1  UNL1        0.0660
     46 H           6.9520   -2.3140   -1.2611 H       1  UNL1        0.0660
     47 H           5.1012    0.5852   -0.5053 H       1  UNL1        0.0691
     48 H           3.4785    2.7450   -0.6916 H       1  UNL1        0.2922
     49 H           0.5551   -2.8235    0.9503 H       1  UNL1        0.0673
@<TRIPOS>BOND
     1     1     2    1
     2     2     3    1
     3     3     4    1
     4     3     5    1
     5     5     6    1
     6     5     7    1
     7     7     8    2
     8     7     9    1
     9     9    10    2
    10    10    11    1
    11    11    12    1
    12    12    13    1
    13    12    14    1
    14    14    15    1
    15    15    16    2
    16    15    17    1
    17    17    18   ar
    18    18    19   ar
    19    19    20   ar
    20    20    21    1
    21    21    22    1
    22    20    23   ar
    23    23    24   ar
    24    24    25    1
    25    18    26    1
    26    26    27    1
    27    26     1    1
    28    27     1    1
    29    24    17   ar
    30     1    28    1
    31     2    29    1
    32     2    30    1
    33     3    31    1
    34     4    32    1
    35     5    33    1
    36     6    34    1
    37     9    35    1
    38    10    36    1
    39    11    37    1
    40    11    38    1
    41    12    39    1
    42    13    40    1
    43    13    41    1
    44    13    42    1
    45    19    43    1
    46    22    44    1
    47    22    45    1
    48    22    46    1
    49    23    47    1
    50    25    48    1
    51    26    49    1
