
     RDKit          3D

 49 51  0  0  0  0  0  0  0  0999 V2000
   -0.8086   -1.5777   -0.2052 C   0  0  2  0  0  0  0  0  0  0  0  0
   -1.6593   -2.8094   -0.3322 C   0  0  0  0  0  0  0  0  0  0  0  0
   -2.8610   -2.8182    0.5448 C   0  0  2  0  0  0  0  0  0  0  0  0
   -3.5381   -4.0565    0.3714 O   0  0  0  0  0  0  0  0  0  0  0  0
   -3.9157   -1.7807    0.1641 C   0  0  2  0  0  0  0  0  0  0  0  0
   -4.2979   -2.0307   -1.1520 O   0  0  0  0  0  0  0  0  0  0  0  0
   -3.4162   -0.4120    0.3515 C   0  0  0  0  0  0  0  0  0  0  0  0
   -3.7553   -0.5422   -0.8813 O   0  0  0  0  0  0  0  0  0  0  0  0
   -2.9553    0.9229    0.4247 C   0  0  0  0  0  0  0  0  0  0  0  0
   -2.4633    1.7630    1.2933 C   0  0  0  0  0  0  0  0  0  0  0  0
   -2.2238    3.0263    0.5399 C   0  0  0  0  0  0  0  0  0  0  0  0
   -0.7343    3.3572    0.5640 C   0  0  2  0  0  0  0  0  0  0  0  0
   -0.5255    4.6181   -0.2127 C   0  0  0  0  0  0  0  0  0  0  0  0
   -0.0450    2.2299    0.0009 O   0  0  0  0  0  0  0  0  0  0  0  0
    0.9149    1.5588    0.7392 C   0  0  0  0  0  0  0  0  0  0  0  0
    1.2447    1.8759    1.9104 O   0  0  0  0  0  0  0  0  0  0  0  0
    1.7467    0.3977    0.3991 C   0  0  0  0  0  0  0  0  0  0  0  0
    1.5784   -0.9644    0.2910 C   0  0  0  0  0  0  0  0  0  0  0  0
    2.6771   -1.6780   -0.0947 C   0  0  0  0  0  0  0  0  0  0  0  0
    3.9312   -1.1855   -0.3854 C   0  0  0  0  0  0  0  0  0  0  0  0
    5.0016   -1.9788   -0.7729 O   0  0  0  0  0  0  0  0  0  0  0  0
    6.2717   -1.4632   -1.0654 C   0  0  0  0  0  0  0  0  0  0  0  0
    4.1333    0.1625   -0.2864 C   0  0  0  0  0  0  0  0  0  0  0  0
    3.0175    0.9183    0.1088 C   0  0  0  0  0  0  0  0  0  0  0  0
    3.2919    2.3002    0.1962 O   0  0  0  0  0  0  0  0  0  0  0  0
    0.3881   -1.7723    0.5577 C   0  0  1  0  0  0  0  0  0  0  0  0
   -0.6842   -1.1795    1.1896 O   0  0  0  0  0  0  0  0  0  0  0  0
   -0.9827   -0.7153   -0.8462 H   0  0  0  0  0  0  0  0  0  0  0  0
   -1.9591   -2.8775   -1.4010 H   0  0  0  0  0  0  0  0  0  0  0  0
   -1.0550   -3.7006   -0.0816 H   0  0  0  0  0  0  0  0  0  0  0  0
   -2.6013   -2.6954    1.6011 H   0  0  0  0  0  0  0  0  0  0  0  0
   -3.0526   -4.6293   -0.2697 H   0  0  0  0  0  0  0  0  0  0  0  0
   -4.7833   -2.0108    0.8157 H   0  0  0  0  0  0  0  0  0  0  0  0
   -5.2643   -1.8286   -1.2199 H   0  0  0  0  0  0  0  0  0  0  0  0
   -2.9358    0.3389    1.3334 H   0  0  0  0  0  0  0  0  0  0  0  0
   -2.1121    2.0611    2.3118 H   0  0  0  0  0  0  0  0  0  0  0  0
   -2.7426    3.8710    1.0604 H   0  0  0  0  0  0  0  0  0  0  0  0
   -2.5471    3.0260   -0.5046 H   0  0  0  0  0  0  0  0  0  0  0  0
   -0.4106    3.5476    1.5979 H   0  0  0  0  0  0  0  0  0  0  0  0
    0.3831    5.1817    0.1115 H   0  0  0  0  0  0  0  0  0  0  0  0
   -0.4916    4.4555   -1.3145 H   0  0  0  0  0  0  0  0  0  0  0  0
   -1.3855    5.2965    0.0281 H   0  0  0  0  0  0  0  0  0  0  0  0
    2.6308   -2.7644   -0.2065 H   0  0  0  0  0  0  0  0  0  0  0  0
    6.6403   -0.9064   -0.1734 H   0  0  0  0  0  0  0  0  0  0  0  0
    6.2691   -0.7241   -1.8944 H   0  0  0  0  0  0  0  0  0  0  0  0
    6.9520   -2.3140   -1.2611 H   0  0  0  0  0  0  0  0  0  0  0  0
    5.1012    0.5852   -0.5053 H   0  0  0  0  0  0  0  0  0  0  0  0
    3.4785    2.7450   -0.6916 H   0  0  0  0  0  0  0  0  0  0  0  0
    0.5551   -2.8235    0.9503 H   0  0  0  0  0  0  0  0  0  0  0  0
  1  2  1  0
  2  3  1  0
  3  4  1  0
  3  5  1  0
  5  6  1  0
  5  7  1  0
  7  8  2  0
  7  9  1  0
  9 10  2  3
 10 11  1  0
 11 12  1  0
 12 13  1  0
 12 14  1  0
 14 15  1  0
 15 16  2  0
 15 17  1  0
 17 18  2  0
 18 19  1  0
 19 20  2  0
 20 21  1  0
 21 22  1  0
 20 23  1  0
 23 24  2  0
 24 25  1  0
 18 26  1  0
 26 27  1  0
 26  1  1  0
 27  1  1  0
 24 17  1  0
  1 28  1  6
  2 29  1  0
  2 30  1  0
  3 31  1  1
  4 32  1  0
  5 33  1  1
  6 34  1  0
  9 35  1  0
 10 36  1  0
 11 37  1  0
 11 38  1  0
 12 39  1  1
 13 40  1  0
 13 41  1  0
 13 42  1  0
 19 43  1  0
 22 44  1  0
 22 45  1  0
 22 46  1  0
 23 47  1  0
 25 48  1  0
 26 49  1  1
M  END
$$$$
