
     RDKit          3D

218228  0  0  0  0  0  0  0  0999 V2000
  -13.9471    3.5919   -3.1972 C   0  0  0  0  0  0  0  0  0  0  0  0
  -12.5374    3.5244   -2.8803 N   0  0  0  0  0  0  0  0  0  0  0  0
  -12.3709    2.8730   -1.6210 C   0  0  1  0  0  0  0  0  0  0  0  0
  -12.9938    1.4957   -1.5448 C   0  0  0  0  0  0  0  0  0  0  0  0
  -10.9347    2.8122   -1.1956 C   0  0  0  0  0  0  0  0  0  0  0  0
  -10.0515    3.4003   -1.8720 O   0  0  0  0  0  0  0  0  0  0  0  0
  -10.5167    2.1058   -0.0492 N   0  0  0  0  0  0  0  0  0  0  0  0
   -9.0595    2.0578    0.3440 C   0  0  2  0  0  0  0  0  0  0  0  0
   -8.5700    0.6995    0.0784 C   0  0  0  0  0  0  0  0  0  0  0  0
   -9.4945   -0.1840   -0.0874 O   0  0  0  0  0  0  0  0  0  0  0  0
   -7.2603    0.2180   -0.0318 N   0  0  0  0  0  0  0  0  0  0  0  0
   -5.9747    0.8677    0.0847 C   0  0  0  0  0  0  0  0  0  0  0  0
   -5.3037    0.3988   -1.1666 C   0  0  2  0  0  0  0  0  0  0  0  0
   -5.7038   -1.0489   -1.2606 C   0  0  0  0  0  0  0  0  0  0  0  0
   -6.9217   -1.1819   -0.3935 C   0  0  1  0  0  0  0  0  0  0  0  0
   -6.7128   -2.0087    0.8039 C   0  0  0  0  0  0  0  0  0  0  0  0
   -6.5867   -1.3431    1.9207 O   0  0  0  0  0  0  0  0  0  0  0  0
   -6.6144   -3.3837    1.0362 N   0  0  0  0  0  0  0  0  0  0  0  0
   -7.1556   -4.0123    2.3056 C   0  0  1  0  0  0  0  0  0  0  0  0
   -8.6223   -4.2652    1.9518 C   0  0  0  0  0  0  0  0  0  0  0  0
   -8.8234   -5.2019    0.8272 C   0  0  0  0  0  0  0  0  0  0  0  0
   -9.2479   -6.5153    1.1702 C   0  0  0  0  0  0  0  0  0  0  0  0
   -9.3709   -7.3725    0.1157 C   0  0  0  0  0  0  0  0  0  0  0  0
   -9.1183   -7.0396   -1.1843 C   0  0  0  0  0  0  0  0  0  0  0  0
   -9.2402   -7.9404   -2.2300 C   0  0  0  0  0  0  0  0  0  0  0  0
   -8.9705   -7.6143   -3.5350 C   0  0  0  0  0  0  0  0  0  0  0  0
   -8.5631   -6.3585   -3.8668 C   0  0  0  0  0  0  0  0  0  0  0  0
   -8.4269   -5.4097   -2.8407 C   0  0  0  0  0  0  0  0  0  0  0  0
   -8.7003   -5.7543   -1.5434 C   0  0  0  0  0  0  0  0  0  0  0  0
   -8.5732   -4.8739   -0.4626 C   0  0  0  0  0  0  0  0  0  0  0  0
   -6.3667   -5.2302    2.4792 C   0  0  0  0  0  0  0  0  0  0  0  0
   -6.7659   -6.2241    1.7095 O   0  0  0  0  0  0  0  0  0  0  0  0
   -5.2738   -5.6398    3.2542 N   0  0  0  0  0  0  0  0  0  0  0  0
   -5.0513   -7.0744    3.5979 C   0  0  2  0  0  0  0  0  0  0  0  0
   -4.0229   -7.1706    4.6423 C   0  0  0  0  0  0  0  0  0  0  0  0
   -3.7152   -8.3061    5.0894 O   0  0  0  0  0  0  0  0  0  0  0  0
   -3.3336   -6.1116    5.1981 O   0  0  0  0  0  0  0  0  0  0  0  0
   -4.4797   -7.8265    2.3995 C   0  0  0  0  0  0  0  0  0  0  0  0
   -3.2015   -7.3091    1.8454 C   0  0  0  0  0  0  0  0  0  0  0  0
   -3.1373   -6.0420    1.3356 C   0  0  0  0  0  0  0  0  0  0  0  0
   -1.9015   -5.4918    0.8422 C   0  0  0  0  0  0  0  0  0  0  0  0
   -0.7410   -6.1832    0.8515 C   0  0  0  0  0  0  0  0  0  0  0  0
   -0.8123   -7.4543    1.3616 C   0  0  0  0  0  0  0  0  0  0  0  0
   -2.0048   -8.0418    1.8575 C   0  0  0  0  0  0  0  0  0  0  0  0
    0.4722   -5.6939    0.3952 O   0  0  0  0  0  0  0  0  0  0  0  0
    0.9386   -5.4186   -0.8722 C   0  0  0  0  0  0  0  0  0  0  0  0
    1.1671   -3.9145   -1.0734 C   0  0  0  0  0  0  0  0  0  0  0  0
    2.2192   -3.5451   -0.0442 C   0  0  0  0  0  0  0  0  0  0  0  0
    2.7331   -2.1623   -0.2373 C   0  0  0  0  0  0  0  0  0  0  0  0
    4.1738   -2.1150   -0.6486 C   0  0  1  0  0  0  0  0  0  0  0  0
    4.4873   -0.8510   -1.3783 C   0  0  0  0  0  0  0  0  0  0  0  0
    5.9815   -0.6482   -1.0993 C   0  0  1  0  0  0  0  0  0  0  0  0
    6.2743    0.7957   -0.9019 C   0  0  0  0  0  0  0  0  0  0  0  0
    6.4590    1.0626    0.3721 O   0  0  0  0  0  0  0  0  0  0  0  0
    6.3942    1.9030   -1.6940 N   0  0  0  0  0  0  0  0  0  0  0  0
    6.4559    3.2805   -1.0860 C   0  0  1  0  0  0  0  0  0  0  0  0
    7.8930    3.5709   -0.8286 C   0  0  0  0  0  0  0  0  0  0  0  0
    8.1599    4.9212   -0.2844 C   0  0  0  0  0  0  0  0  0  0  0  0
    8.6212    5.9339   -1.1515 C   0  0  0  0  0  0  0  0  0  0  0  0
    8.8593    7.1985   -0.7036 C   0  0  0  0  0  0  0  0  0  0  0  0
    8.6593    7.5303    0.6088 C   0  0  0  0  0  0  0  0  0  0  0  0
    8.9019    8.8061    1.0549 C   0  0  0  0  0  0  0  0  0  0  0  0
    8.7246    9.2161    2.3776 C   0  0  0  0  0  0  0  0  0  0  0  0
    8.2775    8.2380    3.2318 C   0  0  0  0  0  0  0  0  0  0  0  0
    8.0172    6.9407    2.8249 C   0  0  0  0  0  0  0  0  0  0  0  0
    8.2041    6.5780    1.5185 C   0  0  0  0  0  0  0  0  0  0  0  0
    7.9753    5.3048    1.0150 C   0  0  0  0  0  0  0  0  0  0  0  0
    5.7320    4.2578   -1.8670 C   0  0  0  0  0  0  0  0  0  0  0  0
    4.6607    3.7537   -2.4533 O   0  0  0  0  0  0  0  0  0  0  0  0
    5.7915    5.5991   -2.2197 N   0  0  0  0  0  0  0  0  0  0  0  0
    5.0010    6.6811   -1.7321 C   0  0  2  0  0  0  0  0  0  0  0  0
    5.7827    7.9099   -1.6771 N   0  0  0  0  0  0  0  0  0  0  0  0
    4.9912    9.3099   -2.2170 S   0  0  0  0  0  6  0  0  0  0  0  0
    5.9692   10.4454   -2.0549 O   0  0  0  0  0  0  0  0  0  0  0  0
    4.5729    9.2976   -3.6472 O   0  0  0  0  0  0  0  0  0  0  0  0
    3.5646    9.7034   -1.2376 C   0  0  0  0  0  0  0  0  0  0  0  0
    3.8177   10.3250    0.1191 C   0  0  0  0  0  0  0  0  0  0  0  0
    3.3098   11.1837   -0.9748 C   0  0  0  0  0  0  0  0  0  0  0  0
    4.3931    6.4020   -0.3594 C   0  0  0  0  0  0  0  0  0  0  0  0
    3.1592    5.5329   -0.3933 C   0  0  0  0  0  0  0  0  0  0  0  0
    1.9958    5.8842   -1.0213 C   0  0  0  0  0  0  0  0  0  0  0  0
    0.8595    5.0264   -1.0191 C   0  0  0  0  0  0  0  0  0  0  0  0
    0.8910    3.8101   -0.3841 C   0  0  0  0  0  0  0  0  0  0  0  0
    2.0231    3.4573    0.2354 C   0  0  0  0  0  0  0  0  0  0  0  0
    3.1847    4.3172    0.2403 C   0  0  0  0  0  0  0  0  0  0  0  0
   -0.2508    2.9703   -0.3984 O   0  0  0  0  0  0  0  0  0  0  0  0
   -0.4572    1.9123   -1.2843 C   0  0  0  0  0  0  0  0  0  0  0  0
   -1.7623    1.2158   -1.2021 C   0  0  0  0  0  0  0  0  0  0  0  0
   -3.0621    1.6447   -1.2341 C   0  0  0  0  0  0  0  0  0  0  0  0
   -3.8363    0.5697   -1.1607 N   0  0  0  0  0  0  0  0  0  0  0  0
   -3.0456   -0.5445   -1.0778 N   0  0  0  0  0  0  0  0  0  0  0  0
   -1.8089   -0.1821   -1.1014 N   0  0  0  0  0  0  0  0  0  0  0  0
    6.3310   -1.4831    0.0323 N   0  0  0  0  0  0  0  0  0  0  0  0
    7.5200   -1.9258    0.5984 C   0  0  0  0  0  0  0  0  0  0  0  0
    7.3762   -2.6783    1.6640 O   0  0  0  0  0  0  0  0  0  0  0  0
    8.9146   -1.7405    0.2632 C   0  0  1  0  0  0  0  0  0  0  0  0
    9.8529   -2.5633    0.9916 N   0  0  0  0  0  0  0  0  0  0  0  0
    9.8284   -3.9851    0.9435 C   0  0  0  0  0  0  0  0  0  0  0  0
    8.9399   -4.5331    0.2479 O   0  0  0  0  0  0  0  0  0  0  0  0
   10.8422   -4.8119    1.6947 C   0  0  2  0  0  0  0  0  0  0  0  0
   12.2523   -4.3678    1.4132 C   0  0  0  0  0  0  0  0  0  0  0  0
   10.7240   -6.2021    1.2569 N   0  0  0  0  0  0  0  0  0  0  0  0
   10.9945   -6.2968   -0.1697 C   0  0  0  0  0  0  0  0  0  0  0  0
    9.3409   -1.5841   -1.1437 C   0  0  0  0  0  0  0  0  0  0  0  0
    8.9361   -2.6894   -2.0609 C   0  0  0  0  0  0  0  0  0  0  0  0
   10.9128   -1.7973   -1.0559 C   0  0  0  0  0  0  0  0  0  0  0  0
    9.2725   -0.1973   -1.7075 C   0  0  0  0  0  0  0  0  0  0  0  0
    5.0205   -1.9154    0.5939 C   0  0  0  0  0  0  0  0  0  0  0  0
   -9.0174    2.4611    1.7861 C   0  0  0  0  0  0  0  0  0  0  0  0
   -9.7874    1.4940    2.6670 C   0  0  0  0  0  0  0  0  0  0  0  0
   -9.8713    3.7692    1.8471 C   0  0  0  0  0  0  0  0  0  0  0  0
   -7.6796    2.8274    2.2768 C   0  0  0  0  0  0  0  0  0  0  0  0
  -14.5687    3.8667   -2.3123 H   0  0  0  0  0  0  0  0  0  0  0  0
  -14.3442    2.5856   -3.5278 H   0  0  0  0  0  0  0  0  0  0  0  0
  -14.1832    4.3354   -3.9942 H   0  0  0  0  0  0  0  0  0  0  0  0
  -12.2109    4.5055   -2.7729 H   0  0  0  0  0  0  0  0  0  0  0  0
  -12.8874    3.5033   -0.8434 H   0  0  0  0  0  0  0  0  0  0  0  0
  -12.5078    0.7583   -2.1806 H   0  0  0  0  0  0  0  0  0  0  0  0
  -12.9522    1.2074   -0.4503 H   0  0  0  0  0  0  0  0  0  0  0  0
  -14.0943    1.6237   -1.7565 H   0  0  0  0  0  0  0  0  0  0  0  0
  -11.2131    1.6137    0.5316 H   0  0  0  0  0  0  0  0  0  0  0  0
   -8.5790    2.8250   -0.2674 H   0  0  0  0  0  0  0  0  0  0  0  0
   -5.4309    0.4179    0.9329 H   0  0  0  0  0  0  0  0  0  0  0  0
   -5.9957    1.9463    0.1966 H   0  0  0  0  0  0  0  0  0  0  0  0
   -5.7825    0.8306   -2.0984 H   0  0  0  0  0  0  0  0  0  0  0  0
   -4.8840   -1.6638   -0.8078 H   0  0  0  0  0  0  0  0  0  0  0  0
   -5.8881   -1.3697   -2.3074 H   0  0  0  0  0  0  0  0  0  0  0  0
   -7.8076   -1.4880   -1.0160 H   0  0  0  0  0  0  0  0  0  0  0  0
   -6.2052   -4.1537    0.4741 H   0  0  0  0  0  0  0  0  0  0  0  0
   -7.1759   -3.2705    3.0919 H   0  0  0  0  0  0  0  0  0  0  0  0
   -9.0663   -3.2954    1.6600 H   0  0  0  0  0  0  0  0  0  0  0  0
   -9.1785   -4.6216    2.8434 H   0  0  0  0  0  0  0  0  0  0  0  0
   -9.4333   -6.7350    2.2063 H   0  0  0  0  0  0  0  0  0  0  0  0
   -9.7068   -8.4012    0.3370 H   0  0  0  0  0  0  0  0  0  0  0  0
   -9.5696   -8.9364   -1.9769 H   0  0  0  0  0  0  0  0  0  0  0  0
   -9.0731   -8.3320   -4.3525 H   0  0  0  0  0  0  0  0  0  0  0  0
   -8.3381   -6.0699   -4.9002 H   0  0  0  0  0  0  0  0  0  0  0  0
   -8.1067   -4.4011   -3.0651 H   0  0  0  0  0  0  0  0  0  0  0  0
   -8.2544   -3.8690   -0.7462 H   0  0  0  0  0  0  0  0  0  0  0  0
   -4.4894   -5.0945    3.6731 H   0  0  0  0  0  0  0  0  0  0  0  0
   -5.9629   -7.5489    3.9889 H   0  0  0  0  0  0  0  0  0  0  0  0
   -2.3224   -6.2187    5.2950 H   0  0  0  0  0  0  0  0  0  0  0  0
   -5.3148   -7.9362    1.6666 H   0  0  0  0  0  0  0  0  0  0  0  0
   -4.4541   -8.8678    2.8623 H   0  0  0  0  0  0  0  0  0  0  0  0
   -3.8876   -5.2168    1.1617 H   0  0  0  0  0  0  0  0  0  0  0  0
   -2.1025   -4.4287    0.4988 H   0  0  0  0  0  0  0  0  0  0  0  0
    0.0407   -8.1884    1.4479 H   0  0  0  0  0  0  0  0  0  0  0  0
   -1.7647   -9.0684    2.2037 H   0  0  0  0  0  0  0  0  0  0  0  0
    1.8565   -5.9619   -1.0779 H   0  0  0  0  0  0  0  0  0  0  0  0
    0.1878   -5.7310   -1.6476 H   0  0  0  0  0  0  0  0  0  0  0  0
    0.1806   -3.4287   -0.7972 H   0  0  0  0  0  0  0  0  0  0  0  0
    1.4531   -3.6464   -2.0785 H   0  0  0  0  0  0  0  0  0  0  0  0
    3.0104   -4.3325   -0.0725 H   0  0  0  0  0  0  0  0  0  0  0  0
    1.7031   -3.6837    0.9471 H   0  0  0  0  0  0  0  0  0  0  0  0
    2.6404   -1.6351    0.7479 H   0  0  0  0  0  0  0  0  0  0  0  0
    2.1267   -1.5826   -0.9684 H   0  0  0  0  0  0  0  0  0  0  0  0
    4.4712   -3.0299   -1.2132 H   0  0  0  0  0  0  0  0  0  0  0  0
    4.3303   -0.9643   -2.4493 H   0  0  0  0  0  0  0  0  0  0  0  0
    3.9022   -0.0056   -0.9395 H   0  0  0  0  0  0  0  0  0  0  0  0
    6.4836   -1.1302   -1.9604 H   0  0  0  0  0  0  0  0  0  0  0  0
    6.4647    2.0352   -2.7231 H   0  0  0  0  0  0  0  0  0  0  0  0
    6.0100    3.1629   -0.0394 H   0  0  0  0  0  0  0  0  0  0  0  0
    8.5182    3.4748   -1.7586 H   0  0  0  0  0  0  0  0  0  0  0  0
    8.2983    2.8735   -0.0389 H   0  0  0  0  0  0  0  0  0  0  0  0
    8.7760    5.6375   -2.1820 H   0  0  0  0  0  0  0  0  0  0  0  0
    9.2238    7.9836   -1.3909 H   0  0  0  0  0  0  0  0  0  0  0  0
    9.2666    9.5442    0.3224 H   0  0  0  0  0  0  0  0  0  0  0  0
    8.9119   10.2133    2.7178 H   0  0  0  0  0  0  0  0  0  0  0  0
    8.1170    8.4935    4.2958 H   0  0  0  0  0  0  0  0  0  0  0  0
    7.6499    6.2124    3.5366 H   0  0  0  0  0  0  0  0  0  0  0  0
    7.6022    4.5633    1.7353 H   0  0  0  0  0  0  0  0  0  0  0  0
    6.4667    5.9734   -2.9834 H   0  0  0  0  0  0  0  0  0  0  0  0
    4.0988    6.9630   -2.3227 H   0  0  0  0  0  0  0  0  0  0  0  0
    6.5834    7.7332   -2.3364 H   0  0  0  0  0  0  0  0  0  0  0  0
    2.7437    8.9874   -1.3004 H   0  0  0  0  0  0  0  0  0  0  0  0
    4.8512   10.3071    0.4620 H   0  0  0  0  0  0  0  0  0  0  0  0
    3.0894   10.0422    0.9047 H   0  0  0  0  0  0  0  0  0  0  0  0
    2.2935   11.5685   -0.9062 H   0  0  0  0  0  0  0  0  0  0  0  0
    4.0831   11.9170   -1.3485 H   0  0  0  0  0  0  0  0  0  0  0  0
    4.2260    7.4317    0.0784 H   0  0  0  0  0  0  0  0  0  0  0  0
    5.2387    6.1067    0.2704 H   0  0  0  0  0  0  0  0  0  0  0  0
    1.7023    6.8332   -1.5992 H   0  0  0  0  0  0  0  0  0  0  0  0
   -0.0068    5.4828   -1.5807 H   0  0  0  0  0  0  0  0  0  0  0  0
    2.2634    2.5292    0.8406 H   0  0  0  0  0  0  0  0  0  0  0  0
    3.9578    3.7441    0.8182 H   0  0  0  0  0  0  0  0  0  0  0  0
   -0.1385    2.2068   -2.2921 H   0  0  0  0  0  0  0  0  0  0  0  0
    0.3900    1.1855   -0.9521 H   0  0  0  0  0  0  0  0  0  0  0  0
   -3.4140    2.7496   -1.3110 H   0  0  0  0  0  0  0  0  0  0  0  0
    9.1382   -0.6847    0.7180 H   0  0  0  0  0  0  0  0  0  0  0  0
   10.6257   -2.1716    1.6130 H   0  0  0  0  0  0  0  0  0  0  0  0
   10.6858   -4.7228    2.7850 H   0  0  0  0  0  0  0  0  0  0  0  0
   12.3108   -3.2683    1.2127 H   0  0  0  0  0  0  0  0  0  0  0  0
   12.5748   -4.8863    0.4721 H   0  0  0  0  0  0  0  0  0  0  0  0
   12.9631   -4.6207    2.2199 H   0  0  0  0  0  0  0  0  0  0  0  0
   11.4802   -6.7538    1.7500 H   0  0  0  0  0  0  0  0  0  0  0  0
   10.3392   -7.0479   -0.6631 H   0  0  0  0  0  0  0  0  0  0  0  0
   12.0337   -6.6666   -0.2974 H   0  0  0  0  0  0  0  0  0  0  0  0
   10.9138   -5.3156   -0.6755 H   0  0  0  0  0  0  0  0  0  0  0  0
    9.6867   -3.4847   -2.1656 H   0  0  0  0  0  0  0  0  0  0  0  0
    7.9185   -3.0860   -1.8487 H   0  0  0  0  0  0  0  0  0  0  0  0
    8.8422   -2.2247   -3.0933 H   0  0  0  0  0  0  0  0  0  0  0  0
   11.0934   -2.8532   -0.8169 H   0  0  0  0  0  0  0  0  0  0  0  0
   11.3373   -1.0680   -0.3845 H   0  0  0  0  0  0  0  0  0  0  0  0
   11.2861   -1.6363   -2.0867 H   0  0  0  0  0  0  0  0  0  0  0  0
    9.1137    0.5453   -0.8955 H   0  0  0  0  0  0  0  0  0  0  0  0
   10.2116    0.1469   -2.2083 H   0  0  0  0  0  0  0  0  0  0  0  0
    8.5151   -0.1685   -2.5100 H   0  0  0  0  0  0  0  0  0  0  0  0
    5.1671   -2.9417    0.9960 H   0  0  0  0  0  0  0  0  0  0  0  0
    4.5875   -1.1934    1.2671 H   0  0  0  0  0  0  0  0  0  0  0  0
   -8.9862    0.9656    3.2669 H   0  0  0  0  0  0  0  0  0  0  0  0
  -10.2984    0.7035    2.1076 H   0  0  0  0  0  0  0  0  0  0  0  0
  -10.3805    2.0504    3.3923 H   0  0  0  0  0  0  0  0  0  0  0  0
   -9.1859    4.6085    1.7909 H   0  0  0  0  0  0  0  0  0  0  0  0
  -10.6241    3.7377    1.0404 H   0  0  0  0  0  0  0  0  0  0  0  0
  -10.3298    3.7809    2.8583 H   0  0  0  0  0  0  0  0  0  0  0  0
   -7.7766    3.3117    3.3111 H   0  0  0  0  0  0  0  0  0  0  0  0
   -7.2529    3.6375    1.6180 H   0  0  0  0  0  0  0  0  0  0  0  0
   -6.9625    2.0133    2.4316 H   0  0  0  0  0  0  0  0  0  0  0  0
  1  2  1  0
  2  3  1  0
  3  4  1  0
  3  5  1  0
  5  6  2  0
  5  7  1  0
  7  8  1  0
  8  9  1  0
  9 10  2  0
  9 11  1  0
 11 12  1  0
 12 13  1  0
 13 14  1  0
 14 15  1  0
 15 16  1  0
 16 17  2  0
 16 18  1  0
 18 19  1  0
 19 20  1  0
 20 21  1  0
 21 22  2  0
 22 23  1  0
 23 24  2  0
 24 25  1  0
 25 26  2  0
 26 27  1  0
 27 28  2  0
 28 29  1  0
 29 30  2  0
 19 31  1  0
 31 32  2  0
 31 33  1  0
 33 34  1  0
 34 35  1  0
 35 36  2  0
 35 37  1  0
 34 38  1  0
 38 39  1  0
 39 40  2  0
 40 41  1  0
 41 42  2  0
 42 43  1  0
 43 44  2  0
 42 45  1  0
 45 46  1  0
 46 47  1  0
 47 48  1  0
 48 49  1  0
 49 50  1  0
 50 51  1  0
 51 52  1  0
 52 53  1  0
 53 54  2  0
 53 55  1  0
 55 56  1  0
 56 57  1  0
 57 58  1  0
 58 59  2  0
 59 60  1  0
 60 61  2  0
 61 62  1  0
 62 63  2  0
 63 64  1  0
 64 65  2  0
 65 66  1  0
 66 67  2  0
 56 68  1  0
 68 69  2  0
 68 70  1  0
 70 71  1  0
 71 72  1  0
 72 73  1  0
 73 74  2  0
 73 75  2  0
 73 76  1  0
 76 77  1  0
 77 78  1  0
 71 79  1  0
 79 80  1  0
 80 81  2  0
 81 82  1  0
 82 83  2  0
 83 84  1  0
 84 85  2  0
 83 86  1  0
 86 87  1  0
 87 88  1  0
 88 89  2  0
 89 90  1  0
 90 91  1  0
 91 92  2  0
 52 93  1  0
 93 94  1  0
 94 95  2  0
 94 96  1  0
 96 97  1  0
 97 98  1  0
 98 99  2  0
 98100  1  0
100101  1  0
100102  1  0
102103  1  0
 96104  1  0
104105  1  0
104106  1  0
104107  1  0
 93108  1  0
  8109  1  0
109110  1  0
109111  1  0
109112  1  0
 15 11  1  0
 30 21  1  0
 44 39  1  0
108 50  1  0
 90 13  1  0
 29 24  1  0
 67 58  1  0
 78 76  1  0
 85 80  1  0
 92 88  1  0
 66 61  1  0
  1113  1  0
  1114  1  0
  1115  1  0
  2116  1  0
  3117  1  1
  4118  1  0
  4119  1  0
  4120  1  0
  7121  1  0
  8122  1  6
 12123  1  0
 12124  1  0
 13125  1  6
 14126  1  0
 14127  1  0
 15128  1  6
 18129  1  0
 19130  1  1
 20131  1  0
 20132  1  0
 22133  1  0
 23134  1  0
 25135  1  0
 26136  1  0
 27137  1  0
 28138  1  0
 30139  1  0
 33140  1  0
 34141  1  1
 37142  1  0
 38143  1  0
 38144  1  0
 40145  1  0
 41146  1  0
 43147  1  0
 44148  1  0
 46149  1  0
 46150  1  0
 47151  1  0
 47152  1  0
 48153  1  0
 48154  1  0
 49155  1  0
 49156  1  0
 50157  1  6
 51158  1  0
 51159  1  0
 52160  1  6
 55161  1  0
 56162  1  1
 57163  1  0
 57164  1  0
 59165  1  0
 60166  1  0
 62167  1  0
 63168  1  0
 64169  1  0
 65170  1  0
 67171  1  0
 70172  1  0
 71173  1  6
 72174  1  0
 76175  1  0
 77176  1  0
 77177  1  0
 78178  1  0
 78179  1  0
 79180  1  0
 79181  1  0
 81182  1  0
 82183  1  0
 84184  1  0
 85185  1  0
 87186  1  0
 87187  1  0
 89188  1  0
 96189  1  1
 97190  1  0
100191  1  1
101192  1  0
101193  1  0
101194  1  0
102195  1  0
103196  1  0
103197  1  0
103198  1  0
105199  1  0
105200  1  0
105201  1  0
106202  1  0
106203  1  0
106204  1  0
107205  1  0
107206  1  0
107207  1  0
108208  1  0
108209  1  0
110210  1  0
110211  1  0
110212  1  0
111213  1  0
111214  1  0
111215  1  0
112216  1  0
112217  1  0
112218  1  0
M  END
$$$$
