@<TRIPOS>MOLECULE
*****
 218 228 0 0 0
SMALL
GASTEIGER

@<TRIPOS>ATOM
      1 C         -13.9471    3.5919   -3.1972 C.3     0  UNK0       -0.0151
      2 N         -12.5374    3.5244   -2.8803 N.3     1  ALA1       -0.3089
      3 CA        -12.3709    2.8730   -1.6210 C.3     1  ALA1        0.0817
      4 CB        -12.9938    1.4957   -1.5448 C.3     1  ALA1       -0.0412
      5 C         -10.9347    2.8122   -1.1956 C.2     1  ALA1        0.2304
      6 O         -10.0515    3.4003   -1.8720 O.2     1  ALA1       -0.2741
      7 N         -10.5167    2.1058   -0.0492 N.am    2  UNK2       -0.3022
      8 C          -9.0595    2.0578    0.3440 C.3     2  UNK2        0.1045
      9 C          -8.5700    0.6995    0.0784 C.2     2  UNK2        0.2371
     10 O          -9.4945   -0.1840   -0.0874 O.2     2  UNK2       -0.2735
     11 N          -7.2603    0.2180   -0.0318 N.am    3  UNK3       -0.2863
     12 C          -5.9747    0.8677    0.0847 C.3     3  UNK3        0.0380
     13 C          -5.3037    0.3988   -1.1666 C.3     3  UNK3        0.0722
     14 C          -5.7038   -1.0489   -1.2606 C.3     3  UNK3       -0.0017
     15 C          -6.9217   -1.1819   -0.3935 C.3     3  UNK3        0.1043
     16 C          -6.7128   -2.0087    0.8039 C.2     3  UNK3        0.2342
     17 O          -6.5867   -1.3431    1.9207 O.2     3  UNK3       -0.2738
     18 N          -6.6144   -3.3837    1.0362 N.am    4  UNK4       -0.3022
     19 C          -7.1556   -4.0123    2.3056 C.3     4  UNK4        0.1034
     20 C          -8.6223   -4.2652    1.9518 C.3     4  UNK4       -0.0006
     21 C          -8.8234   -5.2019    0.8272 C.ar    4  UNK4       -0.0445
     22 C          -9.2479   -6.5153    1.1702 C.ar    4  UNK4       -0.0579
     23 C          -9.3709   -7.3725    0.1157 C.ar    4  UNK4       -0.0538
     24 C          -9.1183   -7.0396   -1.1843 C.ar    4  UNK4       -0.0179
     25 C          -9.2402   -7.9404   -2.2300 C.ar    4  UNK4       -0.0540
     26 C          -8.9705   -7.6143   -3.5350 C.ar    4  UNK4       -0.0612
     27 C          -8.5631   -6.3585   -3.8668 C.ar    4  UNK4       -0.0612
     28 C          -8.4269   -5.4097   -2.8407 C.ar    4  UNK4       -0.0540
     29 C          -8.7003   -5.7543   -1.5434 C.ar    4  UNK4       -0.0176
     30 C          -8.5732   -4.8739   -0.4626 C.ar    4  UNK4       -0.0508
     31 C          -6.3667   -5.2302    2.4792 C.2     4  UNK4        0.2343
     32 O          -6.7659   -6.2241    1.7095 O.2     4  UNK4       -0.2738
     33 N          -5.2738   -5.6398    3.2542 N.am    5  UNK5       -0.3006
     34 C          -5.0513   -7.0744    3.5979 C.3     5  UNK5        0.1242
     35 C          -4.0229   -7.1706    4.6423 C.2     5  UNK5        0.3256
     36 O          -3.7152   -8.3061    5.0894 O.2     5  UNK5       -0.2489
     37 O          -3.3336   -6.1116    5.1981 O.3     5  UNK5       -0.4793
     38 C          -4.4797   -7.8265    2.3995 C.3     5  UNK5        0.0012
     39 C          -3.2015   -7.3091    1.8454 C.ar    5  UNK5       -0.0449
     40 C          -3.1373   -6.0420    1.3356 C.ar    5  UNK5       -0.0550
     41 C          -1.9015   -5.4918    0.8422 C.ar    5  UNK5       -0.0197
     42 C          -0.7410   -6.1832    0.8515 C.ar    5  UNK5        0.1205
     43 C          -0.8123   -7.4543    1.3616 C.ar    5  UNK5       -0.0197
     44 C          -2.0048   -8.0418    1.8575 C.ar    5  UNK5       -0.0550
     45 O           0.4722   -5.6939    0.3952 O.3     5  UNK5       -0.4920
     46 C           0.9386   -5.4186   -0.8722 C.3     5  UNK5        0.0896
     47 C           1.1671   -3.9145   -1.0734 C.3     5  UNK5       -0.0186
     48 C           2.2192   -3.5451   -0.0442 C.3     5  UNK5       -0.0497
     49 C           2.7331   -2.1623   -0.2373 C.3     5  UNK5       -0.0486
     50 C           4.1738   -2.1150   -0.6486 C.3     5  UNK5       -0.0230
     51 C           4.4873   -0.8510   -1.3783 C.3     5  UNK5       -0.0215
     52 C           5.9815   -0.6482   -1.0993 C.3     5  UNK5        0.1025
     53 C           6.2743    0.7957   -0.9019 C.2     5  UNK5        0.2342
     54 O           6.4590    1.0626    0.3721 O.2     5  UNK5       -0.2738
     55 N           6.3942    1.9030   -1.6940 N.am    5  UNK5       -0.3022
     56 C           6.4559    3.2805   -1.0860 C.3     5  UNK5        0.1034
     57 C           7.8930    3.5709   -0.8286 C.3     5  UNK5       -0.0006
     58 C           8.1599    4.9212   -0.2844 C.ar    5  UNK5       -0.0445
     59 C           8.6212    5.9339   -1.1515 C.ar    5  UNK5       -0.0579
     60 C           8.8593    7.1985   -0.7036 C.ar    5  UNK5       -0.0538
     61 C           8.6593    7.5303    0.6088 C.ar    5  UNK5       -0.0179
     62 C           8.9019    8.8061    1.0549 C.ar    5  UNK5       -0.0540
     63 C           8.7246    9.2161    2.3776 C.ar    5  UNK5       -0.0612
     64 C           8.2775    8.2380    3.2318 C.ar    5  UNK5       -0.0612
     65 C           8.0172    6.9407    2.8249 C.ar    5  UNK5       -0.0540
     66 C           8.2041    6.5780    1.5185 C.ar    5  UNK5       -0.0176
     67 C           7.9753    5.3048    1.0150 C.ar    5  UNK5       -0.0508
     68 C           5.7320    4.2578   -1.8670 C.2     5  UNK5        0.2349
     69 O           4.6607    3.7537   -2.4533 O.2     5  UNK5       -0.2737
     70 N           5.7915    5.5991   -2.2197 N.am    5  UNK5       -0.2967
     71 C           5.0010    6.6811   -1.7321 C.3     5  UNK5        0.0971
     72 N           5.7827    7.9099   -1.6771 N.3     5  UNK5       -0.1739
     73 S           4.9912    9.3099   -2.2170 S.O2    5  UNK5        0.0338
     74 O           5.9692   10.4454   -2.0549 O.2     5  UNK5       -0.1579
     75 O           4.5729    9.2976   -3.6472 O.2     5  UNK5       -0.1579
     76 C           3.5646    9.7034   -1.2376 C.3     5  UNK5        0.0929
     77 C           3.8177   10.3250    0.1191 C.3     5  UNK5       -0.0275
     78 C           3.3098   11.1837   -0.9748 C.3     5  UNK5       -0.0275
     79 C           4.3931    6.4020   -0.3594 C.3     5  UNK5        0.0056
     80 C           3.1592    5.5329   -0.3933 C.ar    5  UNK5       -0.0441
     81 C           1.9958    5.8842   -1.0213 C.ar    5  UNK5       -0.0550
     82 C           0.8595    5.0264   -1.0191 C.ar    5  UNK5       -0.0197
     83 C           0.8910    3.8101   -0.3841 C.ar    5  UNK5        0.1211
     84 C           2.0231    3.4573    0.2354 C.ar    5  UNK5       -0.0197
     85 C           3.1847    4.3172    0.2403 C.ar    5  UNK5       -0.0550
     86 O          -0.2508    2.9703   -0.3984 O.3     5  UNK5       -0.4858
     87 C          -0.4572    1.9123   -1.2843 C.3     5  UNK5        0.1346
     88 C          -1.7623    1.2158   -1.2021 C.ar    5  UNK5        0.1199
     89 C          -3.0621    1.6447   -1.2341 C.ar    5  UNK5        0.0524
     90 N          -3.8363    0.5697   -1.1607 N.ar    3  UNK3       -0.2467
     91 N          -3.0456   -0.5445   -1.0778 N.ar    3  UNK3       -0.0650
     92 N          -1.8089   -0.1821   -1.1014 N.ar    5  UNK5       -0.1310
     93 N           6.3310   -1.4831    0.0323 N.am    5  UNK5       -0.2881
     94 C           7.5200   -1.9258    0.5984 C.2     5  UNK5        0.2370
     95 O           7.3762   -2.6783    1.6640 O.2     5  UNK5       -0.2735
     96 C           8.9146   -1.7405    0.2632 C.3     5  UNK5        0.1045
     97 N           9.8529   -2.5633    0.9916 N.am    5  UNK5       -0.3022
     98 C           9.8284   -3.9851    0.9435 C.2     5  UNK5        0.2304
     99 O           8.9399   -4.5331    0.2479 O.2     5  UNK5       -0.2741
    100 C          10.8422   -4.8119    1.6947 C.3     5  UNK5        0.0817
    101 C          12.2523   -4.3678    1.4132 C.3     5  UNK5       -0.0412
    102 N          10.7240   -6.2021    1.2569 N.3     5  UNK5       -0.3089
    103 C          10.9945   -6.2968   -0.1697 C.3     5  UNK5       -0.0151
    104 C           9.3409   -1.5841   -1.1437 C.3     5  UNK5       -0.0108
    105 C           8.9361   -2.6894   -2.0609 C.3     5  UNK5       -0.0579
    106 C          10.9128   -1.7973   -1.0559 C.3     5  UNK5       -0.0579
    107 C           9.2725   -0.1973   -1.7075 C.3     5  UNK5       -0.0579
    108 C           5.0205   -1.9154    0.5939 C.3     5  UNK5        0.0184
    109 C          -9.0174    2.4611    1.7861 C.3     2  UNK2       -0.0108
    110 C          -9.7874    1.4940    2.6670 C.3     2  UNK2       -0.0579
    111 C          -9.8713    3.7692    1.8471 C.3     2  UNK2       -0.0579
    112 C          -7.6796    2.8274    2.2768 C.3     2  UNK2       -0.0579
    113 H         -14.5687    3.8667   -2.3123 H       0  UNK0        0.0388
    114 H         -14.3442    2.5856   -3.5278 H       0  UNK0        0.0388
    115 H         -14.1832    4.3354   -3.9942 H       0  UNK0        0.0388
    116 H         -12.2109    4.5055   -2.7729 H       1  ALA1        0.1223
    117 HA        -12.8874    3.5033   -0.8434 H       1  ALA1        0.0553
    118 HB1       -12.5078    0.7583   -2.1806 H       1  ALA1        0.0249
    119 HB2       -12.9522    1.2074   -0.4503 H       1  ALA1        0.0249
    120 HB3       -14.0943    1.6237   -1.7565 H       1  ALA1        0.0249
    121 H         -11.2131    1.6137    0.5316 H       2  UNK2        0.1495
    122 H          -8.5790    2.8250   -0.2674 H       2  UNK2        0.0600
    123 H          -5.4309    0.4179    0.9329 H       3  UNK3        0.0486
    124 H          -5.9957    1.9463    0.1966 H       3  UNK3        0.0486
    125 H          -5.7825    0.8306   -2.0984 H       3  UNK3        0.0562
    126 H          -4.8840   -1.6638   -0.8078 H       3  UNK3        0.0309
    127 H          -5.8881   -1.3697   -2.3074 H       3  UNK3        0.0309
    128 H          -7.8076   -1.4880   -1.0160 H       3  UNK3        0.0597
    129 H          -6.2052   -4.1537    0.4741 H       4  UNK4        0.1495
    130 H          -7.1759   -3.2705    3.0919 H       4  UNK4        0.0598
    131 H          -9.0663   -3.2954    1.6600 H       4  UNK4        0.0336
    132 H          -9.1785   -4.6216    2.8434 H       4  UNK4        0.0336
    133 H          -9.4333   -6.7350    2.2063 H       4  UNK4        0.0620
    134 H          -9.7068   -8.4012    0.3370 H       4  UNK4        0.0624
    135 H          -9.5696   -8.9364   -1.9769 H       4  UNK4        0.0624
    136 H          -9.0731   -8.3320   -4.3525 H       4  UNK4        0.0618
    137 H          -8.3381   -6.0699   -4.9002 H       4  UNK4        0.0618
    138 H          -8.1067   -4.4011   -3.0651 H       4  UNK4        0.0624
    139 H          -8.2544   -3.8690   -0.7462 H       4  UNK4        0.0626
    140 H          -4.4894   -5.0945    3.6731 H       5  UNK5        0.1496
    141 H          -5.9629   -7.5489    3.9889 H       5  UNK5        0.0618
    142 H          -2.3224   -6.2187    5.2950 H       5  UNK5        0.2951
    143 H          -5.3148   -7.9362    1.6666 H       5  UNK5        0.0337
    144 H          -4.4541   -8.8678    2.8623 H       5  UNK5        0.0337
    145 H          -3.8876   -5.2168    1.1617 H       5  UNK5        0.0621
    146 H          -2.1025   -4.4287    0.4988 H       5  UNK5        0.0654
    147 H           0.0407   -8.1884    1.4479 H       5  UNK5        0.0654
    148 H          -1.7647   -9.0684    2.2037 H       5  UNK5        0.0621
    149 H           1.8565   -5.9619   -1.0779 H       5  UNK5        0.0696
    150 H           0.1878   -5.7310   -1.6476 H       5  UNK5        0.0696
    151 H           0.1806   -3.4287   -0.7972 H       5  UNK5        0.0298
    152 H           1.4531   -3.6464   -2.0785 H       5  UNK5        0.0298
    153 H           3.0104   -4.3325   -0.0725 H       5  UNK5        0.0266
    154 H           1.7031   -3.6837    0.9471 H       5  UNK5        0.0266
    155 H           2.6404   -1.6351    0.7479 H       5  UNK5        0.0268
    156 H           2.1267   -1.5826   -0.9684 H       5  UNK5        0.0268
    157 H           4.4712   -3.0299   -1.2132 H       5  UNK5        0.0317
    158 H           4.3303   -0.9643   -2.4493 H       5  UNK5        0.0291
    159 H           3.9022   -0.0056   -0.9395 H       5  UNK5        0.0291
    160 H           6.4836   -1.1302   -1.9604 H       5  UNK5        0.0597
    161 H           6.4647    2.0352   -2.7231 H       5  UNK5        0.1495
    162 H           6.0100    3.1629   -0.0394 H       5  UNK5        0.0598
    163 H           8.5182    3.4748   -1.7586 H       5  UNK5        0.0336
    164 H           8.2983    2.8735   -0.0389 H       5  UNK5        0.0336
    165 H           8.7760    5.6375   -2.1820 H       5  UNK5        0.0620
    166 H           9.2238    7.9836   -1.3909 H       5  UNK5        0.0624
    167 H           9.2666    9.5442    0.3224 H       5  UNK5        0.0624
    168 H           8.9119   10.2133    2.7178 H       5  UNK5        0.0618
    169 H           8.1170    8.4935    4.2958 H       5  UNK5        0.0618
    170 H           7.6499    6.2124    3.5366 H       5  UNK5        0.0624
    171 H           7.6022    4.5633    1.7353 H       5  UNK5        0.0626
    172 H           6.4667    5.9734   -2.9834 H       5  UNK5        0.1503
    173 H           4.0988    6.9630   -2.3227 H       5  UNK5        0.0686
    174 H           6.5834    7.7332   -2.3364 H       5  UNK5        0.1497
    175 H           2.7437    8.9874   -1.3004 H       5  UNK5        0.0551
    176 H           4.8512   10.3071    0.4620 H       5  UNK5        0.0285
    177 H           3.0894   10.0422    0.9047 H       5  UNK5        0.0285
    178 H           2.2935   11.5685   -0.9062 H       5  UNK5        0.0285
    179 H           4.0831   11.9170   -1.3485 H       5  UNK5        0.0285
    180 H           4.2260    7.4317    0.0784 H       5  UNK5        0.0345
    181 H           5.2387    6.1067    0.2704 H       5  UNK5        0.0345
    182 H           1.7023    6.8332   -1.5992 H       5  UNK5        0.0621
    183 H          -0.0068    5.4828   -1.5807 H       5  UNK5        0.0654
    184 H           2.2634    2.5292    0.8406 H       5  UNK5        0.0654
    185 H           3.9578    3.7441    0.8182 H       5  UNK5        0.0621
    186 H          -0.1385    2.2068   -2.2921 H       5  UNK5        0.0764
    187 H           0.3900    1.1855   -0.9521 H       5  UNK5        0.0764
    188 H          -3.4140    2.7496   -1.3110 H       5  UNK5        0.0846
    189 H           9.1382   -0.6847    0.7180 H       5  UNK5        0.0600
    190 H          10.6257   -2.1716    1.6130 H       5  UNK5        0.1495
    191 H          10.6858   -4.7228    2.7850 H       5  UNK5        0.0553
    192 H          12.3108   -3.2683    1.2127 H       5  UNK5        0.0249
    193 H          12.5748   -4.8863    0.4721 H       5  UNK5        0.0249
    194 H          12.9631   -4.6207    2.2199 H       5  UNK5        0.0249
    195 H          11.4802   -6.7538    1.7500 H       5  UNK5        0.1223
    196 H          10.3392   -7.0479   -0.6631 H       5  UNK5        0.0388
    197 H          12.0337   -6.6666   -0.2974 H       5  UNK5        0.0388
    198 H          10.9138   -5.3156   -0.6755 H       5  UNK5        0.0388
    199 H           9.6867   -3.4847   -2.1656 H       5  UNK5        0.0236
    200 H           7.9185   -3.0860   -1.8487 H       5  UNK5        0.0236
    201 H           8.8422   -2.2247   -3.0933 H       5  UNK5        0.0236
    202 H          11.0934   -2.8532   -0.8169 H       5  UNK5        0.0236
    203 H          11.3373   -1.0680   -0.3845 H       5  UNK5        0.0236
    204 H          11.2861   -1.6363   -2.0867 H       5  UNK5        0.0236
    205 H           9.1137    0.5453   -0.8955 H       5  UNK5        0.0236
    206 H          10.2116    0.1469   -2.2083 H       5  UNK5        0.0236
    207 H           8.5151   -0.1685   -2.5100 H       5  UNK5        0.0236
    208 H           5.1671   -2.9417    0.9960 H       5  UNK5        0.0467
    209 H           4.5875   -1.1934    1.2671 H       5  UNK5        0.0467
    210 H          -8.9862    0.9656    3.2669 H       2  UNK2        0.0236
    211 H         -10.2984    0.7035    2.1076 H       2  UNK2        0.0236
    212 H         -10.3805    2.0504    3.3923 H       2  UNK2        0.0236
    213 H          -9.1859    4.6085    1.7909 H       2  UNK2        0.0236
    214 H         -10.6241    3.7377    1.0404 H       2  UNK2        0.0236
    215 H         -10.3298    3.7809    2.8583 H       2  UNK2        0.0236
    216 H          -7.7766    3.3117    3.3111 H       2  UNK2        0.0236
    217 H          -7.2529    3.6375    1.6180 H       2  UNK2        0.0236
    218 H          -6.9625    2.0133    2.4316 H       2  UNK2        0.0236
@<TRIPOS>BOND
     1     1     2    1
     2     2     3    1
     3     3     4    1
     4     3     5    1
     5     5     6    2
     6     5     7   am
     7     7     8    1
     8     8     9    1
     9     9    10    2
    10     9    11   am
    11    11    12    1
    12    12    13    1
    13    13    14    1
    14    14    15    1
    15    15    16    1
    16    16    17    2
    17    16    18   am
    18    18    19    1
    19    19    20    1
    20    20    21    1
    21    21    22   ar
    22    22    23   ar
    23    23    24   ar
    24    24    25   ar
    25    25    26   ar
    26    26    27   ar
    27    27    28   ar
    28    28    29   ar
    29    29    30   ar
    30    19    31    1
    31    31    32    2
    32    31    33   am
    33    33    34    1
    34    34    35    1
    35    35    36    2
    36    35    37    1
    37    34    38    1
    38    38    39    1
    39    39    40   ar
    40    40    41   ar
    41    41    42   ar
    42    42    43   ar
    43    43    44   ar
    44    42    45    1
    45    45    46    1
    46    46    47    1
    47    47    48    1
    48    48    49    1
    49    49    50    1
    50    50    51    1
    51    51    52    1
    52    52    53    1
    53    53    54    2
    54    53    55   am
    55    55    56    1
    56    56    57    1
    57    57    58    1
    58    58    59   ar
    59    59    60   ar
    60    60    61   ar
    61    61    62   ar
    62    62    63   ar
    63    63    64   ar
    64    64    65   ar
    65    65    66   ar
    66    66    67   ar
    67    56    68    1
    68    68    69    2
    69    68    70   am
    70    70    71    1
    71    71    72    1
    72    72    73    1
    73    73    74    2
    74    73    75    2
    75    73    76    1
    76    76    77    1
    77    77    78    1
    78    71    79    1
    79    79    80    1
    80    80    81   ar
    81    81    82   ar
    82    82    83   ar
    83    83    84   ar
    84    84    85   ar
    85    83    86    1
    86    86    87    1
    87    87    88    1
    88    88    89   ar
    89    89    90   ar
    90    90    91   ar
    91    91    92   ar
    92    52    93    1
    93    93    94   am
    94    94    95    2
    95    94    96    1
    96    96    97    1
    97    97    98   am
    98    98    99    2
    99    98   100    1
   100   100   101    1
   101   100   102    1
   102   102   103    1
   103    96   104    1
   104   104   105    1
   105   104   106    1
   106   104   107    1
   107    93   108    1
   108     8   109    1
   109   109   110    1
   110   109   111    1
   111   109   112    1
   112    15    11    1
   113    30    21   ar
   114    44    39   ar
   115   108    50    1
   116    90    13    1
   117    29    24   ar
   118    67    58   ar
   119    78    76    1
   120    85    80   ar
   121    92    88   ar
   122    66    61   ar
   123     1   113    1
   124     1   114    1
   125     1   115    1
   126     2   116    1
   127     3   117    1
   128     4   118    1
   129     4   119    1
   130     4   120    1
   131     7   121    1
   132     8   122    1
   133    12   123    1
   134    12   124    1
   135    13   125    1
   136    14   126    1
   137    14   127    1
   138    15   128    1
   139    18   129    1
   140    19   130    1
   141    20   131    1
   142    20   132    1
   143    22   133    1
   144    23   134    1
   145    25   135    1
   146    26   136    1
   147    27   137    1
   148    28   138    1
   149    30   139    1
   150    33   140    1
   151    34   141    1
   152    37   142    1
   153    38   143    1
   154    38   144    1
   155    40   145    1
   156    41   146    1
   157    43   147    1
   158    44   148    1
   159    46   149    1
   160    46   150    1
   161    47   151    1
   162    47   152    1
   163    48   153    1
   164    48   154    1
   165    49   155    1
   166    49   156    1
   167    50   157    1
   168    51   158    1
   169    51   159    1
   170    52   160    1
   171    55   161    1
   172    56   162    1
   173    57   163    1
   174    57   164    1
   175    59   165    1
   176    60   166    1
   177    62   167    1
   178    63   168    1
   179    64   169    1
   180    65   170    1
   181    67   171    1
   182    70   172    1
   183    71   173    1
   184    72   174    1
   185    76   175    1
   186    77   176    1
   187    77   177    1
   188    78   178    1
   189    78   179    1
   190    79   180    1
   191    79   181    1
   192    81   182    1
   193    82   183    1
   194    84   184    1
   195    85   185    1
   196    87   186    1
   197    87   187    1
   198    89   188    1
   199    96   189    1
   200    97   190    1
   201   100   191    1
   202   101   192    1
   203   101   193    1
   204   101   194    1
   205   102   195    1
   206   103   196    1
   207   103   197    1
   208   103   198    1
   209   105   199    1
   210   105   200    1
   211   105   201    1
   212   106   202    1
   213   106   203    1
   214   106   204    1
   215   107   205    1
   216   107   206    1
   217   107   207    1
   218   108   208    1
   219   108   209    1
   220   110   210    1
   221   110   211    1
   222   110   212    1
   223   111   213    1
   224   111   214    1
   225   111   215    1
   226   112   216    1
   227   112   217    1
   228   112   218    1
