@<TRIPOS>MOLECULE
*****
 55 58 0 0 0
SMALL
GASTEIGER

@<TRIPOS>ATOM
      1 O          -3.7255    0.2889    1.5630 O.2     1  UNL1       -0.2523
      2 C          -3.2479    0.7894    0.5106 C.2     1  UNL1        0.3065
      3 N          -4.1132    0.8284   -0.6027 N.am    1  UNL1       -0.2693
      4 C          -5.4566    0.3334   -0.5651 C.ar    1  UNL1        0.0363
      5 C          -5.7243   -0.9771   -0.9034 C.ar    1  UNL1       -0.0376
      6 C          -7.0017   -1.4671   -0.8709 C.ar    1  UNL1       -0.0232
      7 C          -8.0522   -0.6296   -0.4901 C.ar    1  UNL1        0.1417
      8 F          -9.3202   -1.0811   -0.4481 F       1  UNL1       -0.2040
      9 C          -7.7868    0.6726   -0.1540 C.ar    1  UNL1        0.0778
     10 CL         -9.0887    1.7311    0.3253 Cl      1  UNL1       -0.0805
     11 C          -6.4803    1.1541   -0.1927 C.ar    1  UNL1       -0.0193
     12 N          -1.9154    1.2581    0.5382 N.am    1  UNL1       -0.2829
     13 C          -1.3009    1.8307   -0.6326 C.3     1  UNL1        0.0289
     14 C           0.1623    1.3675   -0.6442 C.3     1  UNL1        0.0148
     15 N           0.3565    0.2280    0.1493 N.3     1  UNL1       -0.2991
     16 C           0.8655   -0.9530   -0.3973 C.3     1  UNL1        0.0030
     17 C           2.3285   -0.7989   -0.8179 C.3     1  UNL1       -0.0154
     18 C           2.8504   -2.0865   -1.4018 C.3     1  UNL1       -0.0467
     19 C           3.6864   -2.8114   -0.3556 C.3     1  UNL1       -0.0399
     20 C           4.9006   -1.9265   -0.0893 C.3     1  UNL1       -0.0008
     21 N           4.4975   -0.6133    0.3384 N.3     1  UNL1       -0.2991
     22 C           5.1172    0.3706   -0.4935 C.3     1  UNL1        0.0105
     23 C           4.9081    1.8204   -0.3260 C.3     1  UNL1       -0.0359
     24 C           6.1277    1.2527    0.2682 C.3     1  UNL1       -0.0359
     25 C           3.0832   -0.4344    0.4541 C.3     1  UNL1        0.0032
     26 C           0.0988    0.3173    1.5337 C.3     1  UNL1        0.0148
     27 C          -1.1423    1.1779    1.7538 C.3     1  UNL1        0.0289
     28 H          -3.7453    1.2398   -1.4857 H       1  UNL1        0.1564
     29 H          -4.8989   -1.6373   -1.2040 H       1  UNL1        0.0637
     30 H          -7.2338   -2.4757   -1.1281 H       1  UNL1        0.0647
     31 H          -6.2269    2.1779    0.0659 H       1  UNL1        0.0652
     32 H          -1.7365    1.4071   -1.5749 H       1  UNL1        0.0478
     33 H          -1.3341    2.9340   -0.6403 H       1  UNL1        0.0478
     34 H           0.4903    1.2956   -1.6851 H       1  UNL1        0.0442
     35 H           0.7622    2.2106   -0.1800 H       1  UNL1        0.0442
     36 H           0.2675   -1.4088   -1.2142 H       1  UNL1        0.0430
     37 H           0.8885   -1.7328    0.4130 H       1  UNL1        0.0430
     38 H           2.4762   -0.0015   -1.5472 H       1  UNL1        0.0325
     39 H           2.0635   -2.7324   -1.8231 H       1  UNL1        0.0269
     40 H           3.5568   -1.8867   -2.2540 H       1  UNL1        0.0269
     41 H           4.0673   -3.7338   -0.8156 H       1  UNL1        0.0278
     42 H           3.0992   -2.9815    0.5672 H       1  UNL1        0.0278
     43 H           5.5882   -2.3632    0.6469 H       1  UNL1        0.0427
     44 H           5.4592   -1.8777   -1.0667 H       1  UNL1        0.0427
     45 H           5.4495   -0.0053   -1.4996 H       1  UNL1        0.0462
     46 H           5.0609    2.4356   -1.2532 H       1  UNL1        0.0281
     47 H           4.1196    2.2364    0.3199 H       1  UNL1        0.0281
     48 H           7.1148    1.3164   -0.2093 H       1  UNL1        0.0281
     49 H           6.1546    1.1795    1.3689 H       1  UNL1        0.0281
     50 H           2.8934    0.6382    0.6296 H       1  UNL1        0.0430
     51 H           2.6584   -1.0051    1.2887 H       1  UNL1        0.0430
     52 H          -0.0455   -0.6572    2.0343 H       1  UNL1        0.0442
     53 H           0.9618    0.8553    2.0297 H       1  UNL1        0.0442
     54 H          -0.8273    2.2021    2.0873 H       1  UNL1        0.0478
     55 H          -1.7107    0.7281    2.5907 H       1  UNL1        0.0478
@<TRIPOS>BOND
     1     1     2    2
     2     2     3   am
     3     3     4    1
     4     4     5   ar
     5     5     6   ar
     6     6     7   ar
     7     7     8    1
     8     7     9   ar
     9     9    10    1
    10     9    11   ar
    11     2    12   am
    12    12    13    1
    13    13    14    1
    14    14    15    1
    15    15    16    1
    16    16    17    1
    17    17    18    1
    18    18    19    1
    19    19    20    1
    20    20    21    1
    21    21    22    1
    22    22    23    1
    23    23    24    1
    24    21    25    1
    25    15    26    1
    26    26    27    1
    27    11     4   ar
    28    27    12    1
    29    25    17    1
    30    24    22    1
    31     3    28    1
    32     5    29    1
    33     6    30    1
    34    11    31    1
    35    13    32    1
    36    13    33    1
    37    14    34    1
    38    14    35    1
    39    16    36    1
    40    16    37    1
    41    17    38    1
    42    18    39    1
    43    18    40    1
    44    19    41    1
    45    19    42    1
    46    20    43    1
    47    20    44    1
    48    22    45    1
    49    23    46    1
    50    23    47    1
    51    24    48    1
    52    24    49    1
    53    25    50    1
    54    25    51    1
    55    26    52    1
    56    26    53    1
    57    27    54    1
    58    27    55    1
