
     RDKit          3D

 55 58  0  0  0  0  0  0  0  0999 V2000
   -3.7255    0.2889    1.5630 O   0  0  0  0  0  0  0  0  0  0  0  0
   -3.2479    0.7894    0.5106 C   0  0  0  0  0  0  0  0  0  0  0  0
   -4.1132    0.8284   -0.6027 N   0  0  0  0  0  0  0  0  0  0  0  0
   -5.4566    0.3334   -0.5651 C   0  0  0  0  0  0  0  0  0  0  0  0
   -5.7243   -0.9771   -0.9034 C   0  0  0  0  0  0  0  0  0  0  0  0
   -7.0017   -1.4671   -0.8709 C   0  0  0  0  0  0  0  0  0  0  0  0
   -8.0522   -0.6296   -0.4901 C   0  0  0  0  0  0  0  0  0  0  0  0
   -9.3202   -1.0811   -0.4481 F   0  0  0  0  0  0  0  0  0  0  0  0
   -7.7868    0.6726   -0.1540 C   0  0  0  0  0  0  0  0  0  0  0  0
   -9.0887    1.7311    0.3253 Cl  0  0  0  0  0  0  0  0  0  0  0  0
   -6.4803    1.1541   -0.1927 C   0  0  0  0  0  0  0  0  0  0  0  0
   -1.9154    1.2581    0.5382 N   0  0  0  0  0  0  0  0  0  0  0  0
   -1.3009    1.8307   -0.6326 C   0  0  0  0  0  0  0  0  0  0  0  0
    0.1623    1.3675   -0.6442 C   0  0  0  0  0  0  0  0  0  0  0  0
    0.3565    0.2280    0.1493 N   0  0  0  0  0  0  0  0  0  0  0  0
    0.8655   -0.9530   -0.3973 C   0  0  0  0  0  0  0  0  0  0  0  0
    2.3285   -0.7989   -0.8179 C   0  0  2  0  0  0  0  0  0  0  0  0
    2.8504   -2.0865   -1.4018 C   0  0  0  0  0  0  0  0  0  0  0  0
    3.6864   -2.8114   -0.3556 C   0  0  0  0  0  0  0  0  0  0  0  0
    4.9006   -1.9265   -0.0893 C   0  0  0  0  0  0  0  0  0  0  0  0
    4.4975   -0.6133    0.3384 N   0  0  0  0  0  0  0  0  0  0  0  0
    5.1172    0.3706   -0.4935 C   0  0  0  0  0  0  0  0  0  0  0  0
    4.9081    1.8204   -0.3260 C   0  0  0  0  0  0  0  0  0  0  0  0
    6.1277    1.2527    0.2682 C   0  0  0  0  0  0  0  0  0  0  0  0
    3.0832   -0.4344    0.4541 C   0  0  0  0  0  0  0  0  0  0  0  0
    0.0988    0.3173    1.5337 C   0  0  0  0  0  0  0  0  0  0  0  0
   -1.1423    1.1779    1.7538 C   0  0  0  0  0  0  0  0  0  0  0  0
   -3.7453    1.2398   -1.4857 H   0  0  0  0  0  0  0  0  0  0  0  0
   -4.8989   -1.6373   -1.2040 H   0  0  0  0  0  0  0  0  0  0  0  0
   -7.2338   -2.4757   -1.1281 H   0  0  0  0  0  0  0  0  0  0  0  0
   -6.2269    2.1779    0.0659 H   0  0  0  0  0  0  0  0  0  0  0  0
   -1.7365    1.4071   -1.5749 H   0  0  0  0  0  0  0  0  0  0  0  0
   -1.3341    2.9340   -0.6403 H   0  0  0  0  0  0  0  0  0  0  0  0
    0.4903    1.2956   -1.6851 H   0  0  0  0  0  0  0  0  0  0  0  0
    0.7622    2.2106   -0.1800 H   0  0  0  0  0  0  0  0  0  0  0  0
    0.2675   -1.4088   -1.2142 H   0  0  0  0  0  0  0  0  0  0  0  0
    0.8885   -1.7328    0.4130 H   0  0  0  0  0  0  0  0  0  0  0  0
    2.4762   -0.0015   -1.5472 H   0  0  0  0  0  0  0  0  0  0  0  0
    2.0635   -2.7324   -1.8231 H   0  0  0  0  0  0  0  0  0  0  0  0
    3.5568   -1.8867   -2.2540 H   0  0  0  0  0  0  0  0  0  0  0  0
    4.0673   -3.7338   -0.8156 H   0  0  0  0  0  0  0  0  0  0  0  0
    3.0992   -2.9815    0.5672 H   0  0  0  0  0  0  0  0  0  0  0  0
    5.5882   -2.3632    0.6469 H   0  0  0  0  0  0  0  0  0  0  0  0
    5.4592   -1.8777   -1.0667 H   0  0  0  0  0  0  0  0  0  0  0  0
    5.4495   -0.0053   -1.4996 H   0  0  0  0  0  0  0  0  0  0  0  0
    5.0609    2.4356   -1.2532 H   0  0  0  0  0  0  0  0  0  0  0  0
    4.1196    2.2364    0.3199 H   0  0  0  0  0  0  0  0  0  0  0  0
    7.1148    1.3164   -0.2093 H   0  0  0  0  0  0  0  0  0  0  0  0
    6.1546    1.1795    1.3689 H   0  0  0  0  0  0  0  0  0  0  0  0
    2.8934    0.6382    0.6296 H   0  0  0  0  0  0  0  0  0  0  0  0
    2.6584   -1.0051    1.2887 H   0  0  0  0  0  0  0  0  0  0  0  0
   -0.0455   -0.6572    2.0343 H   0  0  0  0  0  0  0  0  0  0  0  0
    0.9618    0.8553    2.0297 H   0  0  0  0  0  0  0  0  0  0  0  0
   -0.8273    2.2021    2.0873 H   0  0  0  0  0  0  0  0  0  0  0  0
   -1.7107    0.7281    2.5907 H   0  0  0  0  0  0  0  0  0  0  0  0
  1  2  2  0
  2  3  1  0
  3  4  1  0
  4  5  2  0
  5  6  1  0
  6  7  2  0
  7  8  1  0
  7  9  1  0
  9 10  1  0
  9 11  2  0
  2 12  1  0
 12 13  1  0
 13 14  1  0
 14 15  1  0
 15 16  1  0
 16 17  1  0
 17 18  1  0
 18 19  1  0
 19 20  1  0
 20 21  1  0
 21 22  1  0
 22 23  1  0
 23 24  1  0
 21 25  1  0
 15 26  1  0
 26 27  1  0
 11  4  1  0
 27 12  1  0
 25 17  1  0
 24 22  1  0
  3 28  1  0
  5 29  1  0
  6 30  1  0
 11 31  1  0
 13 32  1  0
 13 33  1  0
 14 34  1  0
 14 35  1  0
 16 36  1  0
 16 37  1  0
 17 38  1  6
 18 39  1  0
 18 40  1  0
 19 41  1  0
 19 42  1  0
 20 43  1  0
 20 44  1  0
 22 45  1  0
 23 46  1  0
 23 47  1  0
 24 48  1  0
 24 49  1  0
 25 50  1  0
 25 51  1  0
 26 52  1  0
 26 53  1  0
 27 54  1  0
 27 55  1  0
M  END
$$$$
