@<TRIPOS>MOLECULE
*****
 50 52 0 0 0
SMALL
GASTEIGER

@<TRIPOS>ATOM
      1 O          -5.7672   -2.3594   -1.3068 O.2     1  UNL1       -0.2719
      2 C          -4.6402   -1.9252   -0.9773 C.2     1  UNL1        0.2544
      3 N          -3.6715   -2.8440   -0.5087 N.am    1  UNL1       -0.1961
      4 O          -3.9888   -4.1622   -0.4293 O.3     1  UNL1       -0.2951
      5 C          -4.3677   -0.4770   -1.0905 C.3     1  UNL1        0.1120
      6 C          -5.4401    0.3767   -0.5065 C.3     1  UNL1       -0.0010
      7 C          -5.1192    0.9442    0.8469 C.3     1  UNL1        0.0584
      8 O          -6.2144    1.1994    1.6324 O.3     1  UNL1       -0.3917
      9 C          -4.1718   -0.0627    1.5132 C.3     1  UNL1       -0.0123
     10 C          -2.8751    0.0584    0.7436 C.3     1  UNL1        0.0237
     11 N          -3.0379   -0.2124   -0.6465 N.3     1  UNL1       -0.1645
     12 S          -2.1359    0.7986   -1.6775 S.O2    1  UNL1        0.0615
     13 O          -2.5013    2.2462   -1.5627 O.2     1  UNL1       -0.1528
     14 O          -2.4181    0.3862   -3.1011 O.2     1  UNL1       -0.1528
     15 C          -0.4235    0.5677   -1.3283 C.ar    1  UNL1        0.1057
     16 C           0.3535   -0.3535   -2.0005 C.ar    1  UNL1       -0.0319
     17 C           1.6917   -0.5374   -1.7264 C.ar    1  UNL1       -0.0181
     18 C           2.3181    0.2080   -0.7489 C.ar    1  UNL1        0.1211
     19 O           3.6686    0.0451   -0.4485 O.3     1  UNL1       -0.4873
     20 C           4.2202    0.8552    0.5711 C.3     1  UNL1        0.1160
     21 C           5.6407    0.4985    0.6978 C.ar    1  UNL1        0.0079
     22 C           6.0606   -0.2783    1.7414 C.ar    1  UNL1       -0.0540
     23 C           7.4053   -0.6360    1.8875 C.ar    1  UNL1       -0.0613
     24 C           8.2834   -0.1696    0.9327 C.ar    1  UNL1       -0.0604
     25 C           7.8899    0.6207   -0.1389 C.ar    1  UNL1       -0.0430
     26 C           6.5443    0.9406   -0.2280 C.ar    1  UNL1        0.0474
     27 CL          6.0177    1.9399   -1.5750 Cl      1  UNL1       -0.0831
     28 C           1.5415    1.1355   -0.0700 C.ar    1  UNL1       -0.0181
     29 C           0.2038    1.3180   -0.3455 C.ar    1  UNL1       -0.0319
     30 H          -2.7165   -2.5386   -0.2220 H       1  UNL1        0.1822
     31 H          -3.8238   -4.4598    0.5177 H       1  UNL1        0.2414
     32 H          -4.3732   -0.2665   -2.2031 H       1  UNL1        0.0577
     33 H          -6.4179   -0.1889   -0.4571 H       1  UNL1        0.0310
     34 H          -5.6776    1.2489   -1.1674 H       1  UNL1        0.0310
     35 H          -4.5004    1.8758    0.6971 H       1  UNL1        0.0594
     36 H          -6.7691    1.8710    1.1859 H       1  UNL1        0.2098
     37 H          -4.0338    0.1996    2.5729 H       1  UNL1        0.0303
     38 H          -4.6155   -1.0663    1.4686 H       1  UNL1        0.0303
     39 H          -2.4788    1.0719    0.9565 H       1  UNL1        0.0445
     40 H          -2.1668   -0.6772    1.1723 H       1  UNL1        0.0445
     41 H          -0.1685   -0.9331   -2.7727 H       1  UNL1        0.0638
     42 H           2.2695   -1.2687   -2.2743 H       1  UNL1        0.0655
     43 H           4.0701    1.9110    0.2422 H       1  UNL1        0.0748
     44 H           3.6727    0.6976    1.5443 H       1  UNL1        0.0748
     45 H           5.3803   -0.6563    2.5059 H       1  UNL1        0.0622
     46 H           7.6951   -1.2510    2.7252 H       1  UNL1        0.0618
     47 H           9.3448   -0.4317    1.0170 H       1  UNL1        0.0618
     48 H           8.6020    0.9598   -0.8540 H       1  UNL1        0.0632
     49 H           2.0193    1.7272    0.6995 H       1  UNL1        0.0655
     50 H          -0.3785    2.0539    0.2052 H       1  UNL1        0.0638
@<TRIPOS>BOND
     1     1     2    2
     2     2     3   am
     3     3     4    1
     4     2     5    1
     5     5     6    1
     6     6     7    1
     7     7     8    1
     8     7     9    1
     9     9    10    1
    10    10    11    1
    11    11    12    1
    12    12    13    2
    13    12    14    2
    14    12    15    1
    15    15    16   ar
    16    16    17   ar
    17    17    18   ar
    18    18    19    1
    19    19    20    1
    20    20    21    1
    21    21    22   ar
    22    22    23   ar
    23    23    24   ar
    24    24    25   ar
    25    25    26   ar
    26    26    27    1
    27    18    28   ar
    28    28    29   ar
    29    11     5    1
    30    29    15   ar
    31    26    21   ar
    32     3    30    1
    33     4    31    1
    34     5    32    1
    35     6    33    1
    36     6    34    1
    37     7    35    1
    38     8    36    1
    39     9    37    1
    40     9    38    1
    41    10    39    1
    42    10    40    1
    43    16    41    1
    44    17    42    1
    45    20    43    1
    46    20    44    1
    47    22    45    1
    48    23    46    1
    49    24    47    1
    50    25    48    1
    51    28    49    1
    52    29    50    1
