@<TRIPOS>MOLECULE
*****
 88 90 0 0 0
SMALL
GASTEIGER

@<TRIPOS>ATOM
      1 C          -3.1065   -3.7617   -3.5899 C.3     1  UNL1        0.0833
      2 O          -3.7614   -2.8686   -2.7043 O.3     1  UNL1       -0.4537
      3 C          -3.1625   -1.6926   -2.2848 C.2     1  UNL1        0.4006
      4 O          -2.0302   -1.3928   -2.6802 O.2     1  UNL1       -0.2265
      5 N          -3.8344   -0.7766   -1.3740 N.am    1  UNL1       -0.2689
      6 C          -3.1829    0.4423   -0.9629 C.3     1  UNL1        0.1132
      7 C          -2.3391    0.1937    0.2625 C.2     1  UNL1        0.2344
      8 O          -2.3055   -0.9553    0.7191 O.2     1  UNL1       -0.2737
      9 N          -1.6249    1.2374    0.8463 N.am    1  UNL1       -0.3138
     10 C          -0.7293    1.2220    1.9620 C.3     1  UNL1        0.0116
     11 C           0.5865    0.6034    1.6591 C.3     1  UNL1       -0.0373
     12 C           0.5488   -0.7876    1.2089 C.3     1  UNL1       -0.0501
     13 C           1.9364   -1.3594    0.9071 C.3     1  UNL1       -0.0335
     14 C           2.8714   -1.3619    2.0877 C.3     1  UNL1        0.0549
     15 C           2.2315   -2.2239    3.1537 C.3     1  UNL1        0.0614
     16 O           2.9325   -2.2829    4.3268 O.3     1  UNL1       -0.3934
     17 N           4.1417   -1.7170    1.6428 N.3     1  UNL1       -0.1711
     18 C           4.5638   -3.0114    1.4104 C.3     1  UNL1        0.0232
     19 C           4.4768   -3.5522   -0.0012 C.3     1  UNL1       -0.0323
     20 C           5.0319   -4.9884   -0.0302 C.3     1  UNL1       -0.0615
     21 C           5.2744   -2.7375   -0.9442 C.3     1  UNL1       -0.0615
     22 S           5.3958   -0.6148    1.9034 S.O2    1  UNL1        0.0612
     23 O           5.7181   -0.3957    3.3524 O.2     1  UNL1       -0.1528
     24 O           6.6834   -1.1842    1.3063 O.2     1  UNL1       -0.1528
     25 C           5.1122    0.9163    1.0858 C.ar    1  UNL1        0.1056
     26 C           4.3835    1.9269    1.6771 C.ar    1  UNL1       -0.0336
     27 C           4.1662    3.1481    1.0329 C.ar    1  UNL1       -0.0392
     28 C           4.6774    3.3764   -0.2177 C.ar    1  UNL1        0.0247
     29 N           4.4790    4.6186   -0.9208 N.pl3   1  UNL1       -0.3580
     30 C           5.4035    2.3770   -0.8136 C.ar    1  UNL1       -0.0392
     31 C           5.6193    1.1655   -0.1740 C.ar    1  UNL1       -0.0336
     32 C          -4.0382    1.6398   -0.8407 C.3     1  UNL1        0.0362
     33 C          -4.6985    1.8642   -2.1500 C.ar    1  UNL1       -0.0377
     34 C          -4.0910    2.6420   -3.1019 C.ar    1  UNL1       -0.0579
     35 C          -4.6874    2.8791   -4.3379 C.ar    1  UNL1       -0.0615
     36 C          -5.9113    2.3410   -4.6509 C.ar    1  UNL1       -0.0617
     37 C          -6.5303    1.5579   -3.7009 C.ar    1  UNL1       -0.0615
     38 C          -5.9331    1.3263   -2.4759 C.ar    1  UNL1       -0.0579
     39 C          -4.8646    1.8087    0.3341 C.ar    1  UNL1       -0.0377
     40 C          -5.2327    0.7688    1.1464 C.ar    1  UNL1       -0.0579
     41 C          -6.0340    1.0017    2.2706 C.ar    1  UNL1       -0.0615
     42 C          -6.4581    2.2717    2.5706 C.ar    1  UNL1       -0.0617
     43 C          -6.0858    3.3158    1.7507 C.ar    1  UNL1       -0.0615
     44 C          -5.3004    3.0817    0.6499 C.ar    1  UNL1       -0.0579
     45 H          -3.6795   -4.7021   -3.6364 H       1  UNL1        0.0661
     46 H          -2.0494   -3.9235   -3.3031 H       1  UNL1        0.0661
     47 H          -3.1114   -3.3187   -4.6026 H       1  UNL1        0.0661
     48 H          -4.7766   -1.1029   -1.1061 H       1  UNL1        0.1528
     49 H          -2.3964    0.6510   -1.7437 H       1  UNL1        0.0605
     50 H          -1.7436    2.2123    0.4012 H       1  UNL1        0.1487
     51 H          -0.5511    2.2746    2.3474 H       1  UNL1        0.0462
     52 H          -1.2244    0.6762    2.8403 H       1  UNL1        0.0462
     53 H           1.2784    0.7696    2.5421 H       1  UNL1        0.0280
     54 H           1.1052    1.2681    0.8713 H       1  UNL1        0.0280
     55 H           0.0940   -0.7856    0.1664 H       1  UNL1        0.0266
     56 H          -0.0044   -1.5000    1.8098 H       1  UNL1        0.0266
     57 H           1.7098   -2.4429    0.6672 H       1  UNL1        0.0282
     58 H           2.3376   -0.9264   -0.0053 H       1  UNL1        0.0282
     59 H           2.9406   -0.3449    2.5586 H       1  UNL1        0.0502
     60 H           1.9089   -3.2169    2.7705 H       1  UNL1        0.0573
     61 H           1.2591   -1.6907    3.3936 H       1  UNL1        0.0573
     62 H           3.7223   -2.8316    4.2420 H       1  UNL1        0.2095
     63 H           5.6818   -3.0837    1.6375 H       1  UNL1        0.0446
     64 H           4.1571   -3.7841    2.1351 H       1  UNL1        0.0446
     65 H           3.4155   -3.6939   -0.3279 H       1  UNL1        0.0308
     66 H           4.2464   -5.7453    0.0575 H       1  UNL1        0.0233
     67 H           5.6678   -5.0834    0.8957 H       1  UNL1        0.0233
     68 H           5.6022   -5.1635   -0.9500 H       1  UNL1        0.0233
     69 H           6.3394   -2.9291   -0.8103 H       1  UNL1        0.0233
     70 H           5.0678   -1.6624   -0.7822 H       1  UNL1        0.0233
     71 H           5.0343   -2.9504   -2.0173 H       1  UNL1        0.0233
     72 H           3.9790    1.7687    2.6655 H       1  UNL1        0.0638
     73 H           3.5967    3.9365    1.4927 H       1  UNL1        0.0636
     74 H           4.7915    5.5366   -0.5479 H       1  UNL1        0.1423
     75 H           4.0044    4.5996   -1.8433 H       1  UNL1        0.1423
     76 H           5.8078    2.5608   -1.8053 H       1  UNL1        0.0636
     77 H           6.2038    0.3850   -0.6517 H       1  UNL1        0.0638
     78 H          -3.2785    2.5175   -0.7742 H       1  UNL1        0.0420
     79 H          -3.1111    3.0888   -2.8913 H       1  UNL1        0.0620
     80 H          -4.1782    3.4959   -5.0670 H       1  UNL1        0.0618
     81 H          -6.3481    2.5434   -5.6204 H       1  UNL1        0.0618
     82 H          -7.5007    1.1401   -3.9605 H       1  UNL1        0.0618
     83 H          -6.4556    0.7169   -1.7810 H       1  UNL1        0.0620
     84 H          -4.9507   -0.2489    1.0113 H       1  UNL1        0.0620
     85 H          -6.3379    0.1746    2.9260 H       1  UNL1        0.0618
     86 H          -7.0871    2.4691    3.4524 H       1  UNL1        0.0618
     87 H          -6.4150    4.3298    1.9818 H       1  UNL1        0.0618
     88 H          -5.0439    3.9540    0.0511 H       1  UNL1        0.0620
@<TRIPOS>BOND
     1     1     2    1
     2     2     3    1
     3     3     4    2
     4     3     5   am
     5     5     6    1
     6     6     7    1
     7     7     8    2
     8     7     9   am
     9     9    10    1
    10    10    11    1
    11    11    12    1
    12    12    13    1
    13    13    14    1
    14    14    15    1
    15    15    16    1
    16    14    17    1
    17    17    18    1
    18    18    19    1
    19    19    20    1
    20    19    21    1
    21    17    22    1
    22    22    23    2
    23    22    24    2
    24    22    25    1
    25    25    26   ar
    26    26    27   ar
    27    27    28   ar
    28    28    29    1
    29    28    30   ar
    30    30    31   ar
    31     6    32    1
    32    32    33    1
    33    33    34   ar
    34    34    35   ar
    35    35    36   ar
    36    36    37   ar
    37    37    38   ar
    38    32    39    1
    39    39    40   ar
    40    40    41   ar
    41    41    42   ar
    42    42    43   ar
    43    43    44   ar
    44    31    25   ar
    45    38    33   ar
    46    44    39   ar
    47     1    45    1
    48     1    46    1
    49     1    47    1
    50     5    48    1
    51     6    49    1
    52     9    50    1
    53    10    51    1
    54    10    52    1
    55    11    53    1
    56    11    54    1
    57    12    55    1
    58    12    56    1
    59    13    57    1
    60    13    58    1
    61    14    59    1
    62    15    60    1
    63    15    61    1
    64    16    62    1
    65    18    63    1
    66    18    64    1
    67    19    65    1
    68    20    66    1
    69    20    67    1
    70    20    68    1
    71    21    69    1
    72    21    70    1
    73    21    71    1
    74    26    72    1
    75    27    73    1
    76    29    74    1
    77    29    75    1
    78    30    76    1
    79    31    77    1
    80    32    78    1
    81    34    79    1
    82    35    80    1
    83    36    81    1
    84    37    82    1
    85    38    83    1
    86    40    84    1
    87    41    85    1
    88    42    86    1
    89    43    87    1
    90    44    88    1
