@<TRIPOS>MOLECULE
*****
 33 33 0 0 0
SMALL
GASTEIGER

@<TRIPOS>ATOM
      1 C           4.1300   -0.3408   -1.2077 C.3     1  UNL1        0.0309
      2 N           3.8942    0.5284   -0.0452 N.am    1  UNL1       -0.1443
      3 N           4.8627    1.2583    0.6740 N.2     1  UNL1        0.0524
      4 O           5.2096    2.4168    0.3710 O.2     1  UNL1       -0.1256
      5 C           2.5734    0.6934    0.4566 C.2     1  UNL1        0.3243
      6 O           2.2129    1.3948    1.4321 O.2     1  UNL1       -0.2508
      7 N           1.4649    0.0173   -0.1632 N.am    1  UNL1       -0.2876
      8 C           0.1002    0.1459    0.3018 C.3     1  UNL1        0.1036
      9 C          -0.8201    0.6951   -0.7561 C.3     1  UNL1        0.1777
     10 O          -0.1523    1.0522   -1.9288 O.3     1  UNL1       -0.3654
     11 O          -1.8428   -0.1590   -1.0952 O.3     1  UNL1       -0.3414
     12 C          -2.6596   -0.5590   -0.0750 C.3     1  UNL1        0.1129
     13 C          -3.8142    0.3644    0.2231 C.3     1  UNL1        0.0730
     14 O          -3.4272    1.6423    0.5849 O.3     1  UNL1       -0.3924
     15 C          -1.9121   -0.8783    1.1799 C.3     1  UNL1        0.1112
     16 O          -2.5314   -1.9405    1.8224 O.3     1  UNL1       -0.3865
     17 C          -0.4765   -1.1746    0.7917 C.3     1  UNL1        0.1065
     18 O           0.2176   -1.6467    1.9025 O.3     1  UNL1       -0.3871
     19 H           5.1170   -0.1103   -1.6600 H       1  UNL1        0.0450
     20 H           3.3480   -0.1564   -1.9755 H       1  UNL1        0.0450
     21 H           4.1398   -1.4208   -0.8800 H       1  UNL1        0.0450
     22 H           1.6044   -0.6156   -1.0024 H       1  UNL1        0.1509
     23 H           0.0881    0.8301    1.1788 H       1  UNL1        0.0575
     24 H          -1.2989    1.6443   -0.4012 H       1  UNL1        0.0928
     25 H           0.0782    2.0129   -1.9446 H       1  UNL1        0.2125
     26 H          -3.1462   -1.5180   -0.4217 H       1  UNL1        0.0647
     27 H          -4.3741   -0.0948    1.0679 H       1  UNL1        0.0584
     28 H          -4.5280    0.3633   -0.6443 H       1  UNL1        0.0584
     29 H          -3.8873    2.2798   -0.0423 H       1  UNL1        0.2095
     30 H          -1.8827    0.0338    1.8408 H       1  UNL1        0.0646
     31 H          -1.9591   -2.2061    2.5835 H       1  UNL1        0.2100
     32 H          -0.5162   -1.9288   -0.0259 H       1  UNL1        0.0640
     33 H           0.1879   -2.6232    1.8640 H       1  UNL1        0.2100
@<TRIPOS>BOND
     1     1     2    1
     2     2     3    1
     3     3     4    2
     4     2     5   am
     5     5     6    2
     6     5     7   am
     7     7     8    1
     8     8     9    1
     9     9    10    1
    10     9    11    1
    11    11    12    1
    12    12    13    1
    13    13    14    1
    14    12    15    1
    15    15    16    1
    16    15    17    1
    17    17    18    1
    18    17     8    1
    19     1    19    1
    20     1    20    1
    21     1    21    1
    22     7    22    1
    23     8    23    1
    24     9    24    1
    25    10    25    1
    26    12    26    1
    27    13    27    1
    28    13    28    1
    29    14    29    1
    30    15    30    1
    31    16    31    1
    32    17    32    1
    33    18    33    1
