@<TRIPOS>MOLECULE
*****
 23 25 0 0 0
SMALL
GASTEIGER

@<TRIPOS>ATOM
      1 N           2.5968   -2.4440   -1.1658 N.pl3   1  UNL1       -0.3290
      2 C           1.9825   -1.3105   -0.5091 C.ar    1  UNL1        0.1914
      3 N           0.6886   -0.9810   -0.5964 N.ar    1  UNL1       -0.2126
      4 C           0.4588    0.1170    0.1307 C.ar    1  UNL1        0.1166
      5 C          -0.6831    0.8487    0.3687 C.ar    1  UNL1        0.0989
      6 C          -1.9777    0.4086   -0.2685 C.ar    1  UNL1        0.0095
      7 C          -2.4151   -0.8535   -0.3015 C.ar    1  UNL1       -0.0455
      8 C          -3.6009   -1.1291   -0.9047 C.ar    1  UNL1       -0.0237
      9 S          -4.1685    0.4478   -1.4727 S.2     1  UNL1       -0.1044
     10 C          -2.7514    1.3799   -0.8503 C.ar    1  UNL1       -0.0151
     11 N          -0.6136    1.9184    1.1504 N.ar    1  UNL1       -0.2527
     12 C           0.5609    2.3073    1.7213 C.ar    1  UNL1        0.0303
     13 C           1.7100    1.5933    1.4977 C.ar    1  UNL1       -0.0180
     14 C           1.6662    0.4664    0.6817 C.ar    1  UNL1        0.0710
     15 N           2.5944   -0.4162    0.2825 N.ar    1  UNL1       -0.3261
     16 H           3.1110   -3.1368   -0.5903 H       1  UNL1        0.1451
     17 H           2.5442   -2.5932   -2.1904 H       1  UNL1        0.1451
     18 H          -1.8377   -1.6869    0.1504 H       1  UNL1        0.0629
     19 H          -4.1234   -2.0705   -1.0365 H       1  UNL1        0.0693
     20 H          -2.6158    2.4571   -0.9521 H       1  UNL1        0.0700
     21 H           0.6075    3.1832    2.3588 H       1  UNL1        0.0830
     22 H           2.6765    1.8728    1.9386 H       1  UNL1        0.0654
     23 H           3.5896   -0.3789    0.5575 H       1  UNL1        0.1686
@<TRIPOS>BOND
     1     1     2    1
     2     2     3   ar
     3     3     4   ar
     4     4     5   ar
     5     5     6    1
     6     6     7   ar
     7     7     8   ar
     8     8     9   ar
     9     9    10   ar
    10     5    11   ar
    11    11    12   ar
    12    12    13   ar
    13    13    14   ar
    14    14    15   ar
    15    15     2   ar
    16    14     4   ar
    17    10     6   ar
    18     1    16    1
    19     1    17    1
    20     7    18    1
    21     8    19    1
    22    10    20    1
    23    12    21    1
    24    13    22    1
    25    15    23    1
