
     RDKit          3D

 23 25  0  0  0  0  0  0  0  0999 V2000
    2.5968   -2.4440   -1.1658 N   0  0  0  0  0  0  0  0  0  0  0  0
    1.9825   -1.3105   -0.5091 C   0  0  0  0  0  0  0  0  0  0  0  0
    0.6886   -0.9810   -0.5964 N   0  0  0  0  0  0  0  0  0  0  0  0
    0.4588    0.1170    0.1307 C   0  0  0  0  0  0  0  0  0  0  0  0
   -0.6831    0.8487    0.3687 C   0  0  0  0  0  0  0  0  0  0  0  0
   -1.9777    0.4086   -0.2685 C   0  0  0  0  0  0  0  0  0  0  0  0
   -2.4151   -0.8535   -0.3015 C   0  0  0  0  0  0  0  0  0  0  0  0
   -3.6009   -1.1291   -0.9047 C   0  0  0  0  0  0  0  0  0  0  0  0
   -4.1685    0.4478   -1.4727 S   0  0  0  0  0  0  0  0  0  0  0  0
   -2.7514    1.3799   -0.8503 C   0  0  0  0  0  0  0  0  0  0  0  0
   -0.6136    1.9184    1.1504 N   0  0  0  0  0  0  0  0  0  0  0  0
    0.5609    2.3073    1.7213 C   0  0  0  0  0  0  0  0  0  0  0  0
    1.7100    1.5933    1.4977 C   0  0  0  0  0  0  0  0  0  0  0  0
    1.6662    0.4664    0.6817 C   0  0  0  0  0  0  0  0  0  0  0  0
    2.5944   -0.4162    0.2825 N   0  0  0  0  0  0  0  0  0  0  0  0
    3.1110   -3.1368   -0.5903 H   0  0  0  0  0  0  0  0  0  0  0  0
    2.5442   -2.5932   -2.1904 H   0  0  0  0  0  0  0  0  0  0  0  0
   -1.8377   -1.6869    0.1504 H   0  0  0  0  0  0  0  0  0  0  0  0
   -4.1234   -2.0705   -1.0365 H   0  0  0  0  0  0  0  0  0  0  0  0
   -2.6158    2.4571   -0.9521 H   0  0  0  0  0  0  0  0  0  0  0  0
    0.6075    3.1832    2.3588 H   0  0  0  0  0  0  0  0  0  0  0  0
    2.6765    1.8728    1.9386 H   0  0  0  0  0  0  0  0  0  0  0  0
    3.5896   -0.3789    0.5575 H   0  0  0  0  0  0  0  0  0  0  0  0
  1  2  1  0
  2  3  2  0
  3  4  1  0
  4  5  2  0
  5  6  1  0
  6  7  1  0
  7  8  2  0
  8  9  1  0
  9 10  1  0
  5 11  1  0
 11 12  2  0
 12 13  1  0
 13 14  2  0
 14 15  1  0
 15  2  1  0
 14  4  1  0
 10  6  2  0
  1 16  1  0
  1 17  1  0
  7 18  1  0
  8 19  1  0
 10 20  1  0
 12 21  1  0
 13 22  1  0
 15 23  1  0
M  END
$$$$
