
     RDKit          3D

 32 33  0  0  0  0  0  0  0  0999 V2000
    5.5014   -0.8543   -0.4280 N   0  0  0  0  0  0  0  0  0  0  0  0
    4.6766    0.6506   -0.1836 S   0  0  0  0  0  0  0  0  0  0  0  0
    4.9960    1.5374   -1.3383 O   0  0  0  0  0  0  0  0  0  0  0  0
    5.2202    1.3147    1.0559 O   0  0  0  0  0  0  0  0  0  0  0  0
    2.9666    0.4464   -0.0519 C   0  0  0  0  0  0  0  0  0  0  0  0
    2.1835    0.5003   -1.1906 C   0  0  0  0  0  0  0  0  0  0  0  0
    0.8117    0.3453   -1.1570 C   0  0  0  0  0  0  0  0  0  0  0  0
    0.2238    0.1269    0.0941 C   0  0  0  0  0  0  0  0  0  0  0  0
    1.0011    0.0721    1.2348 C   0  0  0  0  0  0  0  0  0  0  0  0
    2.3826    0.2309    1.1790 C   0  0  0  0  0  0  0  0  0  0  0  0
   -1.1904   -0.0307    0.1110 N   0  0  0  0  0  0  0  0  0  0  0  0
   -2.1806    1.0337    0.2640 C   0  0  0  0  0  0  0  0  0  0  0  0
   -3.0348    0.9516   -1.0069 C   0  0  0  0  0  0  0  0  0  0  0  0
   -4.1555   -0.0235   -0.7438 C   0  0  0  0  0  0  0  0  0  0  0  0
   -3.7536   -1.2191    0.0613 C   0  0  0  0  0  0  0  0  0  0  0  0
   -1.9987   -1.5640   -0.0526 S   0  0  0  0  0  0  0  0  0  0  0  0
   -1.5988   -2.5034    1.0285 O   0  0  0  0  0  0  0  0  0  0  0  0
   -1.7479   -2.1993   -1.3820 O   0  0  0  0  0  0  0  0  0  0  0  0
    6.5091   -0.7487   -0.1963 H   0  0  0  0  0  0  0  0  0  0  0  0
    5.0877   -1.5817    0.1800 H   0  0  0  0  0  0  0  0  0  0  0  0
    2.6568    0.6680   -2.1319 H   0  0  0  0  0  0  0  0  0  0  0  0
    0.1883    0.3852   -2.0389 H   0  0  0  0  0  0  0  0  0  0  0  0
    0.5274   -0.0974    2.1893 H   0  0  0  0  0  0  0  0  0  0  0  0
    3.0124    0.1918    2.0602 H   0  0  0  0  0  0  0  0  0  0  0  0
   -2.8191    0.8421    1.1288 H   0  0  0  0  0  0  0  0  0  0  0  0
   -1.6937    2.0284    0.2810 H   0  0  0  0  0  0  0  0  0  0  0  0
   -3.5001    1.9258   -1.2506 H   0  0  0  0  0  0  0  0  0  0  0  0
   -2.4243    0.5875   -1.8679 H   0  0  0  0  0  0  0  0  0  0  0  0
   -4.9526    0.5307   -0.1860 H   0  0  0  0  0  0  0  0  0  0  0  0
   -4.5922   -0.3795   -1.7171 H   0  0  0  0  0  0  0  0  0  0  0  0
   -3.9586   -1.0560    1.1539 H   0  0  0  0  0  0  0  0  0  0  0  0
   -4.3444   -2.1118   -0.2334 H   0  0  0  0  0  0  0  0  0  0  0  0
  1  2  1  0
  2  3  2  0
  2  4  2  0
  2  5  1  0
  5  6  2  0
  6  7  1  0
  7  8  2  0
  8  9  1  0
  9 10  2  0
  8 11  1  0
 11 12  1  0
 12 13  1  0
 13 14  1  0
 14 15  1  0
 15 16  1  0
 16 17  2  0
 16 18  2  0
 10  5  1  0
 16 11  1  0
  1 19  1  0
  1 20  1  0
  6 21  1  0
  7 22  1  0
  9 23  1  0
 10 24  1  0
 12 25  1  0
 12 26  1  0
 13 27  1  0
 13 28  1  0
 14 29  1  0
 14 30  1  0
 15 31  1  0
 15 32  1  0
M  END
$$$$
