@<TRIPOS>MOLECULE
*****
 32 33 0 0 0
SMALL
GASTEIGER

@<TRIPOS>ATOM
      1 N           5.5014   -0.8543   -0.4280 N.3     1  UNL1       -0.2035
      2 S           4.6766    0.6506   -0.1836 S.O2    1  UNL1        0.0559
      3 O           4.9960    1.5374   -1.3383 O.2     1  UNL1       -0.1533
      4 O           5.2202    1.3147    1.0559 O.2     1  UNL1       -0.1533
      5 C           2.9666    0.4464   -0.0519 C.ar    1  UNL1        0.1051
      6 C           2.1835    0.5003   -1.1906 C.ar    1  UNL1       -0.0336
      7 C           0.8117    0.3453   -1.1570 C.ar    1  UNL1       -0.0372
      8 C           0.2238    0.1269    0.0941 C.ar    1  UNL1        0.0510
      9 C           1.0011    0.0721    1.2348 C.ar    1  UNL1       -0.0372
     10 C           2.3826    0.2309    1.1790 C.ar    1  UNL1       -0.0336
     11 N          -1.1904   -0.0307    0.1110 N.pl3   1  UNL1       -0.2074
     12 C          -2.1806    1.0337    0.2640 C.3     1  UNL1        0.0346
     13 C          -3.0348    0.9516   -1.0069 C.3     1  UNL1       -0.0340
     14 C          -4.1555   -0.0235   -0.7438 C.3     1  UNL1       -0.0304
     15 C          -3.7536   -1.2191    0.0613 C.3     1  UNL1        0.0850
     16 S          -1.9987   -1.5640   -0.0526 S.O2    1  UNL1        0.0455
     17 O          -1.5988   -2.5034    1.0285 O.2     1  UNL1       -0.1550
     18 O          -1.7479   -2.1993   -1.3820 O.2     1  UNL1       -0.1550
     19 H           6.5091   -0.7487   -0.1963 H       1  UNL1        0.1442
     20 H           5.0877   -1.5817    0.1800 H       1  UNL1        0.1442
     21 H           2.6568    0.6680   -2.1319 H       1  UNL1        0.0638
     22 H           0.1883    0.3852   -2.0389 H       1  UNL1        0.0637
     23 H           0.5274   -0.0974    2.1893 H       1  UNL1        0.0637
     24 H           3.0124    0.1918    2.0602 H       1  UNL1        0.0638
     25 H          -2.8191    0.8421    1.1288 H       1  UNL1        0.0482
     26 H          -1.6937    2.0284    0.2810 H       1  UNL1        0.0482
     27 H          -3.5001    1.9258   -1.2506 H       1  UNL1        0.0281
     28 H          -2.4243    0.5875   -1.8679 H       1  UNL1        0.0281
     29 H          -4.9526    0.5307   -0.1860 H       1  UNL1        0.0282
     30 H          -4.5922   -0.3795   -1.7171 H       1  UNL1        0.0282
     31 H          -3.9586   -1.0560    1.1539 H       1  UNL1        0.0518
     32 H          -4.3444   -2.1118   -0.2334 H       1  UNL1        0.0518
@<TRIPOS>BOND
     1     1     2    1
     2     2     3    2
     3     2     4    2
     4     2     5    1
     5     5     6   ar
     6     6     7   ar
     7     7     8   ar
     8     8     9   ar
     9     9    10   ar
    10     8    11    1
    11    11    12    1
    12    12    13    1
    13    13    14    1
    14    14    15    1
    15    15    16    1
    16    16    17    2
    17    16    18    2
    18    10     5   ar
    19    16    11    1
    20     1    19    1
    21     1    20    1
    22     6    21    1
    23     7    22    1
    24     9    23    1
    25    10    24    1
    26    12    25    1
    27    12    26    1
    28    13    27    1
    29    13    28    1
    30    14    29    1
    31    14    30    1
    32    15    31    1
    33    15    32    1
