
     RDKit          3D

 32 34  0  0  0  0  0  0  0  0999 V2000
    5.3294   -0.3709   -1.0449 N   0  0  0  0  0  0  0  0  0  0  0  0
    4.1615   -0.5948   -0.2690 C   0  0  0  0  0  0  0  0  0  0  0  0
    4.2004   -1.4492    0.7528 N   0  0  0  0  0  0  0  0  0  0  0  0
    3.1221   -1.6982    1.5206 C   0  0  0  0  0  0  0  0  0  0  0  0
    3.2576   -2.5864    2.5417 F   0  0  0  0  0  0  0  0  0  0  0  0
    1.9316   -1.0761    1.2778 N   0  0  0  0  0  0  0  0  0  0  0  0
    1.8205   -0.1993    0.2600 C   0  0  0  0  0  0  0  0  0  0  0  0
    2.9644    0.0300   -0.5121 C   0  0  0  0  0  0  0  0  0  0  0  0
    2.6050    0.9208   -1.4399 N   0  0  0  0  0  0  0  0  0  0  0  0
    1.3009    1.2361   -1.2607 C   0  0  0  0  0  0  0  0  0  0  0  0
    0.7928    0.5545   -0.2130 N   0  0  0  0  0  0  0  0  0  0  0  0
   -0.5308    0.5902    0.3144 C   0  0  2  0  0  0  0  0  0  0  0  0
   -1.1808   -0.6484    0.3296 O   0  0  0  0  0  0  0  0  0  0  0  0
   -2.4953   -0.3076    0.6159 C   0  0  2  0  0  0  0  0  0  0  0  0
   -3.4600   -1.3826    0.1280 C   0  0  0  0  0  0  0  0  0  0  0  0
   -3.3758   -1.5780   -1.2400 O   0  0  0  0  0  0  0  0  0  0  0  0
   -2.7921    0.9784   -0.0982 C   0  0  1  0  0  0  0  0  0  0  0  0
   -3.2661    1.9576    0.7642 O   0  0  0  0  0  0  0  0  0  0  0  0
   -1.4251    1.3367   -0.6566 C   0  0  2  0  0  0  0  0  0  0  0  0
   -1.2723    0.7697   -1.8982 O   0  0  0  0  0  0  0  0  0  0  0  0
    5.5247    0.6485   -0.8212 H   0  0  0  0  0  0  0  0  0  0  0  0
    5.9199   -0.9569   -1.6889 H   0  0  0  0  0  0  0  0  0  0  0  0
    0.7477    1.9462   -1.8852 H   0  0  0  0  0  0  0  0  0  0  0  0
   -0.5975    1.0189    1.3343 H   0  0  0  0  0  0  0  0  0  0  0  0
   -2.6560   -0.2223    1.7152 H   0  0  0  0  0  0  0  0  0  0  0  0
   -4.5075   -1.1063    0.3579 H   0  0  0  0  0  0  0  0  0  0  0  0
   -3.2315   -2.3390    0.6536 H   0  0  0  0  0  0  0  0  0  0  0  0
   -4.2220   -1.3736   -1.7146 H   0  0  0  0  0  0  0  0  0  0  0  0
   -3.4575    0.8379   -0.9636 H   0  0  0  0  0  0  0  0  0  0  0  0
   -2.8932    2.8231    0.4511 H   0  0  0  0  0  0  0  0  0  0  0  0
   -1.2415    2.4260   -0.6385 H   0  0  0  0  0  0  0  0  0  0  0  0
   -1.0735   -0.1849   -1.8078 H   0  0  0  0  0  0  0  0  0  0  0  0
  1  2  1  0
  2  3  2  0
  3  4  1  0
  4  5  1  0
  4  6  2  0
  6  7  1  0
  7  8  2  0
  8  9  1  0
  9 10  2  0
 10 11  1  0
 11 12  1  0
 12 13  1  0
 13 14  1  0
 14 15  1  0
 15 16  1  0
 14 17  1  0
 17 18  1  0
 17 19  1  0
 19 20  1  0
  8  2  1  0
 19 12  1  0
 11  7  1  0
  1 21  1  0
  1 22  1  0
 10 23  1  0
 12 24  1  1
 14 25  1  1
 15 26  1  0
 15 27  1  0
 16 28  1  0
 17 29  1  6
 18 30  1  0
 19 31  1  6
 20 32  1  0
M  END
$$$$
