@<TRIPOS>MOLECULE
*****
 32 34 0 0 0
SMALL
GASTEIGER

@<TRIPOS>ATOM
      1 N           5.3294   -0.3709   -1.0449 N.pl3   1  UNL1       -0.3412
      2 C           4.1615   -0.5948   -0.2690 C.ar    1  UNL1        0.1500
      3 N           4.2004   -1.4492    0.7528 N.ar    1  UNL1       -0.1852
      4 C           3.1221   -1.6982    1.5206 C.ar    1  UNL1        0.3127
      5 F           3.2576   -2.5864    2.5417 F       1  UNL1       -0.1610
      6 N           1.9316   -1.0761    1.2778 N.ar    1  UNL1       -0.1822
      7 C           1.8205   -0.1993    0.2600 C.ar    1  UNL1        0.1703
      8 C           2.9644    0.0300   -0.5121 C.ar    1  UNL1        0.1475
      9 N           2.6050    0.9208   -1.4399 N.ar    1  UNL1       -0.2306
     10 C           1.3009    1.2361   -1.2607 C.ar    1  UNL1        0.1004
     11 N           0.7928    0.5545   -0.2130 N.ar    1  UNL1       -0.2854
     12 C1*        -0.5308    0.5902    0.3144 C.3     1  UNL1        0.1667
     13 O4*        -1.1808   -0.6484    0.3296 O.3     1  UNL1       -0.3457
     14 C4*        -2.4953   -0.3076    0.6159 C.3     1  UNL1        0.1126
     15 C5*        -3.4600   -1.3826    0.1280 C.3     1  UNL1        0.0730
     16 O5*        -3.3758   -1.5780   -1.2400 O.3     1  UNL1       -0.3924
     17 C3*        -2.7921    0.9784   -0.0982 C.3     1  UNL1        0.1135
     18 O3*        -3.2661    1.9576    0.7642 O.3     1  UNL1       -0.3864
     19 C2*        -1.4251    1.3367   -0.6566 C.3     1  UNL1        0.1285
     20 O2*        -1.2723    0.7697   -1.8982 O.3     1  UNL1       -0.3847
     21 H           5.5247    0.6485   -0.8212 H       1  UNL1        0.1438
     22 H           5.9199   -0.9569   -1.6889 H       1  UNL1        0.1438
     23 H           0.7477    1.9462   -1.8852 H       1  UNL1        0.1030
     24 H1*        -0.5975    1.0189    1.3343 H       1  UNL1        0.0866
     25 H4*        -2.6560   -0.2223    1.7152 H       1  UNL1        0.0647
     26 H5*1       -4.5075   -1.1063    0.3579 H       1  UNL1        0.0584
     27 H5*2       -3.2315   -2.3390    0.6536 H       1  UNL1        0.0584
     28 H5*        -4.2220   -1.3736   -1.7146 H       1  UNL1        0.2095
     29 H3*        -3.4575    0.8379   -0.9636 H       1  UNL1        0.0647
     30 H3*        -2.8932    2.8231    0.4511 H       1  UNL1        0.2100
     31 H2*        -1.2415    2.4260   -0.6385 H       1  UNL1        0.0665
     32 H2*        -1.0735   -0.1849   -1.8078 H       1  UNL1        0.2101
@<TRIPOS>BOND
     1     1     2    1
     2     2     3   ar
     3     3     4   ar
     4     4     5    1
     5     4     6   ar
     6     6     7   ar
     7     7     8   ar
     8     8     9   ar
     9     9    10   ar
    10    10    11   ar
    11    11    12    1
    12    12    13    1
    13    13    14    1
    14    14    15    1
    15    15    16    1
    16    14    17    1
    17    17    18    1
    18    17    19    1
    19    19    20    1
    20     8     2   ar
    21    19    12    1
    22    11     7   ar
    23     1    21    1
    24     1    22    1
    25    10    23    1
    26    12    24    1
    27    14    25    1
    28    15    26    1
    29    15    27    1
    30    16    28    1
    31    17    29    1
    32    18    30    1
    33    19    31    1
    34    20    32    1
