
     RDKit          3D

 32 33  0  0  0  0  0  0  0  0999 V2000
    5.6767   -0.5109    0.0051 O   0  0  0  0  0  0  0  0  0  0  0  0
    4.8815    0.2423    0.6217 C   0  0  0  0  0  0  0  0  0  0  0  0
    5.1175    0.3758    1.9998 O   0  0  0  0  0  0  0  0  0  0  0  0
    3.7670    0.9432   -0.0644 C   0  0  0  0  0  0  0  0  0  0  0  0
    2.5519    0.1511   -0.0804 N   0  0  0  0  0  0  0  0  0  0  0  0
    2.2309   -0.7222   -1.0623 C   0  0  0  0  0  0  0  0  0  0  0  0
    1.0122   -1.2923   -0.7461 C   0  0  0  0  0  0  0  0  0  0  0  0
    0.3092   -2.2436   -1.4798 O   0  0  0  0  0  0  0  0  0  0  0  0
    0.6048   -0.7565    0.4296 N   0  0  0  0  0  0  0  0  0  0  0  0
   -0.6334   -1.1129    1.0788 C   0  0  0  0  0  0  0  0  0  0  0  0
   -1.7681   -0.2677    0.6680 C   0  0  0  0  0  0  0  0  0  0  0  0
   -2.0539    0.8839    1.3654 C   0  0  0  0  0  0  0  0  0  0  0  0
   -3.1326    1.6735    0.9625 C   0  0  0  0  0  0  0  0  0  0  0  0
   -3.9073    1.3292   -0.1045 C   0  0  0  0  0  0  0  0  0  0  0  0
   -5.2482    2.3671   -0.5570 Cl  0  0  0  0  0  0  0  0  0  0  0  0
   -3.6353    0.1842   -0.8099 C   0  0  0  0  0  0  0  0  0  0  0  0
   -4.4478   -0.1683   -1.9211 N   0  0  0  0  0  4  0  0  0  0  0  0
   -5.6549    0.1420   -1.9219 O   0  0  0  0  0  0  0  0  0  0  0  0
   -3.9701   -0.8456   -3.0162 O   0  0  0  0  0  1  0  0  0  0  0  0
   -2.5644   -0.5907   -0.4022 C   0  0  0  0  0  0  0  0  0  0  0  0
    1.5495    0.1113    0.8117 C   0  0  0  0  0  0  0  0  0  0  0  0
    1.4950    0.7966    1.8731 O   0  0  0  0  0  0  0  0  0  0  0  0
    6.0129    0.0750    2.4014 H   0  0  0  0  0  0  0  0  0  0  0  0
    4.0758    1.1542   -1.1074 H   0  0  0  0  0  0  0  0  0  0  0  0
    3.5458    1.9285    0.4141 H   0  0  0  0  0  0  0  0  0  0  0  0
    2.8306   -0.9349   -1.9447 H   0  0  0  0  0  0  0  0  0  0  0  0
   -0.1614   -1.9329   -2.3394 H   0  0  0  0  0  0  0  0  0  0  0  0
   -0.9266   -2.1762    0.8902 H   0  0  0  0  0  0  0  0  0  0  0  0
   -0.4477   -1.0641    2.1907 H   0  0  0  0  0  0  0  0  0  0  0  0
   -1.4393    1.1687    2.2210 H   0  0  0  0  0  0  0  0  0  0  0  0
   -3.2996    2.5716    1.5611 H   0  0  0  0  0  0  0  0  0  0  0  0
   -2.3710   -1.4791   -0.9676 H   0  0  0  0  0  0  0  0  0  0  0  0
  1  2  2  0
  2  3  1  0
  2  4  1  0
  4  5  1  0
  5  6  1  0
  6  7  2  0
  7  8  1  0
  7  9  1  0
  9 10  1  0
 10 11  1  0
 11 12  2  0
 12 13  1  0
 13 14  2  0
 14 15  1  0
 14 16  1  0
 16 17  1  0
 17 18  2  0
 17 19  1  0
 16 20  2  0
  9 21  1  0
 21 22  2  0
 21  5  1  0
 20 11  1  0
  3 23  1  0
  4 24  1  0
  4 25  1  0
  6 26  1  0
  8 27  1  0
 10 28  1  0
 10 29  1  0
 12 30  1  0
 13 31  1  0
 20 32  1  0
M  CHG  2  17   1  19  -1
M  END
$$$$
