@<TRIPOS>MOLECULE
*****
 32 33 0 0 0
SMALL
GASTEIGER

@<TRIPOS>ATOM
      1 O           5.6767   -0.5109    0.0051 O.2     1  UNL1       -0.2490
      2 C           4.8815    0.2423    0.6217 C.2     1  UNL1        0.3248
      3 O           5.1175    0.3758    1.9998 O.3     1  UNL1       -0.4794
      4 C           3.7670    0.9432   -0.0644 C.3     1  UNL1        0.1245
      5 N           2.5519    0.1511   -0.0804 N.ar    1  UNL1       -0.2847
      6 C           2.2309   -0.7222   -1.0623 C.ar    1  UNL1        0.0697
      7 C           1.0122   -1.2923   -0.7461 C.ar    1  UNL1        0.2138
      8 O           0.3092   -2.2436   -1.4798 O.3     1  UNL1       -0.4924
      9 N           0.6048   -0.7565    0.4296 N.ar    1  UNL1       -0.2592
     10 C          -0.6334   -1.1129    1.0788 C.3     1  UNL1        0.0561
     11 C          -1.7681   -0.2677    0.6680 C.ar    1  UNL1       -0.0210
     12 C          -2.0539    0.8839    1.3654 C.ar    1  UNL1       -0.0551
     13 C          -3.1326    1.6735    0.9625 C.ar    1  UNL1       -0.0365
     14 C          -3.9073    1.3292   -0.1045 C.ar    1  UNL1        0.1178
     15 CL         -5.2482    2.3671   -0.5570 Cl      1  UNL1       -0.0765
     16 C          -3.6353    0.1842   -0.8099 C.ar    1  UNL1        0.2916
     17 N          -4.4478   -0.1683   -1.9211 N.pl3   1  UNL1        0.0811
     18 O          -5.6549    0.1420   -1.9219 O.2     1  UNL1        0.0415
     19 O          -3.9701   -0.8456   -3.0162 O.co2   1  UNL1       -0.5760
     20 C          -2.5644   -0.5907   -0.4022 C.ar    1  UNL1        0.0220
     21 C           1.5495    0.1113    0.8117 C.ar    1  UNL1        0.3328
     22 O           1.4950    0.7966    1.8731 O.2     1  UNL1       -0.2462
     23 H           6.0129    0.0750    2.4014 H       1  UNL1        0.2951
     24 H           4.0758    1.1542   -1.1074 H       1  UNL1        0.0609
     25 H           3.5458    1.9285    0.4141 H       1  UNL1        0.0609
     26 H           2.8306   -0.9349   -1.9447 H       1  UNL1        0.0864
     27 H          -0.1614   -1.9329   -2.3394 H       1  UNL1        0.2937
     28 H          -0.9266   -2.1762    0.8902 H       1  UNL1        0.0544
     29 H          -0.4477   -1.0641    2.1907 H       1  UNL1        0.0544
     30 H          -1.4393    1.1687    2.2210 H       1  UNL1        0.0621
     31 H          -3.2996    2.5716    1.5611 H       1  UNL1        0.0634
     32 H          -2.3710   -1.4791   -0.9676 H       1  UNL1        0.0689
@<TRIPOS>UNITY_ATOM_ATTR
17 1
charge 1
19 1
charge -1
@<TRIPOS>BOND
     1     1     2    2
     2     2     3    1
     3     2     4    1
     4     4     5    1
     5     5     6   ar
     6     6     7   ar
     7     7     8    1
     8     7     9   ar
     9     9    10    1
    10    10    11    1
    11    11    12   ar
    12    12    13   ar
    13    13    14   ar
    14    14    15    1
    15    14    16   ar
    16    16    17    1
    17    17    18    2
    18    17    19    1
    19    16    20   ar
    20     9    21   ar
    21    21    22    2
    22    21     5   ar
    23    20    11   ar
    24     3    23    1
    25     4    24    1
    26     4    25    1
    27     6    26    1
    28     8    27    1
    29    10    28    1
    30    10    29    1
    31    12    30    1
    32    13    31    1
    33    20    32    1
