
     RDKit          3D

 95 95  0  0  0  0  0  0  0  0999 V2000
  -14.4750   -2.1125   -0.6868 C   0  0  0  0  0  0  0  0  0  0  0  0
  -13.2586   -1.3362   -1.2257 C   0  0  0  0  0  0  0  0  0  0  0  0
  -13.6652   -0.0771   -1.8914 C   0  0  0  0  0  0  0  0  0  0  0  0
  -12.5955    0.7861   -2.4614 C   0  0  0  0  0  0  0  0  0  0  0  0
  -11.6088    1.2648   -1.5559 N   0  0  0  0  0  0  0  0  0  0  0  0
  -10.4652    0.6485   -0.9964 C   0  0  0  0  0  0  0  0  0  0  0  0
   -9.9755   -0.6067   -1.2720 C   0  0  0  0  0  0  0  0  0  0  0  0
   -8.8814   -1.2303   -0.7290 C   0  0  0  0  0  0  0  0  0  0  0  0
   -8.1882   -0.4972    0.2119 C   0  0  0  0  0  0  0  0  0  0  0  0
   -8.5944    0.7726    0.5594 C   0  0  0  0  0  0  0  0  0  0  0  0
   -9.7121    1.3089   -0.0466 C   0  0  0  0  0  0  0  0  0  0  0  0
   -7.0012   -1.0388    0.8830 C   0  0  0  0  0  0  0  0  0  0  0  0
   -6.5870   -2.2085    0.5674 O   0  0  0  0  0  0  0  0  0  0  0  0
   -6.3416   -0.3043    1.8403 O   0  0  0  0  0  0  0  0  0  0  0  0
   -5.1790   -0.7555    2.5534 C   0  0  0  0  0  0  0  0  0  0  0  0
   -4.8594    0.3791    3.5014 C   0  0  0  0  0  0  0  0  0  0  0  0
   -4.6027    1.5349    3.0018 O   0  0  0  0  0  0  0  0  0  0  0  0
   -3.7787    2.2379    2.3278 C   0  0  0  0  0  0  0  0  0  0  0  0
   -3.3772    1.7680    0.9557 C   0  0  0  0  0  0  0  0  0  0  0  0
   -2.7573    0.5592    1.0374 O   0  0  0  0  0  0  0  0  0  0  0  0
   -2.2743    0.0278   -0.1426 C   0  0  0  0  0  0  0  0  0  0  0  0
   -1.6458   -1.3157    0.2414 C   0  0  0  0  0  0  0  0  0  0  0  0
   -1.1224   -1.9225   -0.8798 O   0  0  0  0  0  0  0  0  0  0  0  0
   -0.1562   -1.1835   -1.5162 C   0  0  0  0  0  0  0  0  0  0  0  0
    0.9816   -0.8808   -0.6053 C   0  0  0  0  0  0  0  0  0  0  0  0
    2.0089   -0.1153   -1.2120 O   0  0  0  0  0  0  0  0  0  0  0  0
    2.9528    0.0842   -0.1766 C   0  0  0  0  0  0  0  0  0  0  0  0
    4.0671    0.9216   -0.7096 C   0  0  0  0  0  0  0  0  0  0  0  0
    5.0478    1.1937    0.2148 O   0  0  0  0  0  0  0  0  0  0  0  0
    5.7035    0.0805    0.7157 C   0  0  0  0  0  0  0  0  0  0  0  0
    6.7081    0.5235    1.7470 C   0  0  0  0  0  0  0  0  0  0  0  0
    7.6744    1.3748    1.3386 O   0  0  0  0  0  0  0  0  0  0  0  0
    8.5496    0.9627    0.3706 C   0  0  0  0  0  0  0  0  0  0  0  0
    9.4931    2.1531    0.1402 C   0  0  0  0  0  0  0  0  0  0  0  0
   10.4423    1.9083   -0.8005 O   0  0  0  0  0  0  0  0  0  0  0  0
   11.2860    0.8523   -0.5760 C   0  0  0  0  0  0  0  0  0  0  0  0
   12.0434    1.0096    0.6991 C   0  0  0  0  0  0  0  0  0  0  0  0
   12.9059    0.1420    1.1417 O   0  0  0  0  0  0  0  0  0  0  0  0
   14.0543   -0.2396    0.6663 C   0  0  0  0  0  0  0  0  0  0  0  0
   14.1446   -0.9088   -0.6712 C   0  0  0  0  0  0  0  0  0  0  0  0
   15.5159   -1.2381   -0.9288 O   0  0  0  0  0  0  0  0  0  0  0  0
   15.5372   -1.8614   -2.1712 C   0  0  0  0  0  0  0  0  0  0  0  0
  -14.1564   -2.8862    0.0403 H   0  0  0  0  0  0  0  0  0  0  0  0
  -15.0435   -2.5960   -1.4775 H   0  0  0  0  0  0  0  0  0  0  0  0
  -15.0803   -1.3825   -0.0758 H   0  0  0  0  0  0  0  0  0  0  0  0
  -12.6220   -1.1008   -0.3312 H   0  0  0  0  0  0  0  0  0  0  0  0
  -12.7219   -2.0460   -1.8474 H   0  0  0  0  0  0  0  0  0  0  0  0
  -14.3868    0.5155   -1.2518 H   0  0  0  0  0  0  0  0  0  0  0  0
  -14.3206   -0.3773   -2.7665 H   0  0  0  0  0  0  0  0  0  0  0  0
  -12.1120    0.2749   -3.3398 H   0  0  0  0  0  0  0  0  0  0  0  0
  -13.1193    1.6607   -2.9395 H   0  0  0  0  0  0  0  0  0  0  0  0
  -11.7618    2.2736   -1.2408 H   0  0  0  0  0  0  0  0  0  0  0  0
  -10.5082   -1.1922   -2.0181 H   0  0  0  0  0  0  0  0  0  0  0  0
   -8.5774   -2.2226   -1.0143 H   0  0  0  0  0  0  0  0  0  0  0  0
   -8.0453    1.3345    1.2951 H   0  0  0  0  0  0  0  0  0  0  0  0
   -9.9788    2.3249    0.2799 H   0  0  0  0  0  0  0  0  0  0  0  0
   -5.5300   -1.5948    3.2656 H   0  0  0  0  0  0  0  0  0  0  0  0
   -4.3902   -1.1503    1.9581 H   0  0  0  0  0  0  0  0  0  0  0  0
   -4.0937   -0.0028    4.2738 H   0  0  0  0  0  0  0  0  0  0  0  0
   -5.8313    0.4640    4.1345 H   0  0  0  0  0  0  0  0  0  0  0  0
   -2.7860    2.3764    2.9008 H   0  0  0  0  0  0  0  0  0  0  0  0
   -4.0729    3.3492    2.2120 H   0  0  0  0  0  0  0  0  0  0  0  0
   -2.6269    2.4805    0.5054 H   0  0  0  0  0  0  0  0  0  0  0  0
   -4.2639    1.7507    0.2765 H   0  0  0  0  0  0  0  0  0  0  0  0
   -3.0984   -0.1764   -0.8647 H   0  0  0  0  0  0  0  0  0  0  0  0
   -1.5369    0.7049   -0.6160 H   0  0  0  0  0  0  0  0  0  0  0  0
   -2.4811   -1.9284    0.6683 H   0  0  0  0  0  0  0  0  0  0  0  0
   -0.8917   -1.1940    1.0308 H   0  0  0  0  0  0  0  0  0  0  0  0
   -0.5383   -0.2935   -2.0562 H   0  0  0  0  0  0  0  0  0  0  0  0
    0.2576   -1.8571   -2.3261 H   0  0  0  0  0  0  0  0  0  0  0  0
    0.6842   -0.2423    0.2783 H   0  0  0  0  0  0  0  0  0  0  0  0
    1.4931   -1.8063   -0.2749 H   0  0  0  0  0  0  0  0  0  0  0  0
    2.4697    0.5900    0.6893 H   0  0  0  0  0  0  0  0  0  0  0  0
    3.2869   -0.9130    0.2094 H   0  0  0  0  0  0  0  0  0  0  0  0
    3.6713    1.8677   -1.0854 H   0  0  0  0  0  0  0  0  0  0  0  0
    4.5709    0.3258   -1.5259 H   0  0  0  0  0  0  0  0  0  0  0  0
    4.9375   -0.5103    1.3029 H   0  0  0  0  0  0  0  0  0  0  0  0
    6.0709   -0.6109   -0.0372 H   0  0  0  0  0  0  0  0  0  0  0  0
    7.1867   -0.3830    2.2314 H   0  0  0  0  0  0  0  0  0  0  0  0
    6.1533    0.9956    2.5803 H   0  0  0  0  0  0  0  0  0  0  0  0
    8.0711    0.7755   -0.6102 H   0  0  0  0  0  0  0  0  0  0  0  0
    9.2005    0.1236    0.7026 H   0  0  0  0  0  0  0  0  0  0  0  0
    8.8513    3.0274   -0.2093 H   0  0  0  0  0  0  0  0  0  0  0  0
    9.9550    2.4884    1.0874 H   0  0  0  0  0  0  0  0  0  0  0  0
   11.9522    0.7664   -1.4836 H   0  0  0  0  0  0  0  0  0  0  0  0
   10.7266   -0.1137   -0.5587 H   0  0  0  0  0  0  0  0  0  0  0  0
   11.2211    1.1070    1.5014 H   0  0  0  0  0  0  0  0  0  0  0  0
   12.4391    2.0901    0.7159 H   0  0  0  0  0  0  0  0  0  0  0  0
   14.7290    0.7053    0.5893 H   0  0  0  0  0  0  0  0  0  0  0  0
   14.6532   -0.8746    1.4291 H   0  0  0  0  0  0  0  0  0  0  0  0
   13.6027   -1.8673   -0.7015 H   0  0  0  0  0  0  0  0  0  0  0  0
   13.8262   -0.2924   -1.5258 H   0  0  0  0  0  0  0  0  0  0  0  0
   16.5731   -2.1520   -2.4510 H   0  0  0  0  0  0  0  0  0  0  0  0
   14.8957   -2.7477   -2.1053 H   0  0  0  0  0  0  0  0  0  0  0  0
   15.0830   -1.1517   -2.8838 H   0  0  0  0  0  0  0  0  0  0  0  0
  1  2  1  0
  2  3  1  0
  3  4  1  0
  4  5  1  0
  5  6  1  0
  6  7  2  0
  7  8  1  0
  8  9  2  0
  9 10  1  0
 10 11  2  0
  9 12  1  0
 12 13  2  0
 12 14  1  0
 14 15  1  0
 15 16  1  0
 16 17  1  0
 17 18  1  0
 18 19  1  0
 19 20  1  0
 20 21  1  0
 21 22  1  0
 22 23  1  0
 23 24  1  0
 24 25  1  0
 25 26  1  0
 26 27  1  0
 27 28  1  0
 28 29  1  0
 29 30  1  0
 30 31  1  0
 31 32  1  0
 32 33  1  0
 33 34  1  0
 34 35  1  0
 35 36  1  0
 36 37  1  0
 37 38  1  0
 38 39  1  0
 39 40  1  0
 40 41  1  0
 41 42  1  0
 11  6  1  0
  1 43  1  0
  1 44  1  0
  1 45  1  0
  2 46  1  0
  2 47  1  0
  3 48  1  0
  3 49  1  0
  4 50  1  0
  4 51  1  0
  5 52  1  0
  7 53  1  0
  8 54  1  0
 10 55  1  0
 11 56  1  0
 15 57  1  0
 15 58  1  0
 16 59  1  0
 16 60  1  0
 18 61  1  0
 18 62  1  0
 19 63  1  0
 19 64  1  0
 21 65  1  0
 21 66  1  0
 22 67  1  0
 22 68  1  0
 24 69  1  0
 24 70  1  0
 25 71  1  0
 25 72  1  0
 27 73  1  0
 27 74  1  0
 28 75  1  0
 28 76  1  0
 30 77  1  0
 30 78  1  0
 31 79  1  0
 31 80  1  0
 33 81  1  0
 33 82  1  0
 34 83  1  0
 34 84  1  0
 36 85  1  0
 36 86  1  0
 37 87  1  0
 37 88  1  0
 39 89  1  0
 39 90  1  0
 40 91  1  0
 40 92  1  0
 42 93  1  0
 42 94  1  0
 42 95  1  0
M  END
$$$$
