@<TRIPOS>MOLECULE
*****
 70 74 0 0 0
SMALL
GASTEIGER

@<TRIPOS>ATOM
      1 C          -0.4910    3.5057   -0.5642 C.3     1  UNL1       -0.0421
      2 C          -0.2421    2.2204   -1.3188 C.3     1  UNL1        0.0515
      3 C           1.0899    1.6499   -1.0141 C.ar    1  UNL1       -0.0271
      4 C           1.9987    2.3331   -0.2446 C.ar    1  UNL1       -0.0562
      5 C           3.2253    1.7823    0.0195 C.ar    1  UNL1       -0.0537
      6 C           3.6197    0.5262   -0.4629 C.ar    1  UNL1       -0.0177
      7 C           4.9209   -0.0106   -0.1583 C.ar    1  UNL1       -0.0114
      8 C           5.1303   -1.3586   -0.0418 C.ar    1  UNL1       -0.0376
      9 C           6.4222   -1.8275    0.2594 C.ar    1  UNL1        0.0088
     10 N           7.4485   -0.9767    0.4334 N.ar    1  UNL1       -0.3121
     11 C           8.7920   -1.4613    0.7460 C.3     1  UNL1        0.0375
     12 C           9.1765   -1.4904    2.2416 C.3     1  UNL1       -0.0301
     13 C           8.9303   -2.7381    1.4762 C.3     1  UNL1       -0.0301
     14 C           7.2614    0.3391    0.3230 C.ar    1  UNL1        0.2521
     15 O           8.2363    1.1067    0.4907 O.2     1  UNL1       -0.2677
     16 C           5.9853    0.8341    0.0239 C.ar    1  UNL1        0.0107
     17 C           2.6653   -0.1194   -1.2335 C.ar    1  UNL1       -0.0537
     18 C           1.4293    0.4104   -1.5130 C.ar    1  UNL1       -0.0562
     19 N          -1.2657    1.2482   -1.1240 N.am    1  UNL1       -0.2605
     20 C          -2.1305    0.7777   -2.1832 C.3     1  UNL1        0.0224
     21 C          -3.5381    0.8586   -1.6399 C.3     1  UNL1        0.0077
     22 C          -3.7206   -0.0179   -0.3848 C.3     1  UNL1        0.1466
     23 C          -4.2336   -1.3247   -0.8948 C.3     1  UNL1        0.0200
     24 C          -4.4523   -2.3868    0.0954 C.3     1  UNL1        0.0645
     25 C          -4.9455   -3.6665   -0.6103 C.3     1  UNL1       -0.0362
     26 C          -5.4058   -2.0185    1.1807 C.3     1  UNL1       -0.0362
     27 O          -3.2405   -2.7673    0.7169 O.3     1  UNL1       -0.3890
     28 C          -4.6438    0.7769    0.4511 C.ar    1  UNL1        0.0311
     29 C          -4.2631    1.2286    1.6959 C.ar    1  UNL1       -0.0520
     30 C          -5.0861    2.0051    2.5009 C.ar    1  UNL1       -0.0612
     31 C          -6.3433    2.3464    2.0461 C.ar    1  UNL1       -0.0590
     32 C          -6.7571    1.9132    0.8083 C.ar    1  UNL1       -0.0260
     33 C          -5.9042    1.1347    0.0257 C.ar    1  UNL1        0.1303
     34 F          -6.3931    0.7616   -1.1723 F       1  UNL1       -0.2051
     35 O          -2.5289   -0.2083    0.3252 O.3     1  UNL1       -0.4386
     36 C          -1.4877    0.6893    0.1604 C.2     1  UNL1        0.4042
     37 O          -0.7137    1.0483    1.0845 O.2     1  UNL1       -0.2262
     38 H           0.2150    4.2591   -0.9892 H       1  UNL1        0.0251
     39 H          -0.2756    3.4334    0.5109 H       1  UNL1        0.0251
     40 H          -1.5036    3.8482   -0.8000 H       1  UNL1        0.0251
     41 H          -0.2535    2.5113   -2.4079 H       1  UNL1        0.0549
     42 H           1.7329    3.2984    0.1433 H       1  UNL1        0.0621
     43 H           3.9563    2.3042    0.6242 H       1  UNL1        0.0624
     44 H           4.3264   -2.0943   -0.1744 H       1  UNL1        0.0638
     45 H           6.5632   -2.8861    0.3449 H       1  UNL1        0.0810
     46 H           9.6109   -1.1223    0.0496 H       1  UNL1        0.0529
     47 H           8.4050   -1.1214    2.9406 H       1  UNL1        0.0286
     48 H          10.2050   -1.1488    2.4669 H       1  UNL1        0.0286
     49 H           8.0182   -3.3021    1.7071 H       1  UNL1        0.0286
     50 H           9.8473   -3.3613    1.2682 H       1  UNL1        0.0286
     51 H           5.8489    1.9027   -0.0625 H       1  UNL1        0.0678
     52 H           2.9331   -1.0923   -1.6239 H       1  UNL1        0.0624
     53 H           0.6924   -0.1301   -2.1306 H       1  UNL1        0.0621
     54 H          -1.9010   -0.3032   -2.3478 H       1  UNL1        0.0467
     55 H          -2.0995    1.3818   -3.0910 H       1  UNL1        0.0467
     56 H          -4.2233    0.5314   -2.4427 H       1  UNL1        0.0322
     57 H          -3.7497    1.9247   -1.4331 H       1  UNL1        0.0322
     58 H          -5.2094   -1.1532   -1.4330 H       1  UNL1        0.0335
     59 H          -3.5258   -1.7385   -1.6783 H       1  UNL1        0.0335
     60 H          -4.9822   -4.4443    0.1792 H       1  UNL1        0.0257
     61 H          -4.1211   -3.9525   -1.2991 H       1  UNL1        0.0257
     62 H          -5.8974   -3.5087   -1.1142 H       1  UNL1        0.0257
     63 H          -6.3189   -1.5025    0.8316 H       1  UNL1        0.0257
     64 H          -4.9767   -1.4343    2.0131 H       1  UNL1        0.0257
     65 H          -5.8157   -2.9740    1.6701 H       1  UNL1        0.0257
     66 H          -3.2703   -3.7186    0.9902 H       1  UNL1        0.2101
     67 H          -3.2821    0.9603    2.0500 H       1  UNL1        0.0622
     68 H          -4.7615    2.3523    3.4860 H       1  UNL1        0.0618
     69 H          -6.9818    2.9626    2.6982 H       1  UNL1        0.0618
     70 H          -7.7505    2.1944    0.4714 H       1  UNL1        0.0646
@<TRIPOS>BOND
     1     1     2    1
     2     2     3    1
     3     3     4   ar
     4     4     5   ar
     5     5     6   ar
     6     6     7    1
     7     7     8   ar
     8     8     9   ar
     9     9    10   ar
    10    10    11    1
    11    11    12    1
    12    12    13    1
    13    10    14   ar
    14    14    15    2
    15    14    16   ar
    16     6    17   ar
    17    17    18   ar
    18     2    19    1
    19    19    20    1
    20    20    21    1
    21    21    22    1
    22    22    23    1
    23    23    24    1
    24    24    25    1
    25    24    26    1
    26    24    27    1
    27    22    28    1
    28    28    29   ar
    29    29    30   ar
    30    30    31   ar
    31    31    32   ar
    32    32    33   ar
    33    33    34    1
    34    22    35    1
    35    35    36    1
    36    36    37    2
    37    18     3   ar
    38    36    19   am
    39    16     7   ar
    40    33    28   ar
    41    13    11    1
    42     1    38    1
    43     1    39    1
    44     1    40    1
    45     2    41    1
    46     4    42    1
    47     5    43    1
    48     8    44    1
    49     9    45    1
    50    11    46    1
    51    12    47    1
    52    12    48    1
    53    13    49    1
    54    13    50    1
    55    16    51    1
    56    17    52    1
    57    18    53    1
    58    20    54    1
    59    20    55    1
    60    21    56    1
    61    21    57    1
    62    23    58    1
    63    23    59    1
    64    25    60    1
    65    25    61    1
    66    25    62    1
    67    26    63    1
    68    26    64    1
    69    26    65    1
    70    27    66    1
    71    29    67    1
    72    30    68    1
    73    31    69    1
    74    32    70    1
