
     RDKit          3D

 67 70  0  0  0  0  0  0  0  0999 V2000
    4.7755    0.3967   -1.6000 O   0  0  0  0  0  0  0  0  0  0  0  0
    4.1853    0.0427   -0.5337 C   0  0  0  0  0  0  0  0  0  0  0  0
    3.4814    1.0616    0.1477 N   0  0  0  0  0  0  0  0  0  0  0  0
    3.4454    2.4374   -0.3595 C   0  0  2  0  0  0  0  0  0  0  0  0
    4.1092    3.2990    0.6913 C   0  0  0  0  0  0  0  0  0  0  0  0
    3.8769    4.7710    0.4446 C   0  0  0  0  0  0  0  0  0  0  0  0
    3.8394    5.1163   -1.0146 C   0  0  0  0  0  0  0  0  0  0  0  0
    2.4358    5.0930   -1.5884 C   0  0  0  0  0  0  0  0  0  0  0  0
    1.9741    3.6861   -1.8718 C   0  0  0  0  0  0  0  0  0  0  0  0
    2.0410    2.9253   -0.5401 C   0  0  1  0  0  0  0  0  0  0  0  0
    1.0996    1.8666   -0.6656 O   0  0  0  0  0  0  0  0  0  0  0  0
   -0.0355    1.7656    0.0886 C   0  0  0  0  0  0  0  0  0  0  0  0
   -0.2517    2.6719    0.9454 O   0  0  0  0  0  0  0  0  0  0  0  0
   -1.0033    0.6857   -0.0341 C   0  0  0  0  0  0  0  0  0  0  0  0
   -0.8337   -0.3333   -0.9424 C   0  0  0  0  0  0  0  0  0  0  0  0
   -1.7644   -1.3448   -1.0410 C   0  0  0  0  0  0  0  0  0  0  0  0
   -1.6110   -2.3928   -1.9597 O   0  0  0  0  0  0  0  0  0  0  0  0
   -2.9116   -1.3907   -0.2380 C   0  0  0  0  0  0  0  0  0  0  0  0
   -3.7941   -2.5100   -0.2852 C   0  0  0  0  0  0  0  0  0  0  0  0
   -3.2503   -3.6065   -0.7127 O   0  0  0  0  0  0  0  0  0  0  0  0
   -5.1848   -2.6207    0.0749 C   0  0  0  0  0  0  0  0  0  0  0  0
   -5.5506   -3.8263    0.7292 C   0  0  0  0  0  0  0  0  0  0  0  0
   -4.5459   -4.7707    0.9817 O   0  0  0  0  0  0  0  0  0  0  0  0
   -6.8361   -4.0728    1.1069 C   0  0  0  0  0  0  0  0  0  0  0  0
   -7.8363   -3.1623    0.8698 C   0  0  0  0  0  0  0  0  0  0  0  0
   -7.5157   -2.0064    0.2440 C   0  0  0  0  0  0  0  0  0  0  0  0
   -6.1848   -1.7351   -0.1589 C   0  0  0  0  0  0  0  0  0  0  0  0
   -5.9784   -0.5745   -1.0113 C   0  0  0  0  0  0  0  0  0  0  0  0
   -4.9423   -0.3822   -1.6412 O   0  0  0  0  0  0  0  0  0  0  0  0
   -6.9822    0.3752   -1.1359 O   0  0  0  0  0  0  0  0  0  0  0  0
   -3.0840   -0.3759    0.6710 C   0  0  0  0  0  0  0  0  0  0  0  0
   -4.1750   -0.3214    1.5187 O   0  0  0  0  0  0  0  0  0  0  0  0
   -2.1306    0.6297    0.7475 C   0  0  0  0  0  0  0  0  0  0  0  0
    4.2473   -1.3440   -0.0624 C   0  0  0  0  0  0  0  0  0  0  0  0
    4.9511   -2.2879   -0.7752 C   0  0  0  0  0  0  0  0  0  0  0  0
    5.0519   -3.6008   -0.3945 C   0  0  0  0  0  0  0  0  0  0  0  0
    4.4252   -4.0234    0.7581 C   0  0  0  0  0  0  0  0  0  0  0  0
    4.4935   -5.3370    1.1900 O   0  0  0  0  0  0  0  0  0  0  0  0
    3.7054   -3.0852    1.4984 C   0  0  0  0  0  0  0  0  0  0  0  0
    3.6182   -1.7559    1.0896 C   0  0  0  0  0  0  0  0  0  0  0  0
    2.9717    0.8546    1.0279 H   0  0  0  0  0  0  0  0  0  0  0  0
    4.0203    2.5320   -1.2940 H   0  0  0  0  0  0  0  0  0  0  0  0
    3.6217    3.0522    1.6657 H   0  0  0  0  0  0  0  0  0  0  0  0
    5.1843    3.0598    0.8070 H   0  0  0  0  0  0  0  0  0  0  0  0
    4.7286    5.3147    0.9028 H   0  0  0  0  0  0  0  0  0  0  0  0
    2.9651    5.1456    0.9165 H   0  0  0  0  0  0  0  0  0  0  0  0
    4.5446    4.5174   -1.6187 H   0  0  0  0  0  0  0  0  0  0  0  0
    4.1934    6.1813   -1.1105 H   0  0  0  0  0  0  0  0  0  0  0  0
    2.3805    5.7365   -2.4883 H   0  0  0  0  0  0  0  0  0  0  0  0
    1.7528    5.5209   -0.8232 H   0  0  0  0  0  0  0  0  0  0  0  0
    0.9581    3.7146   -2.2638 H   0  0  0  0  0  0  0  0  0  0  0  0
    2.6100    3.1694   -2.6092 H   0  0  0  0  0  0  0  0  0  0  0  0
    1.7536    3.6505    0.2303 H   0  0  0  0  0  0  0  0  0  0  0  0
    0.0469   -0.3358   -1.5879 H   0  0  0  0  0  0  0  0  0  0  0  0
   -1.1409   -3.2313   -1.6477 H   0  0  0  0  0  0  0  0  0  0  0  0
   -4.6985   -5.7483    0.7646 H   0  0  0  0  0  0  0  0  0  0  0  0
   -7.0770   -5.0052    1.6046 H   0  0  0  0  0  0  0  0  0  0  0  0
   -8.8336   -3.4216    1.1991 H   0  0  0  0  0  0  0  0  0  0  0  0
   -8.2650   -1.2632    0.0366 H   0  0  0  0  0  0  0  0  0  0  0  0
   -6.8615    1.1984   -1.7469 H   0  0  0  0  0  0  0  0  0  0  0  0
   -4.6291    0.5758    1.7425 H   0  0  0  0  0  0  0  0  0  0  0  0
   -2.2572    1.4460    1.4684 H   0  0  0  0  0  0  0  0  0  0  0  0
    5.4557   -1.9647   -1.6963 H   0  0  0  0  0  0  0  0  0  0  0  0
    5.6124   -4.3400   -0.9675 H   0  0  0  0  0  0  0  0  0  0  0  0
    5.3601   -5.8853    1.1272 H   0  0  0  0  0  0  0  0  0  0  0  0
    3.2029   -3.3790    2.4042 H   0  0  0  0  0  0  0  0  0  0  0  0
    3.0470   -1.0584    1.6964 H   0  0  0  0  0  0  0  0  0  0  0  0
  1  2  2  0
  2  3  1  0
  3  4  1  0
  4  5  1  0
  5  6  1  0
  6  7  1  0
  7  8  1  0
  8  9  1  0
  9 10  1  0
 10 11  1  0
 11 12  1  0
 12 13  2  0
 12 14  1  0
 14 15  2  0
 15 16  1  0
 16 17  1  0
 16 18  2  0
 18 19  1  0
 19 20  2  0
 19 21  1  0
 21 22  2  0
 22 23  1  0
 22 24  1  0
 24 25  2  0
 25 26  1  0
 26 27  2  0
 27 28  1  0
 28 29  2  0
 28 30  1  0
 18 31  1  0
 31 32  1  0
 31 33  2  0
  2 34  1  0
 34 35  2  0
 35 36  1  0
 36 37  2  0
 37 38  1  0
 37 39  1  0
 39 40  2  0
 10  4  1  0
 33 14  1  0
 40 34  1  0
 27 21  1  0
  3 41  1  0
  4 42  1  6
  5 43  1  0
  5 44  1  0
  6 45  1  0
  6 46  1  0
  7 47  1  0
  7 48  1  0
  8 49  1  0
  8 50  1  0
  9 51  1  0
  9 52  1  0
 10 53  1  1
 15 54  1  0
 17 55  1  0
 23 56  1  0
 24 57  1  0
 25 58  1  0
 26 59  1  0
 30 60  1  0
 32 61  1  0
 33 62  1  0
 35 63  1  0
 36 64  1  0
 38 65  1  0
 39 66  1  0
 40 67  1  0
M  END
$$$$
