@<TRIPOS>MOLECULE
*****
 67 70 0 0 0
SMALL
GASTEIGER

@<TRIPOS>ATOM
      1 O           4.7755    0.3967   -1.6000 O.2     1  UNL1       -0.2702
      2 C           4.1853    0.0427   -0.5337 C.2     1  UNL1        0.2444
      3 N           3.4814    1.0616    0.1477 N.am    1  UNL1       -0.3050
      4 C           3.4454    2.4374   -0.3595 C.3     1  UNL1        0.0604
      5 C           4.1092    3.2990    0.6913 C.3     1  UNL1       -0.0311
      6 C           3.8769    4.7710    0.4446 C.3     1  UNL1       -0.0513
      7 C           3.8394    5.1163   -1.0146 C.3     1  UNL1       -0.0529
      8 C           2.4358    5.0930   -1.5884 C.3     1  UNL1       -0.0496
      9 C           1.9741    3.6861   -1.8718 C.3     1  UNL1       -0.0139
     10 C           2.0410    2.9253   -0.5401 C.3     1  UNL1        0.1216
     11 O           1.0996    1.8666   -0.6656 O.3     1  UNL1       -0.4560
     12 C          -0.0355    1.7656    0.0886 C.2     1  UNL1        0.3397
     13 O          -0.2517    2.6719    0.9454 O.2     1  UNL1       -0.2449
     14 C          -1.0033    0.6857   -0.0341 C.ar    1  UNL1        0.0659
     15 C          -0.8337   -0.3333   -0.9424 C.ar    1  UNL1       -0.0053
     16 C          -1.7644   -1.3448   -1.0410 C.ar    1  UNL1        0.1320
     17 O          -1.6110   -2.3928   -1.9597 O.3     1  UNL1       -0.5059
     18 C          -2.9116   -1.3907   -0.2380 C.ar    1  UNL1        0.1050
     19 C          -3.7941   -2.5100   -0.2852 C.2     1  UNL1        0.2044
     20 O          -3.2503   -3.6065   -0.7127 O.2     1  UNL1       -0.2863
     21 C          -5.1848   -2.6207    0.0749 C.ar    1  UNL1        0.0778
     22 C          -5.5506   -3.8263    0.7292 C.ar    1  UNL1        0.1285
     23 O          -4.5459   -4.7707    0.9817 O.3     1  UNL1       -0.5060
     24 C          -6.8361   -4.0728    1.1069 C.ar    1  UNL1       -0.0194
     25 C          -7.8363   -3.1623    0.8698 C.ar    1  UNL1       -0.0575
     26 C          -7.5157   -2.0064    0.2440 C.ar    1  UNL1       -0.0468
     27 C          -6.1848   -1.7351   -0.1589 C.ar    1  UNL1        0.0731
     28 C          -5.9784   -0.5745   -1.0113 C.2     1  UNL1        0.3376
     29 O          -4.9423   -0.3822   -1.6412 O.2     1  UNL1       -0.2451
     30 O          -6.9822    0.3752   -1.1359 O.3     1  UNL1       -0.4771
     31 C          -3.0840   -0.3759    0.6710 C.ar    1  UNL1        0.1320
     32 O          -4.1750   -0.3214    1.5187 O.3     1  UNL1       -0.5059
     33 C          -2.1306    0.6297    0.7475 C.ar    1  UNL1       -0.0053
     34 C           4.2473   -1.3440   -0.0624 C.ar    1  UNL1        0.0369
     35 C           4.9511   -2.2879   -0.7752 C.ar    1  UNL1       -0.0462
     36 C           5.0519   -3.6008   -0.3945 C.ar    1  UNL1       -0.0195
     37 C           4.4252   -4.0234    0.7581 C.ar    1  UNL1        0.1169
     38 O           4.4935   -5.3370    1.1900 O.3     1  UNL1       -0.5068
     39 C           3.7054   -3.0852    1.4984 C.ar    1  UNL1       -0.0195
     40 C           3.6182   -1.7559    1.0896 C.ar    1  UNL1       -0.0462
     41 H           2.9717    0.8546    1.0279 H       1  UNL1        0.1494
     42 H           4.0203    2.5320   -1.2940 H       1  UNL1        0.0535
     43 H           3.6217    3.0522    1.6657 H       1  UNL1        0.0284
     44 H           5.1843    3.0598    0.8070 H       1  UNL1        0.0284
     45 H           4.7286    5.3147    0.9028 H       1  UNL1        0.0266
     46 H           2.9651    5.1456    0.9165 H       1  UNL1        0.0266
     47 H           4.5446    4.5174   -1.6187 H       1  UNL1        0.0265
     48 H           4.1934    6.1813   -1.1105 H       1  UNL1        0.0265
     49 H           2.3805    5.7365   -2.4883 H       1  UNL1        0.0266
     50 H           1.7528    5.5209   -0.8232 H       1  UNL1        0.0266
     51 H           0.9581    3.7146   -2.2638 H       1  UNL1        0.0301
     52 H           2.6100    3.1694   -2.6092 H       1  UNL1        0.0301
     53 H           1.7536    3.6505    0.2303 H       1  UNL1        0.0753
     54 H           0.0469   -0.3358   -1.5879 H       1  UNL1        0.0662
     55 H          -1.1409   -3.2313   -1.6477 H       1  UNL1        0.2922
     56 H          -4.6985   -5.7483    0.7646 H       1  UNL1        0.2922
     57 H          -7.0770   -5.0052    1.6046 H       1  UNL1        0.0654
     58 H          -8.8336   -3.4216    1.1991 H       1  UNL1        0.0619
     59 H          -8.2650   -1.2632    0.0366 H       1  UNL1        0.0626
     60 H          -6.8615    1.1984   -1.7469 H       1  UNL1        0.2954
     61 H          -4.6291    0.5758    1.7425 H       1  UNL1        0.2922
     62 H          -2.2572    1.4460    1.4684 H       1  UNL1        0.0662
     63 H           5.4557   -1.9647   -1.6963 H       1  UNL1        0.0626
     64 H           5.6124   -4.3400   -0.9675 H       1  UNL1        0.0654
     65 H           5.3601   -5.8853    1.1272 H       1  UNL1        0.2921
     66 H           3.2029   -3.3790    2.4042 H       1  UNL1        0.0654
     67 H           3.0470   -1.0584    1.6964 H       1  UNL1        0.0626
@<TRIPOS>BOND
     1     1     2    2
     2     2     3   am
     3     3     4    1
     4     4     5    1
     5     5     6    1
     6     6     7    1
     7     7     8    1
     8     8     9    1
     9     9    10    1
    10    10    11    1
    11    11    12    1
    12    12    13    2
    13    12    14    1
    14    14    15   ar
    15    15    16   ar
    16    16    17    1
    17    16    18   ar
    18    18    19    1
    19    19    20    2
    20    19    21    1
    21    21    22   ar
    22    22    23    1
    23    22    24   ar
    24    24    25   ar
    25    25    26   ar
    26    26    27   ar
    27    27    28    1
    28    28    29    2
    29    28    30    1
    30    18    31   ar
    31    31    32    1
    32    31    33   ar
    33     2    34    1
    34    34    35   ar
    35    35    36   ar
    36    36    37   ar
    37    37    38    1
    38    37    39   ar
    39    39    40   ar
    40    10     4    1
    41    33    14   ar
    42    40    34   ar
    43    27    21   ar
    44     3    41    1
    45     4    42    1
    46     5    43    1
    47     5    44    1
    48     6    45    1
    49     6    46    1
    50     7    47    1
    51     7    48    1
    52     8    49    1
    53     8    50    1
    54     9    51    1
    55     9    52    1
    56    10    53    1
    57    15    54    1
    58    17    55    1
    59    23    56    1
    60    24    57    1
    61    25    58    1
    62    26    59    1
    63    30    60    1
    64    32    61    1
    65    33    62    1
    66    35    63    1
    67    36    64    1
    68    38    65    1
    69    39    66    1
    70    40    67    1
