
     RDKit          3D

 48 51  0  0  0  0  0  0  0  0999 V2000
   -3.7388   -3.6764   -0.0296 C   0  0  0  0  0  0  0  0  0  0  0  0
   -3.5045   -2.2058   -0.0187 C   0  0  0  0  0  0  0  0  0  0  0  0
   -2.2027   -1.7727   -0.6493 C   0  0  1  0  0  0  0  0  0  0  0  0
   -2.1587   -2.1960   -2.0788 C   0  0  0  0  0  0  0  0  0  0  0  0
   -2.2632   -3.5820   -2.1416 O   0  0  0  0  0  0  0  0  0  0  0  0
   -2.1268   -0.3302   -0.5077 N   0  0  0  0  0  0  0  0  0  0  0  0
   -3.1008    0.5169   -0.8164 C   0  0  0  0  0  0  0  0  0  0  0  0
   -2.6683    1.7646   -0.5552 N   0  0  0  0  0  0  0  0  0  0  0  0
   -1.3919    1.6740   -0.0728 C   0  0  0  0  0  0  0  0  0  0  0  0
   -0.5438    2.7868    0.3328 C   0  0  0  0  0  0  0  0  0  0  0  0
   -0.9103    3.5258    1.4357 C   0  0  0  0  0  0  0  0  0  0  0  0
   -0.1354    4.6082    1.8683 C   0  0  0  0  0  0  0  0  0  0  0  0
    1.0117    4.9335    1.1740 C   0  0  0  0  0  0  0  0  0  0  0  0
    1.8110    5.9758    1.5427 F   0  0  0  0  0  0  0  0  0  0  0  0
    1.3508    4.1739    0.0742 C   0  0  0  0  0  0  0  0  0  0  0  0
    0.5847    3.0984   -0.3592 C   0  0  0  0  0  0  0  0  0  0  0  0
   -1.0531    0.3378   -0.0448 C   0  0  0  0  0  0  0  0  0  0  0  0
    0.2074   -0.2321    0.3989 C   0  0  0  0  0  0  0  0  0  0  0  0
    0.1769   -1.0876    1.4975 C   0  0  0  0  0  0  0  0  0  0  0  0
    1.3306   -1.6709    1.9811 C   0  0  0  0  0  0  0  0  0  0  0  0
    2.5044   -1.3532    1.3104 C   0  0  0  0  0  0  0  0  0  0  0  0
    3.7863   -1.7486    1.5258 N   0  0  0  0  0  0  0  0  0  0  0  0
    4.5583   -1.1554    0.5947 C   0  0  0  0  0  0  0  0  0  0  0  0
    3.7777   -0.3717   -0.2293 C   0  0  0  0  0  0  0  0  0  0  0  0
    4.1935    0.4421   -1.3608 C   0  0  0  0  0  0  0  0  0  0  0  0
    5.5591    0.4978   -1.7391 N   0  0  0  0  0  0  0  0  0  0  0  0
    3.3581    1.0986   -2.0102 O   0  0  0  0  0  0  0  0  0  0  0  0
    2.5166   -0.5256    0.2515 N   0  0  0  0  0  0  0  0  0  0  0  0
    1.3905    0.0181   -0.1880 N   0  0  0  0  0  0  0  0  0  0  0  0
   -2.7745   -4.2133    0.0424 H   0  0  0  0  0  0  0  0  0  0  0  0
   -4.2486   -3.9607   -0.9827 H   0  0  0  0  0  0  0  0  0  0  0  0
   -4.3924   -3.9369    0.8503 H   0  0  0  0  0  0  0  0  0  0  0  0
   -3.5311   -1.8442    1.0437 H   0  0  0  0  0  0  0  0  0  0  0  0
   -4.3459   -1.6979   -0.5634 H   0  0  0  0  0  0  0  0  0  0  0  0
   -1.3940   -2.3037   -0.1134 H   0  0  0  0  0  0  0  0  0  0  0  0
   -1.1583   -1.9339   -2.5114 H   0  0  0  0  0  0  0  0  0  0  0  0
   -2.9581   -1.7015   -2.6831 H   0  0  0  0  0  0  0  0  0  0  0  0
   -2.7736   -3.8750   -2.9285 H   0  0  0  0  0  0  0  0  0  0  0  0
   -4.0899    0.2575   -1.2152 H   0  0  0  0  0  0  0  0  0  0  0  0
   -1.7941    3.3221    2.0205 H   0  0  0  0  0  0  0  0  0  0  0  0
   -0.4068    5.2002    2.7315 H   0  0  0  0  0  0  0  0  0  0  0  0
    2.2498    4.4286   -0.4704 H   0  0  0  0  0  0  0  0  0  0  0  0
    0.9240    2.5598   -1.2323 H   0  0  0  0  0  0  0  0  0  0  0  0
   -0.7975   -1.2834    1.9691 H   0  0  0  0  0  0  0  0  0  0  0  0
    1.3185   -2.3327    2.8283 H   0  0  0  0  0  0  0  0  0  0  0  0
    5.6408   -1.2480    0.4687 H   0  0  0  0  0  0  0  0  0  0  0  0
    6.0958    1.3917   -1.8018 H   0  0  0  0  0  0  0  0  0  0  0  0
    6.1164   -0.3727   -1.9815 H   0  0  0  0  0  0  0  0  0  0  0  0
  1  2  1  0
  2  3  1  0
  3  4  1  0
  4  5  1  0
  3  6  1  0
  6  7  1  0
  7  8  2  0
  8  9  1  0
  9 10  1  0
 10 11  2  0
 11 12  1  0
 12 13  2  0
 13 14  1  0
 13 15  1  0
 15 16  2  0
  9 17  2  0
 17 18  1  0
 18 19  1  0
 19 20  2  0
 20 21  1  0
 21 22  2  0
 22 23  1  0
 23 24  2  0
 24 25  1  0
 25 26  1  0
 25 27  2  0
 24 28  1  0
 28 29  1  0
 17  6  1  0
 29 18  2  0
 16 10  1  0
 28 21  1  0
  1 30  1  0
  1 31  1  0
  1 32  1  0
  2 33  1  0
  2 34  1  0
  3 35  1  1
  4 36  1  0
  4 37  1  0
  5 38  1  0
  7 39  1  0
 11 40  1  0
 12 41  1  0
 15 42  1  0
 16 43  1  0
 19 44  1  0
 20 45  1  0
 23 46  1  0
 26 47  1  0
 26 48  1  0
M  END
$$$$
