@<TRIPOS>MOLECULE
*****
 48 51 0 0 0
SMALL
GASTEIGER

@<TRIPOS>ATOM
      1 C          -3.7388   -3.6764   -0.0296 C.3     1  UNL1       -0.0633
      2 C          -3.5045   -2.2058   -0.0187 C.3     1  UNL1       -0.0328
      3 C          -2.2027   -1.7727   -0.6493 C.3     1  UNL1        0.0588
      4 C          -2.1587   -2.1960   -2.0788 C.3     1  UNL1        0.0650
      5 O          -2.2632   -3.5820   -2.1416 O.3     1  UNL1       -0.3930
      6 N          -2.1268   -0.3302   -0.5077 N.ar    1  UNL1       -0.3231
      7 C          -3.1008    0.5169   -0.8164 C.ar    1  UNL1        0.0974
      8 N          -2.6683    1.7646   -0.5552 N.ar    1  UNL1       -0.2351
      9 C          -1.3919    1.6740   -0.0728 C.ar    1  UNL1        0.0982
     10 C          -0.5438    2.7868    0.3328 C.ar    1  UNL1        0.0027
     11 C          -0.9103    3.5258    1.4357 C.ar    1  UNL1       -0.0498
     12 C          -0.1354    4.6082    1.8683 C.ar    1  UNL1       -0.0258
     13 C           1.0117    4.9335    1.1740 C.ar    1  UNL1        0.1234
     14 F           1.8110    5.9758    1.5427 F       1  UNL1       -0.2055
     15 C           1.3508    4.1739    0.0742 C.ar    1  UNL1       -0.0258
     16 C           0.5847    3.0984   -0.3592 C.ar    1  UNL1       -0.0498
     17 C          -1.0531    0.3378   -0.0448 C.ar    1  UNL1        0.0969
     18 C           0.2074   -0.2321    0.3989 C.ar    1  UNL1        0.1103
     19 C           0.1769   -1.0876    1.4975 C.ar    1  UNL1       -0.0290
     20 C           1.3306   -1.6709    1.9811 C.ar    1  UNL1       -0.0153
     21 C           2.5044   -1.3532    1.3104 C.ar    1  UNL1        0.1549
     22 N           3.7863   -1.7486    1.5258 N.ar    1  UNL1       -0.2339
     23 C           4.5583   -1.1554    0.5947 C.ar    1  UNL1        0.0605
     24 C           3.7777   -0.3717   -0.2293 C.ar    1  UNL1        0.1470
     25 C           4.1935    0.4421   -1.3608 C.2     1  UNL1        0.2615
     26 N           5.5591    0.4978   -1.7391 N.am    1  UNL1       -0.3240
     27 O           3.3581    1.0986   -2.0102 O.2     1  UNL1       -0.2687
     28 N           2.5166   -0.5256    0.2515 N.ar    1  UNL1       -0.2076
     29 N           1.3905    0.0181   -0.1880 N.ar    1  UNL1       -0.1628
     30 H          -2.7745   -4.2133    0.0424 H       1  UNL1        0.0230
     31 H          -4.2486   -3.9607   -0.9827 H       1  UNL1        0.0230
     32 H          -4.3924   -3.9369    0.8503 H       1  UNL1        0.0230
     33 H          -3.5311   -1.8442    1.0437 H       1  UNL1        0.0283
     34 H          -4.3459   -1.6979   -0.5634 H       1  UNL1        0.0283
     35 H          -1.3940   -2.3037   -0.1134 H       1  UNL1        0.0551
     36 H          -1.1583   -1.9339   -2.5114 H       1  UNL1        0.0578
     37 H          -2.9581   -1.7015   -2.6831 H       1  UNL1        0.0578
     38 H          -2.7736   -3.8750   -2.9285 H       1  UNL1        0.2095
     39 H          -4.0899    0.2575   -1.2152 H       1  UNL1        0.1029
     40 H          -1.7941    3.3221    2.0205 H       1  UNL1        0.0625
     41 H          -0.4068    5.2002    2.7315 H       1  UNL1        0.0646
     42 H           2.2498    4.4286   -0.4704 H       1  UNL1        0.0646
     43 H           0.9240    2.5598   -1.2323 H       1  UNL1        0.0625
     44 H          -0.7975   -1.2834    1.9691 H       1  UNL1        0.0641
     45 H           1.3185   -2.3327    2.8283 H       1  UNL1        0.0655
     46 H           5.6408   -1.2480    0.4687 H       1  UNL1        0.0854
     47 H           6.0958    1.3917   -1.8018 H       1  UNL1        0.1453
     48 H           6.1164   -0.3727   -1.9815 H       1  UNL1        0.1453
@<TRIPOS>BOND
     1     1     2    1
     2     2     3    1
     3     3     4    1
     4     4     5    1
     5     3     6    1
     6     6     7   ar
     7     7     8   ar
     8     8     9   ar
     9     9    10    1
    10    10    11   ar
    11    11    12   ar
    12    12    13   ar
    13    13    14    1
    14    13    15   ar
    15    15    16   ar
    16     9    17   ar
    17    17    18    1
    18    18    19   ar
    19    19    20   ar
    20    20    21   ar
    21    21    22   ar
    22    22    23   ar
    23    23    24   ar
    24    24    25    1
    25    25    26   am
    26    25    27    2
    27    24    28   ar
    28    28    29   ar
    29    17     6   ar
    30    29    18   ar
    31    16    10   ar
    32    28    21   ar
    33     1    30    1
    34     1    31    1
    35     1    32    1
    36     2    33    1
    37     2    34    1
    38     3    35    1
    39     4    36    1
    40     4    37    1
    41     5    38    1
    42     7    39    1
    43    11    40    1
    44    12    41    1
    45    15    42    1
    46    16    43    1
    47    19    44    1
    48    20    45    1
    49    23    46    1
    50    26    47    1
    51    26    48    1
