@<TRIPOS>MOLECULE
*****
 42 44 0 0 0
SMALL
GASTEIGER

@<TRIPOS>ATOM
      1 C           4.4040    0.8041    0.0403 C.3     1  UNL1       -0.0130
      2 N           4.0756   -0.5827    0.2641 N.3     1  UNL1       -0.3081
      3 C           4.8294   -1.3723   -0.6864 C.3     1  UNL1       -0.0130
      4 C           2.6962   -0.8004    0.0187 C.3     1  UNL1        0.0018
      5 C           1.7449   -0.1745    0.9989 C.3     1  UNL1       -0.0211
      6 C           0.3099   -0.4707    0.6351 C.2     1  UNL1       -0.0744
      7 C          -0.9001   -0.0630    0.2806 C.2     1  UNL1       -0.0108
      8 C          -1.9578   -1.1004    0.0727 C.ar    1  UNL1       -0.0111
      9 C          -1.3858   -2.2162   -0.5081 C.ar    1  UNL1       -0.0537
     10 C          -2.2358   -3.2552   -0.7375 C.ar    1  UNL1       -0.0612
     11 C          -3.5875   -3.1351   -0.3854 C.ar    1  UNL1       -0.0614
     12 C          -4.1089   -1.9757    0.2009 C.ar    1  UNL1       -0.0548
     13 C          -3.2775   -0.8833    0.4563 C.ar    1  UNL1       -0.0027
     14 C          -4.0074    0.2196    1.0642 C.3     1  UNL1        0.1152
     15 O          -3.4710    1.4872    1.0405 O.3     1  UNL1       -0.4867
     16 C          -2.3198    2.0443    0.5023 C.ar    1  UNL1        0.1287
     17 C          -2.3258    3.3980    0.3014 C.ar    1  UNL1       -0.0193
     18 C          -1.2067    4.0355   -0.2374 C.ar    1  UNL1       -0.0583
     19 C          -0.0462    3.3442   -0.5939 C.ar    1  UNL1       -0.0610
     20 C          -0.0002    1.9850   -0.4086 C.ar    1  UNL1       -0.0505
     21 C          -1.1338    1.4024    0.1292 C.ar    1  UNL1        0.0241
     22 H           3.4897    1.4051    0.1109 H       1  UNL1        0.0391
     23 H           4.7592    0.8872   -1.0264 H       1  UNL1        0.0391
     24 H           5.1889    1.1686    0.7393 H       1  UNL1        0.0391
     25 H           5.9004   -1.4661   -0.4432 H       1  UNL1        0.0391
     26 H           4.8030   -0.7737   -1.6419 H       1  UNL1        0.0391
     27 H           4.3295   -2.3373   -0.9156 H       1  UNL1        0.0391
     28 H           2.4515   -1.9037   -0.0155 H       1  UNL1        0.0429
     29 H           2.3743   -0.4424   -1.0053 H       1  UNL1        0.0429
     30 H           2.0237   -0.6658    1.9949 H       1  UNL1        0.0320
     31 H           1.9197    0.8675    1.2457 H       1  UNL1        0.0320
     32 H           0.4007   -1.5408    0.7708 H       1  UNL1        0.0579
     33 H          -0.3355   -2.2265   -0.7651 H       1  UNL1        0.0624
     34 H          -1.8878   -4.1590   -1.1824 H       1  UNL1        0.0618
     35 H          -4.2834   -3.9634   -0.5652 H       1  UNL1        0.0618
     36 H          -5.1592   -1.9252    0.4568 H       1  UNL1        0.0622
     37 H          -5.0631    0.1729    0.6625 H       1  UNL1        0.0748
     38 H          -4.1538   -0.0538    2.1519 H       1  UNL1        0.0748
     39 H          -3.2072    3.9394    0.5698 H       1  UNL1        0.0654
     40 H          -1.2759    5.1258   -0.3733 H       1  UNL1        0.0619
     41 H           0.8009    3.8498   -1.0061 H       1  UNL1        0.0618
     42 H           0.8285    1.3508   -0.6623 H       1  UNL1        0.0625
@<TRIPOS>BOND
     1     1     2    1
     2     2     3    1
     3     2     4    1
     4     4     5    1
     5     5     6    1
     6     6     7    2
     7     7     8    1
     8     8     9   ar
     9     9    10   ar
    10    10    11   ar
    11    11    12   ar
    12    12    13   ar
    13    13    14    1
    14    14    15    1
    15    15    16    1
    16    16    17   ar
    17    17    18   ar
    18    18    19   ar
    19    19    20   ar
    20    20    21   ar
    21    21     7    1
    22    13     8   ar
    23    21    16   ar
    24     1    22    1
    25     1    23    1
    26     1    24    1
    27     3    25    1
    28     3    26    1
    29     3    27    1
    30     4    28    1
    31     4    29    1
    32     5    30    1
    33     5    31    1
    34     6    32    1
    35     9    33    1
    36    10    34    1
    37    11    35    1
    38    12    36    1
    39    14    37    1
    40    14    38    1
    41    17    39    1
    42    18    40    1
    43    19    41    1
    44    20    42    1
