@<TRIPOS>MOLECULE
*****
 76 82 0 0 0
SMALL
GASTEIGER

@<TRIPOS>ATOM
      1 C          -8.5223   -1.1000    0.5052 C.3     1  UNL1       -0.0524
      2 C          -7.5432   -2.2112    0.6784 C.3     1  UNL1       -0.0039
      3 N          -6.2468   -1.9300    0.1214 N.3     1  UNL1       -0.3002
      4 C          -6.2285   -1.8586   -1.3009 C.3     1  UNL1        0.0117
      5 C          -5.8371   -0.5513   -1.8725 C.3     1  UNL1        0.0122
      6 N          -4.6244    0.0050   -1.2156 N.3     1  UNL1       -0.2916
      7 C          -3.5880   -0.9808   -1.2080 C.3     1  UNL1        0.0761
      8 C          -2.2281   -0.5075   -0.9368 C.2     1  UNL1        0.2313
      9 O          -1.2867   -1.3611   -0.9264 O.2     1  UNL1       -0.2741
     10 N          -1.8926    0.8261   -0.6969 N.am    1  UNL1       -0.2839
     11 C          -0.5696    1.3029   -0.4801 C.ar    1  UNL1        0.0423
     12 C           0.0891    1.6448   -1.6673 C.ar    1  UNL1       -0.0392
     13 C           1.3698    2.1426   -1.7106 C.ar    1  UNL1       -0.0511
     14 C           2.0157    2.3040   -0.5054 C.ar    1  UNL1        0.0001
     15 C           3.3543    2.8367   -0.4079 C.ar    1  UNL1        0.0263
     16 C           3.5575    4.2208   -0.2677 C.ar    1  UNL1       -0.0504
     17 C           4.7948    4.7788   -0.1755 C.ar    1  UNL1       -0.0603
     18 C           5.8778    3.9557   -0.2219 C.ar    1  UNL1       -0.0473
     19 C           5.6989    2.5874   -0.3595 C.ar    1  UNL1        0.0647
     20 C           6.8208    1.7716   -0.4050 C.ar    1  UNL1        0.1944
     21 O           7.9687    2.2797   -0.3195 O.2     1  UNL1       -0.2870
     22 C           6.5807    0.4262   -0.5434 C.ar    1  UNL1        0.0434
     23 C           5.2826   -0.0978   -0.6341 C.ar    1  UNL1        0.1931
     24 N           5.2265   -1.5051   -0.7708 N.pl3   1  UNL1       -0.2969
     25 C           5.1357   -2.3343    0.4128 C.3     1  UNL1        0.0383
     26 C           6.2093   -3.4168    0.2174 C.3     1  UNL1        0.0635
     27 O           5.7898   -4.1725   -0.8861 O.3     1  UNL1       -0.3767
     28 C           5.9494   -3.4715   -2.0586 C.3     1  UNL1        0.0635
     29 C           5.2676   -2.1215   -2.0592 C.3     1  UNL1        0.0383
     30 O           4.2486    0.7095   -0.5871 O.2     1  UNL1       -0.4405
     31 C           4.4410    2.0099   -0.4542 C.ar    1  UNL1        0.1485
     32 C           1.3504    1.9607    0.6539 C.ar    1  UNL1        0.0301
     33 S           1.9312    2.0717    2.2862 S.2     1  UNL1       -0.0876
     34 C           0.3933    1.4244    3.0642 C.ar    1  UNL1        0.0206
     35 C           0.1071    1.2267    4.3861 C.ar    1  UNL1       -0.0474
     36 C          -1.1288    0.7312    4.7208 C.ar    1  UNL1       -0.0607
     37 C          -1.9880    0.4717    3.6686 C.ar    1  UNL1       -0.0611
     38 C          -1.6701    0.6804    2.3602 C.ar    1  UNL1       -0.0529
     39 C          -0.3893    1.1955    1.9944 C.ar    1  UNL1       -0.0013
     40 C           0.0775    1.4619    0.7440 C.ar    1  UNL1        0.0187
     41 C          -5.1633    0.2993    0.1206 C.3     1  UNL1        0.0122
     42 C          -5.4840   -0.9628    0.8355 C.3     1  UNL1        0.0117
     43 H          -8.6077   -0.8318   -0.5634 H       1  UNL1        0.0242
     44 H          -9.5433   -1.4963    0.7832 H       1  UNL1        0.0242
     45 H          -8.2300   -0.2703    1.1721 H       1  UNL1        0.0242
     46 H          -7.9233   -3.1285    0.1387 H       1  UNL1        0.0424
     47 H          -7.4075   -2.5027    1.7365 H       1  UNL1        0.0424
     48 H          -5.6013   -2.6696   -1.7346 H       1  UNL1        0.0439
     49 H          -7.2754   -2.0751   -1.6500 H       1  UNL1        0.0439
     50 H          -5.6876   -0.6165   -2.9491 H       1  UNL1        0.0439
     51 H          -6.6404    0.1887   -1.6747 H       1  UNL1        0.0439
     52 H          -3.8496   -1.8764   -0.5945 H       1  UNL1        0.0522
     53 H          -3.5625   -1.3953   -2.2644 H       1  UNL1        0.0522
     54 H          -2.6621    1.5646   -0.6815 H       1  UNL1        0.1549
     55 H          -0.4236    1.5168   -2.6158 H       1  UNL1        0.0636
     56 H           1.8832    2.4082   -2.6080 H       1  UNL1        0.0625
     57 H           2.6915    4.8490   -0.2350 H       1  UNL1        0.0625
     58 H           4.8691    5.8557   -0.0697 H       1  UNL1        0.0618
     59 H           6.8679    4.3602   -0.1504 H       1  UNL1        0.0626
     60 H           7.4551   -0.2142   -0.5788 H       1  UNL1        0.0707
     61 H           4.1476   -2.7731    0.5741 H       1  UNL1        0.0487
     62 H           5.4472   -1.7508    1.3240 H       1  UNL1        0.0487
     63 H           7.1585   -2.8743   -0.0232 H       1  UNL1        0.0575
     64 H           6.3660   -4.0049    1.1198 H       1  UNL1        0.0575
     65 H           7.0055   -3.4465   -2.3333 H       1  UNL1        0.0575
     66 H           5.4531   -4.0842   -2.8626 H       1  UNL1        0.0575
     67 H           5.8027   -1.4968   -2.8008 H       1  UNL1        0.0487
     68 H           4.2258   -2.2555   -2.4217 H       1  UNL1        0.0487
     69 H           0.8652    1.4681    5.1319 H       1  UNL1        0.0629
     70 H          -1.4018    0.5604    5.7400 H       1  UNL1        0.0618
     71 H          -2.9740    0.0767    3.9317 H       1  UNL1        0.0618
     72 H          -2.4177    0.4429    1.6377 H       1  UNL1        0.0624
     73 H          -4.4410    0.8910    0.6622 H       1  UNL1        0.0439
     74 H          -6.0695    0.9209   -0.0881 H       1  UNL1        0.0439
     75 H          -4.5647   -1.4050    1.2617 H       1  UNL1        0.0439
     76 H          -6.1023   -0.6780    1.7388 H       1  UNL1        0.0439
@<TRIPOS>BOND
     1     1     2    1
     2     2     3    1
     3     3     4    1
     4     4     5    1
     5     5     6    1
     6     6     7    1
     7     7     8    1
     8     8     9    2
     9     8    10   am
    10    10    11    1
    11    11    12   ar
    12    12    13   ar
    13    13    14   ar
    14    14    15    1
    15    15    16   ar
    16    16    17   ar
    17    17    18   ar
    18    18    19   ar
    19    19    20   ar
    20    20    21    2
    21    20    22   ar
    22    22    23   ar
    23    23    24    1
    24    24    25    1
    25    25    26    1
    26    26    27    1
    27    27    28    1
    28    28    29    1
    29    23    30   ar
    30    30    31   ar
    31    14    32   ar
    32    32    33   ar
    33    33    34   ar
    34    34    35   ar
    35    35    36   ar
    36    36    37   ar
    37    37    38   ar
    38    38    39   ar
    39    39    40   ar
    40     6    41    1
    41    41    42    1
    42    42     3    1
    43    40    11   ar
    44    31    15   ar
    45    40    32   ar
    46    31    19   ar
    47    39    34   ar
    48    29    24    1
    49     1    43    1
    50     1    44    1
    51     1    45    1
    52     2    46    1
    53     2    47    1
    54     4    48    1
    55     4    49    1
    56     5    50    1
    57     5    51    1
    58     7    52    1
    59     7    53    1
    60    10    54    1
    61    12    55    1
    62    13    56    1
    63    16    57    1
    64    17    58    1
    65    18    59    1
    66    22    60    1
    67    25    61    1
    68    25    62    1
    69    26    63    1
    70    26    64    1
    71    28    65    1
    72    28    66    1
    73    29    67    1
    74    29    68    1
    75    35    69    1
    76    36    70    1
    77    37    71    1
    78    38    72    1
    79    41    73    1
    80    41    74    1
    81    42    75    1
    82    42    76    1
