
     RDKit          3D

 76 82  0  0  0  0  0  0  0  0999 V2000
   -8.5223   -1.1000    0.5052 C   0  0  0  0  0  0  0  0  0  0  0  0
   -7.5432   -2.2112    0.6784 C   0  0  0  0  0  0  0  0  0  0  0  0
   -6.2468   -1.9300    0.1214 N   0  0  0  0  0  0  0  0  0  0  0  0
   -6.2285   -1.8586   -1.3009 C   0  0  0  0  0  0  0  0  0  0  0  0
   -5.8371   -0.5513   -1.8725 C   0  0  0  0  0  0  0  0  0  0  0  0
   -4.6244    0.0050   -1.2156 N   0  0  0  0  0  0  0  0  0  0  0  0
   -3.5880   -0.9808   -1.2080 C   0  0  0  0  0  0  0  0  0  0  0  0
   -2.2281   -0.5075   -0.9368 C   0  0  0  0  0  0  0  0  0  0  0  0
   -1.2867   -1.3611   -0.9264 O   0  0  0  0  0  0  0  0  0  0  0  0
   -1.8926    0.8261   -0.6969 N   0  0  0  0  0  0  0  0  0  0  0  0
   -0.5696    1.3029   -0.4801 C   0  0  0  0  0  0  0  0  0  0  0  0
    0.0891    1.6448   -1.6673 C   0  0  0  0  0  0  0  0  0  0  0  0
    1.3698    2.1426   -1.7106 C   0  0  0  0  0  0  0  0  0  0  0  0
    2.0157    2.3040   -0.5054 C   0  0  0  0  0  0  0  0  0  0  0  0
    3.3543    2.8367   -0.4079 C   0  0  0  0  0  0  0  0  0  0  0  0
    3.5575    4.2208   -0.2677 C   0  0  0  0  0  0  0  0  0  0  0  0
    4.7948    4.7788   -0.1755 C   0  0  0  0  0  0  0  0  0  0  0  0
    5.8778    3.9557   -0.2219 C   0  0  0  0  0  0  0  0  0  0  0  0
    5.6989    2.5874   -0.3595 C   0  0  0  0  0  0  0  0  0  0  0  0
    6.8208    1.7716   -0.4050 C   0  0  0  0  0  0  0  0  0  0  0  0
    7.9687    2.2797   -0.3195 O   0  0  0  0  0  0  0  0  0  0  0  0
    6.5807    0.4262   -0.5434 C   0  0  0  0  0  0  0  0  0  0  0  0
    5.2826   -0.0978   -0.6341 C   0  0  0  0  0  0  0  0  0  0  0  0
    5.2265   -1.5051   -0.7708 N   0  0  0  0  0  0  0  0  0  0  0  0
    5.1357   -2.3343    0.4128 C   0  0  0  0  0  0  0  0  0  0  0  0
    6.2093   -3.4168    0.2174 C   0  0  0  0  0  0  0  0  0  0  0  0
    5.7898   -4.1725   -0.8861 O   0  0  0  0  0  0  0  0  0  0  0  0
    5.9494   -3.4715   -2.0586 C   0  0  0  0  0  0  0  0  0  0  0  0
    5.2676   -2.1215   -2.0592 C   0  0  0  0  0  0  0  0  0  0  0  0
    4.2486    0.7095   -0.5871 O   0  0  0  0  0  0  0  0  0  0  0  0
    4.4410    2.0099   -0.4542 C   0  0  0  0  0  0  0  0  0  0  0  0
    1.3504    1.9607    0.6539 C   0  0  0  0  0  0  0  0  0  0  0  0
    1.9312    2.0717    2.2862 S   0  0  0  0  0  0  0  0  0  0  0  0
    0.3933    1.4244    3.0642 C   0  0  0  0  0  0  0  0  0  0  0  0
    0.1071    1.2267    4.3861 C   0  0  0  0  0  0  0  0  0  0  0  0
   -1.1288    0.7312    4.7208 C   0  0  0  0  0  0  0  0  0  0  0  0
   -1.9880    0.4717    3.6686 C   0  0  0  0  0  0  0  0  0  0  0  0
   -1.6701    0.6804    2.3602 C   0  0  0  0  0  0  0  0  0  0  0  0
   -0.3893    1.1955    1.9944 C   0  0  0  0  0  0  0  0  0  0  0  0
    0.0775    1.4619    0.7440 C   0  0  0  0  0  0  0  0  0  0  0  0
   -5.1633    0.2993    0.1206 C   0  0  0  0  0  0  0  0  0  0  0  0
   -5.4840   -0.9628    0.8355 C   0  0  0  0  0  0  0  0  0  0  0  0
   -8.6077   -0.8318   -0.5634 H   0  0  0  0  0  0  0  0  0  0  0  0
   -9.5433   -1.4963    0.7832 H   0  0  0  0  0  0  0  0  0  0  0  0
   -8.2300   -0.2703    1.1721 H   0  0  0  0  0  0  0  0  0  0  0  0
   -7.9233   -3.1285    0.1387 H   0  0  0  0  0  0  0  0  0  0  0  0
   -7.4075   -2.5027    1.7365 H   0  0  0  0  0  0  0  0  0  0  0  0
   -5.6013   -2.6696   -1.7346 H   0  0  0  0  0  0  0  0  0  0  0  0
   -7.2754   -2.0751   -1.6500 H   0  0  0  0  0  0  0  0  0  0  0  0
   -5.6876   -0.6165   -2.9491 H   0  0  0  0  0  0  0  0  0  0  0  0
   -6.6404    0.1887   -1.6747 H   0  0  0  0  0  0  0  0  0  0  0  0
   -3.8496   -1.8764   -0.5945 H   0  0  0  0  0  0  0  0  0  0  0  0
   -3.5625   -1.3953   -2.2644 H   0  0  0  0  0  0  0  0  0  0  0  0
   -2.6621    1.5646   -0.6815 H   0  0  0  0  0  0  0  0  0  0  0  0
   -0.4236    1.5168   -2.6158 H   0  0  0  0  0  0  0  0  0  0  0  0
    1.8832    2.4082   -2.6080 H   0  0  0  0  0  0  0  0  0  0  0  0
    2.6915    4.8490   -0.2350 H   0  0  0  0  0  0  0  0  0  0  0  0
    4.8691    5.8557   -0.0697 H   0  0  0  0  0  0  0  0  0  0  0  0
    6.8679    4.3602   -0.1504 H   0  0  0  0  0  0  0  0  0  0  0  0
    7.4551   -0.2142   -0.5788 H   0  0  0  0  0  0  0  0  0  0  0  0
    4.1476   -2.7731    0.5741 H   0  0  0  0  0  0  0  0  0  0  0  0
    5.4472   -1.7508    1.3240 H   0  0  0  0  0  0  0  0  0  0  0  0
    7.1585   -2.8743   -0.0232 H   0  0  0  0  0  0  0  0  0  0  0  0
    6.3660   -4.0049    1.1198 H   0  0  0  0  0  0  0  0  0  0  0  0
    7.0055   -3.4465   -2.3333 H   0  0  0  0  0  0  0  0  0  0  0  0
    5.4531   -4.0842   -2.8626 H   0  0  0  0  0  0  0  0  0  0  0  0
    5.8027   -1.4968   -2.8008 H   0  0  0  0  0  0  0  0  0  0  0  0
    4.2258   -2.2555   -2.4217 H   0  0  0  0  0  0  0  0  0  0  0  0
    0.8652    1.4681    5.1319 H   0  0  0  0  0  0  0  0  0  0  0  0
   -1.4018    0.5604    5.7400 H   0  0  0  0  0  0  0  0  0  0  0  0
   -2.9740    0.0767    3.9317 H   0  0  0  0  0  0  0  0  0  0  0  0
   -2.4177    0.4429    1.6377 H   0  0  0  0  0  0  0  0  0  0  0  0
   -4.4410    0.8910    0.6622 H   0  0  0  0  0  0  0  0  0  0  0  0
   -6.0695    0.9209   -0.0881 H   0  0  0  0  0  0  0  0  0  0  0  0
   -4.5647   -1.4050    1.2617 H   0  0  0  0  0  0  0  0  0  0  0  0
   -6.1023   -0.6780    1.7388 H   0  0  0  0  0  0  0  0  0  0  0  0
  1  2  1  0
  2  3  1  0
  3  4  1  0
  4  5  1  0
  5  6  1  0
  6  7  1  0
  7  8  1  0
  8  9  2  0
  8 10  1  0
 10 11  1  0
 11 12  2  0
 12 13  1  0
 13 14  2  0
 14 15  1  0
 15 16  2  0
 16 17  1  0
 17 18  2  0
 18 19  1  0
 19 20  1  0
 20 21  2  0
 20 22  1  0
 22 23  2  0
 23 24  1  0
 24 25  1  0
 25 26  1  0
 26 27  1  0
 27 28  1  0
 28 29  1  0
 23 30  1  0
 30 31  1  0
 14 32  1  0
 32 33  1  0
 33 34  1  0
 34 35  2  0
 35 36  1  0
 36 37  2  0
 37 38  1  0
 38 39  2  0
 39 40  1  0
  6 41  1  0
 41 42  1  0
 42  3  1  0
 40 11  1  0
 31 15  1  0
 40 32  2  0
 31 19  2  0
 39 34  1  0
 29 24  1  0
  1 43  1  0
  1 44  1  0
  1 45  1  0
  2 46  1  0
  2 47  1  0
  4 48  1  0
  4 49  1  0
  5 50  1  0
  5 51  1  0
  7 52  1  0
  7 53  1  0
 10 54  1  0
 12 55  1  0
 13 56  1  0
 16 57  1  0
 17 58  1  0
 18 59  1  0
 22 60  1  0
 25 61  1  0
 25 62  1  0
 26 63  1  0
 26 64  1  0
 28 65  1  0
 28 66  1  0
 29 67  1  0
 29 68  1  0
 35 69  1  0
 36 70  1  0
 37 71  1  0
 38 72  1  0
 41 73  1  0
 41 74  1  0
 42 75  1  0
 42 76  1  0
M  END
$$$$
