
     RDKit          3D

 70 72  0  0  0  0  0  0  0  0999 V2000
   -4.6674   -5.9076    0.0640 C   0  0  0  0  0  0  0  0  0  0  0  0
   -4.0048   -5.2736   -0.8829 C   0  0  0  0  0  0  0  0  0  0  0  0
   -4.3187   -3.8831   -1.1667 C   0  0  0  0  0  0  0  0  0  0  0  0
   -5.2008   -3.2861   -0.5304 O   0  0  0  0  0  0  0  0  0  0  0  0
   -3.6310   -3.1535   -2.1804 N   0  0  0  0  0  0  0  0  0  0  0  0
   -3.9096   -1.7829   -2.4914 C   0  0  0  0  0  0  0  0  0  0  0  0
   -3.6960   -0.8503   -1.3198 C   0  0  0  0  0  0  0  0  0  0  0  0
   -2.2271   -0.9265   -0.8493 C   0  0  0  0  0  0  0  0  0  0  0  0
   -2.1263    0.0157    0.2908 C   0  0  0  0  0  0  0  0  0  0  0  0
   -0.7964    0.1406    0.9747 C   0  0  2  0  0  0  0  0  0  0  0  0
   -1.0340    1.1446    2.0276 N   0  0  0  0  0  0  0  0  0  0  0  0
   -1.4352    2.4569    1.7176 C   0  0  0  0  0  0  0  0  0  0  0  0
   -1.6122    2.8571    0.5495 O   0  0  0  0  0  0  0  0  0  0  0  0
   -1.6733    3.4586    2.8179 C   0  0  0  0  0  0  0  0  0  0  0  0
   -2.0817    4.7464    2.2379 C   0  0  0  0  0  0  0  0  0  0  0  0
   -1.1264    5.7059    1.8970 C   0  0  0  0  0  0  0  0  0  0  0  0
   -1.4953    6.9134    1.3540 C   0  0  0  0  0  0  0  0  0  0  0  0
   -2.8128    7.2353    1.1209 C   0  0  0  0  0  0  0  0  0  0  0  0
   -3.7544    6.2977    1.4534 C   0  0  0  0  0  0  0  0  0  0  0  0
   -3.3997    5.0841    1.9979 C   0  0  0  0  0  0  0  0  0  0  0  0
    0.3299    0.5734    0.1604 C   0  0  0  0  0  0  0  0  0  0  0  0
    0.7153    1.8024    0.2535 O   0  0  0  0  0  0  0  0  0  0  0  0
    1.0873   -0.1966   -0.7459 N   0  0  0  0  0  0  0  0  0  0  0  0
    2.1264    0.4741   -1.5220 C   0  0  0  0  0  0  0  0  0  0  0  0
    3.1395   -0.5407   -2.0180 C   0  0  0  0  0  0  0  0  0  0  0  0
    3.2623   -1.6295   -1.0463 N   0  0  0  0  0  0  0  0  0  0  0  0
    4.5199   -1.7918   -0.3905 C   0  0  0  0  0  0  0  0  0  0  0  0
    4.8019   -2.8164    0.4751 C   0  0  0  0  0  0  0  0  0  0  0  0
    6.0503   -2.9076    1.0795 C   0  0  0  0  0  0  0  0  0  0  0  0
    7.0314   -1.9732    0.8238 C   0  0  0  0  0  0  0  0  0  0  0  0
    6.6971   -0.9673   -0.0510 C   0  0  0  0  0  0  0  0  0  0  0  0
    7.7353    0.0775   -0.3625 C   0  0  0  0  0  0  0  0  0  0  0  0
    5.4966   -0.8920   -0.6232 N   0  0  0  0  0  0  0  0  0  0  0  0
    2.1141   -2.4522   -0.8237 C   0  0  0  0  0  0  0  0  0  0  0  0
    0.8623   -1.6067   -0.8472 C   0  0  0  0  0  0  0  0  0  0  0  0
   -5.4365   -5.4114    0.6295 H   0  0  0  0  0  0  0  0  0  0  0  0
   -4.4792   -6.9425    0.3213 H   0  0  0  0  0  0  0  0  0  0  0  0
   -3.2323   -5.7600   -1.4560 H   0  0  0  0  0  0  0  0  0  0  0  0
   -2.8919   -3.6546   -2.7132 H   0  0  0  0  0  0  0  0  0  0  0  0
   -3.2458   -1.4252   -3.3033 H   0  0  0  0  0  0  0  0  0  0  0  0
   -4.9680   -1.6303   -2.8121 H   0  0  0  0  0  0  0  0  0  0  0  0
   -3.9422    0.1699   -1.6593 H   0  0  0  0  0  0  0  0  0  0  0  0
   -4.3870   -1.0940   -0.4869 H   0  0  0  0  0  0  0  0  0  0  0  0
   -1.6620   -0.5879   -1.7475 H   0  0  0  0  0  0  0  0  0  0  0  0
   -2.0391   -1.9797   -0.6380 H   0  0  0  0  0  0  0  0  0  0  0  0
   -2.6146    0.9471    0.0059 H   0  0  0  0  0  0  0  0  0  0  0  0
   -2.8139   -0.4129    1.0965 H   0  0  0  0  0  0  0  0  0  0  0  0
   -0.6190   -0.8328    1.5009 H   0  0  0  0  0  0  0  0  0  0  0  0
   -0.9003    0.8759    3.0436 H   0  0  0  0  0  0  0  0  0  0  0  0
   -2.4893    3.1145    3.4863 H   0  0  0  0  0  0  0  0  0  0  0  0
   -0.7108    3.5929    3.3458 H   0  0  0  0  0  0  0  0  0  0  0  0
   -0.0741    5.4554    2.0804 H   0  0  0  0  0  0  0  0  0  0  0  0
   -0.7541    7.6627    1.0874 H   0  0  0  0  0  0  0  0  0  0  0  0
   -3.1050    8.1905    0.6913 H   0  0  0  0  0  0  0  0  0  0  0  0
   -4.8069    6.5585    1.2656 H   0  0  0  0  0  0  0  0  0  0  0  0
   -4.1658    4.3641    2.2502 H   0  0  0  0  0  0  0  0  0  0  0  0
    1.6675    0.9810   -2.3861 H   0  0  0  0  0  0  0  0  0  0  0  0
    2.6857    1.2299   -0.9407 H   0  0  0  0  0  0  0  0  0  0  0  0
    4.1312   -0.0920   -2.2228 H   0  0  0  0  0  0  0  0  0  0  0  0
    2.7953   -1.0071   -2.9630 H   0  0  0  0  0  0  0  0  0  0  0  0
    4.0504   -3.5612    0.6892 H   0  0  0  0  0  0  0  0  0  0  0  0
    6.2618   -3.7263    1.7653 H   0  0  0  0  0  0  0  0  0  0  0  0
    8.0138   -2.0185    1.2801 H   0  0  0  0  0  0  0  0  0  0  0  0
    8.6164   -0.0350    0.2734 H   0  0  0  0  0  0  0  0  0  0  0  0
    7.9938   -0.0859   -1.4362 H   0  0  0  0  0  0  0  0  0  0  0  0
    7.2664    1.0805   -0.3034 H   0  0  0  0  0  0  0  0  0  0  0  0
    2.2248   -2.9746    0.1361 H   0  0  0  0  0  0  0  0  0  0  0  0
    2.1083   -3.2451   -1.6042 H   0  0  0  0  0  0  0  0  0  0  0  0
    0.2983   -1.9242   -1.7518 H   0  0  0  0  0  0  0  0  0  0  0  0
    0.2573   -1.9673    0.0313 H   0  0  0  0  0  0  0  0  0  0  0  0
  1  2  2  3
  2  3  1  0
  3  4  2  0
  3  5  1  0
  5  6  1  0
  6  7  1  0
  7  8  1  0
  8  9  1  0
  9 10  1  0
 10 11  1  0
 11 12  1  0
 12 13  2  0
 12 14  1  0
 14 15  1  0
 15 16  2  0
 16 17  1  0
 17 18  2  0
 18 19  1  0
 19 20  2  0
 10 21  1  0
 21 22  2  0
 21 23  1  0
 23 24  1  0
 24 25  1  0
 25 26  1  0
 26 27  1  0
 27 28  2  0
 28 29  1  0
 29 30  2  0
 30 31  1  0
 31 32  1  0
 31 33  2  0
 26 34  1  0
 34 35  1  0
 20 15  1  0
 35 23  1  0
 33 27  1  0
  1 36  1  0
  1 37  1  0
  2 38  1  0
  5 39  1  0
  6 40  1  0
  6 41  1  0
  7 42  1  0
  7 43  1  0
  8 44  1  0
  8 45  1  0
  9 46  1  0
  9 47  1  0
 10 48  1  1
 11 49  1  0
 14 50  1  0
 14 51  1  0
 16 52  1  0
 17 53  1  0
 18 54  1  0
 19 55  1  0
 20 56  1  0
 24 57  1  0
 24 58  1  0
 25 59  1  0
 25 60  1  0
 28 61  1  0
 29 62  1  0
 30 63  1  0
 32 64  1  0
 32 65  1  0
 32 66  1  0
 34 67  1  0
 34 68  1  0
 35 69  1  0
 35 70  1  0
M  END
$$$$
