@<TRIPOS>MOLECULE
*****
 70 72 0 0 0
SMALL
GASTEIGER

@<TRIPOS>ATOM
      1 C          -4.6674   -5.9076    0.0640 C.2     1  UNL1       -0.0938
      2 C          -4.0048   -5.2736   -0.8829 C.2     1  UNL1       -0.0070
      3 C          -4.3187   -3.8831   -1.1667 C.2     1  UNL1        0.2363
      4 O          -5.2008   -3.2861   -0.5304 O.2     1  UNL1       -0.2709
      5 N          -3.6310   -3.1535   -2.1804 N.am    1  UNL1       -0.3118
      6 C          -3.9096   -1.7829   -2.4914 C.3     1  UNL1        0.0119
      7 C          -3.6960   -0.8503   -1.3198 C.3     1  UNL1       -0.0373
      8 C          -2.2271   -0.9265   -0.8493 C.3     1  UNL1       -0.0495
      9 C          -2.1263    0.0157    0.2908 C.3     1  UNL1       -0.0259
     10 C          -0.7964    0.1406    0.9747 C.3     1  UNL1        0.0996
     11 N          -1.0340    1.1446    2.0276 N.am    1  UNL1       -0.3037
     12 C          -1.4352    2.4569    1.7176 C.2     1  UNL1        0.2179
     13 O          -1.6122    2.8571    0.5495 O.2     1  UNL1       -0.2754
     14 C          -1.6733    3.4586    2.8179 C.3     1  UNL1        0.0491
     15 C          -2.0817    4.7464    2.2379 C.ar    1  UNL1       -0.0386
     16 C          -1.1264    5.7059    1.8970 C.ar    1  UNL1       -0.0581
     17 C          -1.4953    6.9134    1.3540 C.ar    1  UNL1       -0.0615
     18 C          -2.8128    7.2353    1.1209 C.ar    1  UNL1       -0.0617
     19 C          -3.7544    6.2977    1.4534 C.ar    1  UNL1       -0.0615
     20 C          -3.3997    5.0841    1.9979 C.ar    1  UNL1       -0.0581
     21 C           0.3299    0.5734    0.1604 C.2     1  UNL1        0.2360
     22 O           0.7153    1.8024    0.2535 O.2     1  UNL1       -0.2736
     23 N           1.0873   -0.1966   -0.7459 N.am    1  UNL1       -0.2970
     24 C           2.1264    0.4741   -1.5220 C.3     1  UNL1        0.0305
     25 C           3.1395   -0.5407   -2.0180 C.3     1  UNL1        0.0293
     26 N           3.2623   -1.6295   -1.0463 N.pl3   1  UNL1       -0.3122
     27 C           4.5199   -1.7918   -0.3905 C.ar    1  UNL1        0.1216
     28 C           4.8019   -2.8164    0.4751 C.ar    1  UNL1       -0.0217
     29 C           6.0503   -2.9076    1.0795 C.ar    1  UNL1       -0.0568
     30 C           7.0314   -1.9732    0.8238 C.ar    1  UNL1       -0.0405
     31 C           6.6971   -0.9673   -0.0510 C.ar    1  UNL1        0.0403
     32 C           7.7353    0.0775   -0.3625 C.3     1  UNL1       -0.0223
     33 N           5.4966   -0.8920   -0.6232 N.ar    1  UNL1       -0.2372
     34 C           2.1141   -2.4522   -0.8237 C.3     1  UNL1        0.0293
     35 C           0.8623   -1.6067   -0.8472 C.3     1  UNL1        0.0305
     36 H          -5.4365   -5.4114    0.6295 H       1  UNL1        0.0536
     37 H          -4.4792   -6.9425    0.3213 H       1  UNL1        0.0536
     38 H          -3.2323   -5.7600   -1.4560 H       1  UNL1        0.0663
     39 H          -2.8919   -3.6546   -2.7132 H       1  UNL1        0.1490
     40 H          -3.2458   -1.4252   -3.3033 H       1  UNL1        0.0462
     41 H          -4.9680   -1.6303   -2.8121 H       1  UNL1        0.0462
     42 H          -3.9422    0.1699   -1.6593 H       1  UNL1        0.0280
     43 H          -4.3870   -1.0940   -0.4869 H       1  UNL1        0.0280
     44 H          -1.6620   -0.5879   -1.7475 H       1  UNL1        0.0266
     45 H          -2.0391   -1.9797   -0.6380 H       1  UNL1        0.0266
     46 H          -2.6146    0.9471    0.0059 H       1  UNL1        0.0288
     47 H          -2.8139   -0.4129    1.0965 H       1  UNL1        0.0288
     48 H          -0.6190   -0.8328    1.5009 H       1  UNL1        0.0594
     49 H          -0.9003    0.8759    3.0436 H       1  UNL1        0.1495
     50 H          -2.4893    3.1145    3.4863 H       1  UNL1        0.0407
     51 H          -0.7108    3.5929    3.3458 H       1  UNL1        0.0407
     52 H          -0.0741    5.4554    2.0804 H       1  UNL1        0.0620
     53 H          -0.7541    7.6627    1.0874 H       1  UNL1        0.0618
     54 H          -3.1050    8.1905    0.6913 H       1  UNL1        0.0618
     55 H          -4.8069    6.5585    1.2656 H       1  UNL1        0.0618
     56 H          -4.1658    4.3641    2.2502 H       1  UNL1        0.0620
     57 H           1.6675    0.9810   -2.3861 H       1  UNL1        0.0480
     58 H           2.6857    1.2299   -0.9407 H       1  UNL1        0.0480
     59 H           4.1312   -0.0920   -2.2228 H       1  UNL1        0.0480
     60 H           2.7953   -1.0071   -2.9630 H       1  UNL1        0.0480
     61 H           4.0504   -3.5612    0.6892 H       1  UNL1        0.0652
     62 H           6.2618   -3.7263    1.7653 H       1  UNL1        0.0619
     63 H           8.0138   -2.0185    1.2801 H       1  UNL1        0.0635
     64 H           8.6164   -0.0350    0.2734 H       1  UNL1        0.0292
     65 H           7.9938   -0.0859   -1.4362 H       1  UNL1        0.0292
     66 H           7.2664    1.0805   -0.3034 H       1  UNL1        0.0292
     67 H           2.2248   -2.9746    0.1361 H       1  UNL1        0.0480
     68 H           2.1083   -3.2451   -1.6042 H       1  UNL1        0.0480
     69 H           0.2983   -1.9242   -1.7518 H       1  UNL1        0.0480
     70 H           0.2573   -1.9673    0.0313 H       1  UNL1        0.0480
@<TRIPOS>BOND
     1     1     2    2
     2     2     3    1
     3     3     4    2
     4     3     5   am
     5     5     6    1
     6     6     7    1
     7     7     8    1
     8     8     9    1
     9     9    10    1
    10    10    11    1
    11    11    12   am
    12    12    13    2
    13    12    14    1
    14    14    15    1
    15    15    16   ar
    16    16    17   ar
    17    17    18   ar
    18    18    19   ar
    19    19    20   ar
    20    10    21    1
    21    21    22    2
    22    21    23   am
    23    23    24    1
    24    24    25    1
    25    25    26    1
    26    26    27    1
    27    27    28   ar
    28    28    29   ar
    29    29    30   ar
    30    30    31   ar
    31    31    32    1
    32    31    33   ar
    33    26    34    1
    34    34    35    1
    35    20    15   ar
    36    35    23    1
    37    33    27   ar
    38     1    36    1
    39     1    37    1
    40     2    38    1
    41     5    39    1
    42     6    40    1
    43     6    41    1
    44     7    42    1
    45     7    43    1
    46     8    44    1
    47     8    45    1
    48     9    46    1
    49     9    47    1
    50    10    48    1
    51    11    49    1
    52    14    50    1
    53    14    51    1
    54    16    52    1
    55    17    53    1
    56    18    54    1
    57    19    55    1
    58    20    56    1
    59    24    57    1
    60    24    58    1
    61    25    59    1
    62    25    60    1
    63    28    61    1
    64    29    62    1
    65    30    63    1
    66    32    64    1
    67    32    65    1
    68    32    66    1
    69    34    67    1
    70    34    68    1
    71    35    69    1
    72    35    70    1
