@<TRIPOS>MOLECULE
*****
 81 83 0 0 0
SMALL
GASTEIGER

@<TRIPOS>ATOM
      1 C           5.1819   -0.4199    0.5598 C.2     1  UNL1       -0.0582
      2 C           3.8673   -0.9255    0.1946 C.2     1  UNL1       -0.0620
      3 C           2.9474   -0.9088    1.1651 C.2     1  UNL1       -0.0659
      4 C           3.3201   -0.3833    2.5338 C.3     1  UNL1       -0.0312
      5 C           2.1330   -0.5320    3.4330 C.3     1  UNL1       -0.0488
      6 C           0.8778    0.1416    2.9042 C.3     1  UNL1       -0.0465
      7 C           0.5916   -0.2062    1.4619 C.3     1  UNL1       -0.0204
      8 C           0.8693    0.9594    0.5367 C.3     1  UNL1       -0.0587
      9 C           1.5307   -1.3456    1.1224 C.3     1  UNL1       -0.0139
     10 C           1.0588   -1.7320   -0.2311 C.3     1  UNL1       -0.0456
     11 C          -0.4455   -1.6733   -0.0587 C.3     1  UNL1       -0.0468
     12 C          -0.7163   -0.8515    1.2024 C.3     1  UNL1       -0.0090
     13 C          -1.9015    0.0251    1.0496 C.3     1  UNL1        0.0592
     14 C          -2.0748    0.8316    2.3462 C.3     1  UNL1       -0.0384
     15 O          -1.9055    0.8166   -0.0512 O.3     1  UNL1       -0.3765
     16 C          -2.9643    0.6928   -0.9151 C.3     1  UNL1        0.0481
     17 C          -4.2947    1.0301   -0.2633 C.3     1  UNL1       -0.0269
     18 C          -5.4622    0.8892   -1.2168 C.3     1  UNL1       -0.0219
     19 C          -6.7455    1.2385   -0.5207 C.3     1  UNL1        0.0657
     20 O          -6.5786    2.5893   -0.1028 O.3     1  UNL1       -0.3886
     21 C          -7.0263    0.4686    0.7214 C.3     1  UNL1       -0.0269
     22 C          -7.1302   -1.0078    0.5761 C.3     1  UNL1       -0.0627
     23 C          -7.9301    1.2391   -1.4214 C.3     1  UNL1       -0.0269
     24 C          -8.2386   -0.0481   -2.1039 C.3     1  UNL1       -0.0627
     25 C           6.2222   -0.3481   -0.2302 C.2     1  UNL1       -0.0399
     26 C           7.5589    0.1817    0.1879 C.3     1  UNL1       -0.0011
     27 C           8.3095    0.7344   -1.0088 C.3     1  UNL1        0.0619
     28 O           9.2285   -0.2267   -1.4248 O.3     1  UNL1       -0.3914
     29 C           7.3740    1.1124   -2.1280 C.3     1  UNL1        0.0037
     30 C           6.7219   -0.1157   -2.7766 C.3     1  UNL1        0.0822
     31 O           5.8210    0.2957   -3.7256 O.3     1  UNL1       -0.3871
     32 C           6.0619   -0.8282   -1.6210 C.2     1  UNL1       -0.0229
     33 C           5.2976   -1.9266   -1.7175 C.2     1  UNL1       -0.0928
     34 H           5.3942   -0.0549    1.5514 H       1  UNL1        0.0620
     35 H           3.3196   -1.3348   -0.6344 H       1  UNL1        0.0617
     36 H           3.6380    0.6672    2.4652 H       1  UNL1        0.0310
     37 H           4.1275   -1.0093    2.9739 H       1  UNL1        0.0310
     38 H           2.3588   -0.0114    4.3913 H       1  UNL1        0.0268
     39 H           1.8946   -1.5735    3.6536 H       1  UNL1        0.0268
     40 H           0.0834   -0.1191    3.5977 H       1  UNL1        0.0271
     41 H           1.0621    1.2306    2.9605 H       1  UNL1        0.0271
     42 H           1.9746    1.0236    0.3237 H       1  UNL1        0.0235
     43 H           0.3999    0.8061   -0.4439 H       1  UNL1        0.0235
     44 H           0.5732    1.9339    0.9265 H       1  UNL1        0.0235
     45 H           1.2971   -2.1815    1.8101 H       1  UNL1        0.0351
     46 H           1.3647   -0.9391   -0.9700 H       1  UNL1        0.0271
     47 H           1.4188   -2.7306   -0.5403 H       1  UNL1        0.0271
     48 H          -0.7811   -2.7086    0.1110 H       1  UNL1        0.0269
     49 H          -0.9120   -1.2317   -0.9631 H       1  UNL1        0.0269
     50 H          -0.8742   -1.5964    2.0428 H       1  UNL1        0.0331
     51 H          -2.8083   -0.6515    0.9565 H       1  UNL1        0.0596
     52 H          -1.2544    1.5149    2.5447 H       1  UNL1        0.0255
     53 H          -2.2233    0.1841    3.2279 H       1  UNL1        0.0255
     54 H          -3.0609    1.3986    2.2870 H       1  UNL1        0.0255
     55 H          -3.0616   -0.3692   -1.2124 H       1  UNL1        0.0560
     56 H          -2.8125    1.2703   -1.8467 H       1  UNL1        0.0560
     57 H          -4.5156    0.3996    0.5950 H       1  UNL1        0.0288
     58 H          -4.2351    2.1166   -0.0164 H       1  UNL1        0.0288
     59 H          -5.3336    1.5072   -2.1091 H       1  UNL1        0.0294
     60 H          -5.5360   -0.1941   -1.5022 H       1  UNL1        0.0294
     61 H          -6.5795    3.1638   -0.9041 H       1  UNL1        0.2102
     62 H          -6.3557    0.7282    1.5668 H       1  UNL1        0.0290
     63 H          -8.0427    0.8178    1.0775 H       1  UNL1        0.0290
     64 H          -8.1742   -1.3870    0.6341 H       1  UNL1        0.0231
     65 H          -6.6628   -1.4491   -0.3091 H       1  UNL1        0.0231
     66 H          -6.5855   -1.4808    1.4476 H       1  UNL1        0.0231
     67 H          -7.8155    2.0308   -2.2204 H       1  UNL1        0.0290
     68 H          -8.8444    1.5797   -0.8655 H       1  UNL1        0.0290
     69 H          -8.9079   -0.7277   -1.5408 H       1  UNL1        0.0231
     70 H          -7.3207   -0.5524   -2.4243 H       1  UNL1        0.0231
     71 H          -8.8272    0.2026   -3.0316 H       1  UNL1        0.0231
     72 H           8.1206   -0.6149    0.6963 H       1  UNL1        0.0338
     73 H           7.4318    1.0085    0.9067 H       1  UNL1        0.0338
     74 H           8.8773    1.6492   -0.7547 H       1  UNL1        0.0597
     75 H           8.8612   -1.1165   -1.2007 H       1  UNL1        0.2098
     76 H           6.5286    1.6712   -1.6420 H       1  UNL1        0.0318
     77 H           7.8921    1.7058   -2.8804 H       1  UNL1        0.0318
     78 H           7.5695   -0.7158   -3.1687 H       1  UNL1        0.0644
     79 H           5.6912    1.2569   -3.6598 H       1  UNL1        0.2102
     80 H           4.8951   -2.6229   -2.4197 H       1  UNL1        0.0538
     81 H           5.1919   -2.2611   -2.7380 H       1  UNL1        0.0538
@<TRIPOS>BOND
     1     1     2    1
     2     2     3    2
     3     3     4    1
     4     4     5    1
     5     5     6    1
     6     6     7    1
     7     7     8    1
     8     7     9    1
     9     9    10    1
    10    10    11    1
    11    11    12    1
    12    12    13    1
    13    13    14    1
    14    13    15    1
    15    15    16    1
    16    16    17    1
    17    17    18    1
    18    18    19    1
    19    19    20    1
    20    19    21    1
    21    21    22    1
    22    19    23    1
    23    23    24    1
    24     1    25    2
    25    25    26    1
    26    26    27    1
    27    27    28    1
    28    27    29    1
    29    29    30    1
    30    30    31    1
    31    30    32    1
    32    32    33    2
    33     9     3    1
    34    32    25    1
    35    12     7    1
    36     1    34    1
    37     2    35    1
    38     4    36    1
    39     4    37    1
    40     5    38    1
    41     5    39    1
    42     6    40    1
    43     6    41    1
    44     8    42    1
    45     8    43    1
    46     8    44    1
    47     9    45    1
    48    10    46    1
    49    10    47    1
    50    11    48    1
    51    11    49    1
    52    12    50    1
    53    13    51    1
    54    14    52    1
    55    14    53    1
    56    14    54    1
    57    16    55    1
    58    16    56    1
    59    17    57    1
    60    17    58    1
    61    18    59    1
    62    18    60    1
    63    20    61    1
    64    21    62    1
    65    21    63    1
    66    22    64    1
    67    22    65    1
    68    22    66    1
    69    23    67    1
    70    23    68    1
    71    24    69    1
    72    24    70    1
    73    24    71    1
    74    26    72    1
    75    26    73    1
    76    27    74    1
    77    28    75    1
    78    29    76    1
    79    29    77    1
    80    30    78    1
    81    31    79    1
    82    33    80    1
    83    33    81    1
