
     RDKit          3D

 44 47  0  0  0  0  0  0  0  0999 V2000
   -3.1792   -2.1787   -1.2560 C   0  0  0  0  0  0  0  0  0  0  0  0
   -2.2502   -1.0969   -1.0900 N   0  0  0  0  0  0  0  0  0  0  0  0
   -2.6163    0.2691   -0.9472 C   0  0  0  0  0  0  0  0  0  0  0  0
   -2.2347    1.2340   -1.7866 N   0  0  0  0  0  0  0  0  0  0  0  0
   -2.5952    2.5208   -1.6300 C   0  0  0  0  0  0  0  0  0  0  0  0
   -3.3730    2.8633   -0.5874 N   0  0  0  0  0  0  0  0  0  0  0  0
   -3.8082    1.9584    0.3134 C   0  0  0  0  0  0  0  0  0  0  0  0
   -4.5804    2.0343    1.4249 N   0  0  0  0  0  0  0  0  0  0  0  0
   -4.6786    0.7907    1.9291 C   0  0  0  0  0  0  0  0  0  0  0  0
   -3.9682   -0.0953    1.1429 C   0  0  0  0  0  0  0  0  0  0  0  0
   -3.4179    0.6381    0.1227 C   0  0  0  0  0  0  0  0  0  0  0  0
   -0.8349   -1.4138   -1.0656 C   0  0  1  0  0  0  0  0  0  0  0  0
    0.1013   -0.2668   -0.8890 C   0  0  0  0  0  0  0  0  0  0  0  0
    0.8231   -1.0993    0.1773 C   0  0  1  0  0  0  0  0  0  0  0  0
    0.9624   -0.4528    1.4481 N   0  0  0  0  0  0  0  0  0  0  0  0
    2.5745   -0.6336    2.0400 S   0  0  0  0  0  6  0  0  0  0  0  0
    2.5909   -0.0111    3.4276 O   0  0  0  0  0  0  0  0  0  0  0  0
    2.8668   -2.0977    2.2165 O   0  0  0  0  0  0  0  0  0  0  0  0
    3.7542    0.0891    1.0024 C   0  0  0  0  0  0  0  0  0  0  0  0
    4.3497   -0.6208   -0.0193 C   0  0  0  0  0  0  0  0  0  0  0  0
    5.3023   -0.0399   -0.8584 C   0  0  0  0  0  0  0  0  0  0  0  0
    5.6491    1.2813   -0.6497 C   0  0  0  0  0  0  0  0  0  0  0  0
    5.0741    2.0049    0.3545 C   0  0  0  0  0  0  0  0  0  0  0  0
    4.1322    1.4021    1.1711 C   0  0  0  0  0  0  0  0  0  0  0  0
   -0.3499   -2.0812    0.2008 C   0  0  0  0  0  0  0  0  0  0  0  0
   -2.9034   -2.8497   -2.1193 H   0  0  0  0  0  0  0  0  0  0  0  0
   -3.2042   -2.8365   -0.3715 H   0  0  0  0  0  0  0  0  0  0  0  0
   -4.2055   -1.8040   -1.5260 H   0  0  0  0  0  0  0  0  0  0  0  0
   -2.2561    3.2817   -2.3480 H   0  0  0  0  0  0  0  0  0  0  0  0
   -4.9926    2.9285    1.7712 H   0  0  0  0  0  0  0  0  0  0  0  0
   -5.2398    0.5097    2.8343 H   0  0  0  0  0  0  0  0  0  0  0  0
   -3.8342   -1.1588    1.2541 H   0  0  0  0  0  0  0  0  0  0  0  0
   -0.6067   -2.0500   -1.9665 H   0  0  0  0  0  0  0  0  0  0  0  0
    0.7270   -0.0795   -1.7831 H   0  0  0  0  0  0  0  0  0  0  0  0
   -0.3351    0.6666   -0.4727 H   0  0  0  0  0  0  0  0  0  0  0  0
    1.7038   -1.5981   -0.2362 H   0  0  0  0  0  0  0  0  0  0  0  0
    0.6720    0.5432    1.4504 H   0  0  0  0  0  0  0  0  0  0  0  0
    4.1030   -1.6589   -0.2133 H   0  0  0  0  0  0  0  0  0  0  0  0
    5.7782   -0.5720   -1.6586 H   0  0  0  0  0  0  0  0  0  0  0  0
    6.3957    1.7453   -1.3033 H   0  0  0  0  0  0  0  0  0  0  0  0
    5.3304    3.0367    0.5343 H   0  0  0  0  0  0  0  0  0  0  0  0
    3.6594    1.9564    1.9779 H   0  0  0  0  0  0  0  0  0  0  0  0
   -0.0469   -3.1391    0.0537 H   0  0  0  0  0  0  0  0  0  0  0  0
   -1.0385   -1.9200    1.0366 H   0  0  0  0  0  0  0  0  0  0  0  0
  1  2  1  0
  2  3  1  0
  3  4  2  0
  4  5  1  0
  5  6  2  0
  6  7  1  0
  7  8  1  0
  8  9  1  0
  9 10  2  0
 10 11  1  0
  2 12  1  0
 12 13  1  0
 13 14  1  0
 14 15  1  0
 15 16  1  0
 16 17  2  0
 16 18  2  0
 16 19  1  0
 19 20  2  0
 20 21  1  0
 21 22  2  0
 22 23  1  0
 23 24  2  0
 14 25  1  0
 11  3  1  0
 25 12  1  0
 11  7  2  0
 24 19  1  0
  1 26  1  0
  1 27  1  0
  1 28  1  0
  5 29  1  0
  8 30  1  0
  9 31  1  0
 10 32  1  0
 12 33  1  6
 13 34  1  0
 13 35  1  0
 14 36  1  6
 15 37  1  0
 20 38  1  0
 21 39  1  0
 22 40  1  0
 23 41  1  0
 24 42  1  0
 25 43  1  0
 25 44  1  0
M  END
$$$$
