@<TRIPOS>MOLECULE
*****
 44 47 0 0 0
SMALL
GASTEIGER

@<TRIPOS>ATOM
      1 C          -3.1792   -2.1787   -1.2560 C.3     1  UNL1        0.0023
      2 N          -2.2502   -1.0969   -1.0900 N.pl3   1  UNL1       -0.3145
      3 C          -2.6163    0.2691   -0.9472 C.ar    1  UNL1        0.1337
      4 N          -2.2347    1.2340   -1.7866 N.ar    1  UNL1       -0.2200
      5 C          -2.5952    2.5208   -1.6300 C.ar    1  UNL1        0.1204
      6 N          -3.3730    2.8633   -0.5874 N.ar    1  UNL1       -0.2178
      7 C          -3.8082    1.9584    0.3134 C.ar    1  UNL1        0.1432
      8 N          -4.5804    2.0343    1.4249 N.ar    1  UNL1       -0.3457
      9 C          -4.6786    0.7907    1.9291 C.ar    1  UNL1        0.0042
     10 C          -3.9682   -0.0953    1.1429 C.ar    1  UNL1       -0.0318
     11 C          -3.4179    0.6381    0.1227 C.ar    1  UNL1        0.0585
     12 C          -0.8349   -1.4138   -1.0656 C.3     1  UNL1        0.0275
     13 C           0.1013   -0.2668   -0.8890 C.3     1  UNL1       -0.0172
     14 C           0.8231   -1.0993    0.1773 C.3     1  UNL1        0.0322
     15 N           0.9624   -0.4528    1.4481 N.3     1  UNL1       -0.1868
     16 S           2.5745   -0.6336    2.0400 S.O2    1  UNL1        0.0586
     17 O           2.5909   -0.0111    3.4276 O.2     1  UNL1       -0.1530
     18 O           2.8668   -2.0977    2.2165 O.2     1  UNL1       -0.1530
     19 C           3.7542    0.0891    1.0024 C.ar    1  UNL1        0.1053
     20 C           4.3497   -0.6208   -0.0193 C.ar    1  UNL1       -0.0354
     21 C           5.3023   -0.0399   -0.8584 C.ar    1  UNL1       -0.0599
     22 C           5.6491    1.2813   -0.6497 C.ar    1  UNL1       -0.0616
     23 C           5.0741    2.0049    0.3545 C.ar    1  UNL1       -0.0599
     24 C           4.1322    1.4021    1.1711 C.ar    1  UNL1       -0.0354
     25 C          -0.3499   -2.0812    0.2008 C.3     1  UNL1       -0.0172
     26 H          -2.9034   -2.8497   -2.1193 H       1  UNL1        0.0428
     27 H          -3.2042   -2.8365   -0.3715 H       1  UNL1        0.0428
     28 H          -4.2055   -1.8040   -1.5260 H       1  UNL1        0.0428
     29 H          -2.2561    3.2817   -2.3480 H       1  UNL1        0.1048
     30 H          -4.9926    2.9285    1.7712 H       1  UNL1        0.1668
     31 H          -5.2398    0.5097    2.8343 H       1  UNL1        0.0807
     32 H          -3.8342   -1.1588    1.2541 H       1  UNL1        0.0640
     33 H          -0.6067   -2.0500   -1.9665 H       1  UNL1        0.0501
     34 H           0.7270   -0.0795   -1.7831 H       1  UNL1        0.0299
     35 H          -0.3351    0.6666   -0.4727 H       1  UNL1        0.0299
     36 H           1.7038   -1.5981   -0.2362 H       1  UNL1        0.0478
     37 H           0.6720    0.5432    1.4504 H       1  UNL1        0.1483
     38 H           4.1030   -1.6589   -0.2133 H       1  UNL1        0.0637
     39 H           5.7782   -0.5720   -1.6586 H       1  UNL1        0.0618
     40 H           6.3957    1.7453   -1.3033 H       1  UNL1        0.0618
     41 H           5.3304    3.0367    0.5343 H       1  UNL1        0.0618
     42 H           3.6594    1.9564    1.9779 H       1  UNL1        0.0637
     43 H          -0.0469   -3.1391    0.0537 H       1  UNL1        0.0299
     44 H          -1.0385   -1.9200    1.0366 H       1  UNL1        0.0299
@<TRIPOS>BOND
     1     1     2    1
     2     2     3    1
     3     3     4   ar
     4     4     5   ar
     5     5     6   ar
     6     6     7   ar
     7     7     8   ar
     8     8     9   ar
     9     9    10   ar
    10    10    11   ar
    11     2    12    1
    12    12    13    1
    13    13    14    1
    14    14    15    1
    15    15    16    1
    16    16    17    2
    17    16    18    2
    18    16    19    1
    19    19    20   ar
    20    20    21   ar
    21    21    22   ar
    22    22    23   ar
    23    23    24   ar
    24    14    25    1
    25    11     3   ar
    26    25    12    1
    27    11     7   ar
    28    24    19   ar
    29     1    26    1
    30     1    27    1
    31     1    28    1
    32     5    29    1
    33     8    30    1
    34     9    31    1
    35    10    32    1
    36    12    33    1
    37    13    34    1
    38    13    35    1
    39    14    36    1
    40    15    37    1
    41    20    38    1
    42    21    39    1
    43    22    40    1
    44    23    41    1
    45    24    42    1
    46    25    43    1
    47    25    44    1
