@<TRIPOS>MOLECULE
*****
 55 59 0 0 0
SMALL
GASTEIGER

@<TRIPOS>ATOM
      1 O          -0.5905    1.1394   -0.0379 O.2     1  UNL1       -0.2748
      2 C          -0.0694    0.2308    0.6439 C.2     1  UNL1        0.2271
      3 C          -0.8913   -0.4073    1.7049 C.3     1  UNL1        0.0826
      4 C          -2.2566    0.2221    1.7218 C.ar    1  UNL1        0.1206
      5 N          -3.2562   -0.2696    0.9764 N.ar    1  UNL1       -0.2186
      6 C          -4.5100    0.2715    0.9629 C.ar    1  UNL1        0.1285
      7 N          -5.5287   -0.2793    0.1549 N.pl3   1  UNL1       -0.3106
      8 C          -6.8831    0.1725    0.2489 C.3     1  UNL1        0.0370
      9 C          -7.7999   -1.0443    0.0534 C.3     1  UNL1        0.0634
     10 O          -7.5525   -1.5246   -1.2121 O.3     1  UNL1       -0.3767
     11 C          -6.3226   -2.1519   -1.2621 C.3     1  UNL1        0.0634
     12 C          -5.1839   -1.3132   -0.7921 C.3     1  UNL1        0.0370
     13 C          -4.6819    1.3609    1.7687 C.ar    1  UNL1        0.0427
     14 C          -3.6529    1.8739    2.5415 C.ar    1  UNL1        0.2533
     15 O          -3.8343    2.8813    3.2788 O.2     1  UNL1       -0.2677
     16 N          -2.4471    1.2946    2.5077 N.ar    1  UNL1       -0.3104
     17 N           1.2737   -0.1629    0.3919 N.am    1  UNL1       -0.2705
     18 C           2.0632   -1.1806    1.0459 C.3     1  UNL1        0.0239
     19 C           3.4459   -0.6061    0.9551 C.3     1  UNL1       -0.0091
     20 C           3.4369    0.1775   -0.3337 C.ar    1  UNL1       -0.0168
     21 C           4.4229    0.6464   -1.1619 C.ar    1  UNL1       -0.0129
     22 C           5.8425    0.3744   -0.8954 C.ar    1  UNL1       -0.0176
     23 C           6.2564   -0.9195   -0.7374 C.ar    1  UNL1       -0.0540
     24 C           7.6002   -1.1545   -0.4668 C.ar    1  UNL1       -0.0612
     25 C           8.4986   -0.1272   -0.3590 C.ar    1  UNL1       -0.0617
     26 C           8.0519    1.1668   -0.5240 C.ar    1  UNL1       -0.0612
     27 C           6.7333    1.4381   -0.7918 C.ar    1  UNL1       -0.0540
     28 C           4.0854    1.3723   -2.2817 C.ar    1  UNL1       -0.0537
     29 C           2.7731    1.6366   -2.5870 C.ar    1  UNL1       -0.0594
     30 C           1.7873    1.1633   -1.7532 C.ar    1  UNL1       -0.0400
     31 C           2.1022    0.4270   -0.6146 C.ar    1  UNL1        0.0401
     32 H          -0.3886   -0.1756    2.6692 H       1  UNL1        0.0438
     33 H          -0.9374   -1.5034    1.6253 H       1  UNL1        0.0438
     34 H          -7.1091    0.9284   -0.5515 H       1  UNL1        0.0487
     35 H          -7.1134    0.6589    1.2154 H       1  UNL1        0.0487
     36 H          -7.5237   -1.7469    0.8640 H       1  UNL1        0.0575
     37 H          -8.8583   -0.7261    0.1688 H       1  UNL1        0.0575
     38 H          -6.1302   -2.3964   -2.3464 H       1  UNL1        0.0575
     39 H          -6.3454   -3.1305   -0.7299 H       1  UNL1        0.0575
     40 H          -4.6296   -0.8565   -1.6587 H       1  UNL1        0.0487
     41 H          -4.4218   -2.0078   -0.3322 H       1  UNL1        0.0487
     42 H          -5.6584    1.8550    1.8100 H       1  UNL1        0.0706
     43 H          -1.6403    1.6637    3.0874 H       1  UNL1        0.1700
     44 H           1.9639   -2.1331    0.5130 H       1  UNL1        0.0472
     45 H           1.7394   -1.3512    2.0955 H       1  UNL1        0.0472
     46 H           4.1641   -1.4093    0.9875 H       1  UNL1        0.0329
     47 H           3.6742    0.0930    1.7848 H       1  UNL1        0.0329
     48 H           5.5694   -1.7419   -0.8313 H       1  UNL1        0.0624
     49 H           7.8982   -2.1834   -0.3464 H       1  UNL1        0.0618
     50 H           9.5466   -0.2774   -0.1498 H       1  UNL1        0.0618
     51 H           8.7712    1.9774   -0.4373 H       1  UNL1        0.0618
     52 H           6.3949    2.4540   -0.9189 H       1  UNL1        0.0624
     53 H           4.8858    1.7521   -2.9517 H       1  UNL1        0.0624
     54 H           2.4972    2.2039   -3.4612 H       1  UNL1        0.0618
     55 H           0.7385    1.3450   -1.9511 H       1  UNL1        0.0636
@<TRIPOS>BOND
     1     1     2    2
     2     2     3    1
     3     3     4    1
     4     4     5   ar
     5     5     6   ar
     6     6     7    1
     7     7     8    1
     8     8     9    1
     9     9    10    1
    10    10    11    1
    11    11    12    1
    12     6    13   ar
    13    13    14   ar
    14    14    15    2
    15    14    16   ar
    16     2    17   am
    17    17    18    1
    18    18    19    1
    19    19    20    1
    20    20    21   ar
    21    21    22    1
    22    22    23   ar
    23    23    24   ar
    24    24    25   ar
    25    25    26   ar
    26    26    27   ar
    27    21    28   ar
    28    28    29   ar
    29    29    30   ar
    30    30    31   ar
    31    16     4   ar
    32    31    17    1
    33    12     7    1
    34    31    20   ar
    35    27    22   ar
    36     3    32    1
    37     3    33    1
    38     8    34    1
    39     8    35    1
    40     9    36    1
    41     9    37    1
    42    11    38    1
    43    11    39    1
    44    12    40    1
    45    12    41    1
    46    13    42    1
    47    16    43    1
    48    18    44    1
    49    18    45    1
    50    19    46    1
    51    19    47    1
    52    23    48    1
    53    24    49    1
    54    25    50    1
    55    26    51    1
    56    27    52    1
    57    28    53    1
    58    29    54    1
    59    30    55    1
