
     RDKit          3D

 55 59  0  0  0  0  0  0  0  0999 V2000
   -0.5905    1.1394   -0.0379 O   0  0  0  0  0  0  0  0  0  0  0  0
   -0.0694    0.2308    0.6439 C   0  0  0  0  0  0  0  0  0  0  0  0
   -0.8913   -0.4073    1.7049 C   0  0  0  0  0  0  0  0  0  0  0  0
   -2.2566    0.2221    1.7218 C   0  0  0  0  0  0  0  0  0  0  0  0
   -3.2562   -0.2696    0.9764 N   0  0  0  0  0  0  0  0  0  0  0  0
   -4.5100    0.2715    0.9629 C   0  0  0  0  0  0  0  0  0  0  0  0
   -5.5287   -0.2793    0.1549 N   0  0  0  0  0  0  0  0  0  0  0  0
   -6.8831    0.1725    0.2489 C   0  0  0  0  0  0  0  0  0  0  0  0
   -7.7999   -1.0443    0.0534 C   0  0  0  0  0  0  0  0  0  0  0  0
   -7.5525   -1.5246   -1.2121 O   0  0  0  0  0  0  0  0  0  0  0  0
   -6.3226   -2.1519   -1.2621 C   0  0  0  0  0  0  0  0  0  0  0  0
   -5.1839   -1.3132   -0.7921 C   0  0  0  0  0  0  0  0  0  0  0  0
   -4.6819    1.3609    1.7687 C   0  0  0  0  0  0  0  0  0  0  0  0
   -3.6529    1.8739    2.5415 C   0  0  0  0  0  0  0  0  0  0  0  0
   -3.8343    2.8813    3.2788 O   0  0  0  0  0  0  0  0  0  0  0  0
   -2.4471    1.2946    2.5077 N   0  0  0  0  0  0  0  0  0  0  0  0
    1.2737   -0.1629    0.3919 N   0  0  0  0  0  0  0  0  0  0  0  0
    2.0632   -1.1806    1.0459 C   0  0  0  0  0  0  0  0  0  0  0  0
    3.4459   -0.6061    0.9551 C   0  0  0  0  0  0  0  0  0  0  0  0
    3.4369    0.1775   -0.3337 C   0  0  0  0  0  0  0  0  0  0  0  0
    4.4229    0.6464   -1.1619 C   0  0  0  0  0  0  0  0  0  0  0  0
    5.8425    0.3744   -0.8954 C   0  0  0  0  0  0  0  0  0  0  0  0
    6.2564   -0.9195   -0.7374 C   0  0  0  0  0  0  0  0  0  0  0  0
    7.6002   -1.1545   -0.4668 C   0  0  0  0  0  0  0  0  0  0  0  0
    8.4986   -0.1272   -0.3590 C   0  0  0  0  0  0  0  0  0  0  0  0
    8.0519    1.1668   -0.5240 C   0  0  0  0  0  0  0  0  0  0  0  0
    6.7333    1.4381   -0.7918 C   0  0  0  0  0  0  0  0  0  0  0  0
    4.0854    1.3723   -2.2817 C   0  0  0  0  0  0  0  0  0  0  0  0
    2.7731    1.6366   -2.5870 C   0  0  0  0  0  0  0  0  0  0  0  0
    1.7873    1.1633   -1.7532 C   0  0  0  0  0  0  0  0  0  0  0  0
    2.1022    0.4270   -0.6146 C   0  0  0  0  0  0  0  0  0  0  0  0
   -0.3886   -0.1756    2.6692 H   0  0  0  0  0  0  0  0  0  0  0  0
   -0.9374   -1.5034    1.6253 H   0  0  0  0  0  0  0  0  0  0  0  0
   -7.1091    0.9284   -0.5515 H   0  0  0  0  0  0  0  0  0  0  0  0
   -7.1134    0.6589    1.2154 H   0  0  0  0  0  0  0  0  0  0  0  0
   -7.5237   -1.7469    0.8640 H   0  0  0  0  0  0  0  0  0  0  0  0
   -8.8583   -0.7261    0.1688 H   0  0  0  0  0  0  0  0  0  0  0  0
   -6.1302   -2.3964   -2.3464 H   0  0  0  0  0  0  0  0  0  0  0  0
   -6.3454   -3.1305   -0.7299 H   0  0  0  0  0  0  0  0  0  0  0  0
   -4.6296   -0.8565   -1.6587 H   0  0  0  0  0  0  0  0  0  0  0  0
   -4.4218   -2.0078   -0.3322 H   0  0  0  0  0  0  0  0  0  0  0  0
   -5.6584    1.8550    1.8100 H   0  0  0  0  0  0  0  0  0  0  0  0
   -1.6403    1.6637    3.0874 H   0  0  0  0  0  0  0  0  0  0  0  0
    1.9639   -2.1331    0.5130 H   0  0  0  0  0  0  0  0  0  0  0  0
    1.7394   -1.3512    2.0955 H   0  0  0  0  0  0  0  0  0  0  0  0
    4.1641   -1.4093    0.9875 H   0  0  0  0  0  0  0  0  0  0  0  0
    3.6742    0.0930    1.7848 H   0  0  0  0  0  0  0  0  0  0  0  0
    5.5694   -1.7419   -0.8313 H   0  0  0  0  0  0  0  0  0  0  0  0
    7.8982   -2.1834   -0.3464 H   0  0  0  0  0  0  0  0  0  0  0  0
    9.5466   -0.2774   -0.1498 H   0  0  0  0  0  0  0  0  0  0  0  0
    8.7712    1.9774   -0.4373 H   0  0  0  0  0  0  0  0  0  0  0  0
    6.3949    2.4540   -0.9189 H   0  0  0  0  0  0  0  0  0  0  0  0
    4.8858    1.7521   -2.9517 H   0  0  0  0  0  0  0  0  0  0  0  0
    2.4972    2.2039   -3.4612 H   0  0  0  0  0  0  0  0  0  0  0  0
    0.7385    1.3450   -1.9511 H   0  0  0  0  0  0  0  0  0  0  0  0
  1  2  2  0
  2  3  1  0
  3  4  1  0
  4  5  2  0
  5  6  1  0
  6  7  1  0
  7  8  1  0
  8  9  1  0
  9 10  1  0
 10 11  1  0
 11 12  1  0
  6 13  2  0
 13 14  1  0
 14 15  2  0
 14 16  1  0
  2 17  1  0
 17 18  1  0
 18 19  1  0
 19 20  1  0
 20 21  2  0
 21 22  1  0
 22 23  2  0
 23 24  1  0
 24 25  2  0
 25 26  1  0
 26 27  2  0
 21 28  1  0
 28 29  2  0
 29 30  1  0
 30 31  2  0
 16  4  1  0
 31 17  1  0
 12  7  1  0
 31 20  1  0
 27 22  1  0
  3 32  1  0
  3 33  1  0
  8 34  1  0
  8 35  1  0
  9 36  1  0
  9 37  1  0
 11 38  1  0
 11 39  1  0
 12 40  1  0
 12 41  1  0
 13 42  1  0
 16 43  1  0
 18 44  1  0
 18 45  1  0
 19 46  1  0
 19 47  1  0
 23 48  1  0
 24 49  1  0
 25 50  1  0
 26 51  1  0
 27 52  1  0
 28 53  1  0
 29 54  1  0
 30 55  1  0
M  END
$$$$
