
     RDKit          3D

 46 49  0  0  0  0  0  0  0  0999 V2000
    7.8695   -0.5148   -2.0284 C   0  0  0  0  0  0  0  0  0  0  0  0
    7.0520   -1.3517   -1.2612 O   0  0  0  0  0  0  0  0  0  0  0  0
    5.8137   -0.9028   -0.8452 C   0  0  0  0  0  0  0  0  0  0  0  0
    4.9908   -1.7074   -0.0894 C   0  0  0  0  0  0  0  0  0  0  0  0
    3.7837   -1.2497    0.3073 N   0  0  0  0  0  0  0  0  0  0  0  0
    3.3365   -0.0297   -0.0023 C   0  0  0  0  0  0  0  0  0  0  0  0
    2.0314    0.4159    0.4481 C   0  0  0  0  0  0  0  0  0  0  0  0
    1.6025    1.5556    0.1645 O   0  0  0  0  0  0  0  0  0  0  0  0
    1.2382   -0.4647    1.2223 N   0  0  0  0  0  0  0  0  0  0  0  0
   -0.0541   -0.1319    1.7155 C   0  0  0  0  0  0  0  0  0  0  0  0
   -0.2231    0.4626    2.9461 C   0  0  0  0  0  0  0  0  0  0  0  0
   -1.5021    0.7583    3.3631 C   0  0  0  0  0  0  0  0  0  0  0  0
   -2.6097    0.4858    2.6056 C   0  0  0  0  0  0  0  0  0  0  0  0
   -3.8717    0.7785    3.0069 F   0  0  0  0  0  0  0  0  0  0  0  0
   -2.4494   -0.1103    1.3706 C   0  0  0  0  0  0  0  0  0  0  0  0
   -3.6325   -0.4187    0.5290 C   0  0  1  0  0  0  0  0  0  0  0  0
   -4.5964   -1.3669    1.2083 C   0  0  0  0  0  0  0  0  0  0  0  0
   -3.9587   -2.5821    1.5019 F   0  0  0  0  0  0  0  0  0  0  0  0
   -5.6259   -1.7257    0.3407 F   0  0  0  0  0  0  0  0  0  0  0  0
   -4.3454    0.8021    0.2350 N   0  0  0  0  0  0  0  0  0  0  0  0
   -4.2033    1.5046   -0.8177 C   0  0  0  0  0  0  0  0  0  0  0  0
   -4.9298    2.7100   -1.0699 N   0  0  0  0  0  0  0  0  0  0  0  0
   -3.2895    1.0619   -1.7616 O   0  0  0  0  0  0  0  0  0  0  0  0
   -2.9718   -0.3070   -1.8927 C   0  0  2  0  0  0  0  0  0  0  0  0
   -4.2009   -1.2365   -1.8369 C   0  0  0  0  0  0  0  0  0  0  0  0
   -3.1459   -1.1213   -0.7099 C   0  0  2  0  0  0  0  0  0  0  0  0
   -1.1645   -0.4095    0.9469 C   0  0  0  0  0  0  0  0  0  0  0  0
    4.1722    0.7744   -0.7642 C   0  0  0  0  0  0  0  0  0  0  0  0
    3.6098    2.3734   -1.1816 Cl  0  0  0  0  0  0  0  0  0  0  0  0
    5.3949    0.3583   -1.1867 C   0  0  0  0  0  0  0  0  0  0  0  0
    8.1985    0.3471   -1.3928 H   0  0  0  0  0  0  0  0  0  0  0  0
    7.3540   -0.1201   -2.9179 H   0  0  0  0  0  0  0  0  0  0  0  0
    8.7868   -1.0469   -2.3546 H   0  0  0  0  0  0  0  0  0  0  0  0
    5.3256   -2.6903    0.1725 H   0  0  0  0  0  0  0  0  0  0  0  0
    1.6347   -1.4034    1.4345 H   0  0  0  0  0  0  0  0  0  0  0  0
    0.6475    0.6941    3.5782 H   0  0  0  0  0  0  0  0  0  0  0  0
   -1.6655    1.2252    4.3242 H   0  0  0  0  0  0  0  0  0  0  0  0
   -4.9913   -1.0031    2.1627 H   0  0  0  0  0  0  0  0  0  0  0  0
   -5.0320    3.4584   -0.3452 H   0  0  0  0  0  0  0  0  0  0  0  0
   -5.3755    2.8701   -1.9852 H   0  0  0  0  0  0  0  0  0  0  0  0
   -2.1937   -0.5514   -2.6336 H   0  0  0  0  0  0  0  0  0  0  0  0
   -4.1405   -2.1600   -2.4662 H   0  0  0  0  0  0  0  0  0  0  0  0
   -5.1816   -0.7609   -1.6845 H   0  0  0  0  0  0  0  0  0  0  0  0
   -2.5577   -2.0329   -0.5472 H   0  0  0  0  0  0  0  0  0  0  0  0
   -0.9861   -0.8823   -0.0305 H   0  0  0  0  0  0  0  0  0  0  0  0
    6.0565    0.9686   -1.7784 H   0  0  0  0  0  0  0  0  0  0  0  0
  1  2  1  0
  2  3  1  0
  3  4  2  0
  4  5  1  0
  5  6  2  0
  6  7  1  0
  7  8  2  0
  7  9  1  0
  9 10  1  0
 10 11  2  0
 11 12  1  0
 12 13  2  0
 13 14  1  0
 13 15  1  0
 15 16  1  0
 16 17  1  1
 17 18  1  0
 17 19  1  0
 16 20  1  0
 20 21  2  0
 21 22  1  0
 21 23  1  0
 23 24  1  0
 24 25  1  0
 25 26  1  0
 15 27  2  0
  6 28  1  0
 28 29  1  0
 28 30  2  0
 30  3  1  0
 27 10  1  0
 26 16  1  0
 26 24  1  0
  1 31  1  0
  1 32  1  0
  1 33  1  0
  4 34  1  0
  9 35  1  0
 11 36  1  0
 12 37  1  0
 17 38  1  0
 22 39  1  0
 22 40  1  0
 24 41  1  6
 25 42  1  0
 25 43  1  0
 26 44  1  1
 27 45  1  0
 30 46  1  0
M  END
$$$$
