@<TRIPOS>MOLECULE
*****
 46 49 0 0 0
SMALL
GASTEIGER

@<TRIPOS>ATOM
      1 C           7.8695   -0.5148   -2.0284 C.3     1  UNL1        0.0789
      2 O           7.0520   -1.3517   -1.2612 O.3     1  UNL1       -0.4935
      3 C           5.8137   -0.9028   -0.8452 C.ar    1  UNL1        0.1395
      4 C           4.9908   -1.7074   -0.0894 C.ar    1  UNL1        0.0701
      5 N           3.7837   -1.2497    0.3073 N.ar    1  UNL1       -0.2452
      6 C           3.3365   -0.0297   -0.0023 C.ar    1  UNL1        0.1441
      7 C           2.0314    0.4159    0.4481 C.2     1  UNL1        0.2680
      8 O           1.6025    1.5556    0.1645 O.2     1  UNL1       -0.2681
      9 N           1.2382   -0.4647    1.2223 N.am    1  UNL1       -0.2802
     10 C          -0.0541   -0.1319    1.7155 C.ar    1  UNL1        0.0342
     11 C          -0.2231    0.4626    2.9461 C.ar    1  UNL1       -0.0377
     12 C          -1.5021    0.7583    3.3631 C.ar    1  UNL1       -0.0243
     13 C          -2.6097    0.4858    2.6056 C.ar    1  UNL1        0.1292
     14 F          -3.8717    0.7785    3.0069 F       1  UNL1       -0.2051
     15 C          -2.4494   -0.1103    1.3706 C.ar    1  UNL1        0.0228
     16 C          -3.6325   -0.4187    0.5290 C.3     1  UNL1        0.1603
     17 C          -4.5964   -1.3669    1.2083 C.3     1  UNL1        0.2686
     18 F          -3.9587   -2.5821    1.5019 F       1  UNL1       -0.2062
     19 F          -5.6259   -1.7257    0.3407 F       1  UNL1       -0.2062
     20 N          -4.3454    0.8021    0.2350 N.2     1  UNL1       -0.2194
     21 C          -4.2033    1.5046   -0.8177 C.2     1  UNL1        0.2764
     22 N          -4.9298    2.7100   -1.0699 N.pl3   1  UNL1       -0.3134
     23 O          -3.2895    1.0619   -1.7616 O.2     1  UNL1       -0.4622
     24 C          -2.9718   -0.3070   -1.8927 C.3     1  UNL1        0.1091
     25 C          -4.2009   -1.2365   -1.8369 C.3     1  UNL1       -0.0064
     26 C          -3.1459   -1.1213   -0.7099 C.3     1  UNL1        0.0344
     27 C          -1.1645   -0.4095    0.9469 C.ar    1  UNL1       -0.0321
     28 C           4.1722    0.7744   -0.7642 C.ar    1  UNL1        0.0749
     29 CL          3.6098    2.3734   -1.1816 Cl      1  UNL1       -0.0811
     30 C           5.3949    0.3583   -1.1867 C.ar    1  UNL1        0.0021
     31 H           8.1985    0.3471   -1.3928 H       1  UNL1        0.0660
     32 H           7.3540   -0.1201   -2.9179 H       1  UNL1        0.0660
     33 H           8.7868   -1.0469   -2.3546 H       1  UNL1        0.0660
     34 H           5.3256   -2.6903    0.1725 H       1  UNL1        0.0867
     35 H           1.6347   -1.4034    1.4345 H       1  UNL1        0.1552
     36 H           0.6475    0.6941    3.5782 H       1  UNL1        0.0637
     37 H          -1.6655    1.2252    4.3242 H       1  UNL1        0.0647
     38 H          -4.9913   -1.0031    2.1627 H       1  UNL1        0.1047
     39 H          -5.0320    3.4584   -0.3452 H       1  UNL1        0.1466
     40 H          -5.3755    2.8701   -1.9852 H       1  UNL1        0.1466
     41 H          -2.1937   -0.5514   -2.6336 H       1  UNL1        0.0737
     42 H          -4.1405   -2.1600   -2.4662 H       1  UNL1        0.0306
     43 H          -5.1816   -0.7609   -1.6845 H       1  UNL1        0.0306
     44 H          -2.5577   -2.0329   -0.5472 H       1  UNL1        0.0366
     45 H          -0.9861   -0.8823   -0.0305 H       1  UNL1        0.0640
     46 H           6.0565    0.9686   -1.7784 H       1  UNL1        0.0670
@<TRIPOS>BOND
     1     1     2    1
     2     2     3    1
     3     3     4   ar
     4     4     5   ar
     5     5     6   ar
     6     6     7    1
     7     7     8    2
     8     7     9   am
     9     9    10    1
    10    10    11   ar
    11    11    12   ar
    12    12    13   ar
    13    13    14    1
    14    13    15   ar
    15    15    16    1
    16    16    17    1
    17    17    18    1
    18    17    19    1
    19    16    20    1
    20    20    21    2
    21    21    22    1
    22    21    23    1
    23    23    24    1
    24    24    25    1
    25    25    26    1
    26    15    27   ar
    27     6    28   ar
    28    28    29    1
    29    28    30   ar
    30    30     3   ar
    31    27    10   ar
    32    26    16    1
    33    26    24    1
    34     1    31    1
    35     1    32    1
    36     1    33    1
    37     4    34    1
    38     9    35    1
    39    11    36    1
    40    12    37    1
    41    17    38    1
    42    22    39    1
    43    22    40    1
    44    24    41    1
    45    25    42    1
    46    25    43    1
    47    26    44    1
    48    27    45    1
    49    30    46    1
