
     RDKit          3D

 55 57  0  0  0  0  0  0  0  0999 V2000
   -0.1163    3.5318    0.0857 C   0  0  0  0  0  0  0  0  0  0  0  0
    0.6119    2.3597   -0.2165 O   0  0  0  0  0  0  0  0  0  0  0  0
    0.0373    1.1366    0.0478 C   0  0  0  0  0  0  0  0  0  0  0  0
   -1.2216    1.0337    0.5919 C   0  0  0  0  0  0  0  0  0  0  0  0
   -1.8109   -0.2106    0.8588 C   0  0  0  0  0  0  0  0  0  0  0  0
   -3.1645   -0.2970    1.4561 C   0  0  0  0  0  0  0  0  0  0  0  0
   -4.2474   -0.1574    0.4973 C   0  0  0  0  0  0  0  0  0  0  0  0
   -4.9222    1.0368    0.3901 C   0  0  0  0  0  0  0  0  0  0  0  0
   -5.9182    1.1455   -0.5131 N   0  0  0  0  0  0  0  0  0  0  0  0
   -6.2775    0.1146   -1.3210 C   0  0  0  0  0  0  0  0  0  0  0  0
   -7.3282    0.2391   -2.2702 N   0  0  0  0  0  0  0  0  0  0  0  0
   -5.6231   -1.0555   -1.2224 N   0  0  0  0  0  0  0  0  0  0  0  0
   -4.6076   -1.2007   -0.3166 C   0  0  0  0  0  0  0  0  0  0  0  0
   -3.9989   -2.4817   -0.2994 N   0  0  0  0  0  0  0  0  0  0  0  0
   -1.0842   -1.3239    0.5564 C   0  0  0  0  0  0  0  0  0  0  0  0
    0.2045   -1.2571   -0.0003 C   0  0  0  0  0  0  0  0  0  0  0  0
    0.7399   -0.0080   -0.2426 C   0  0  0  0  0  0  0  0  0  0  0  0
    2.0646    0.0661   -0.8031 N   0  0  0  0  0  0  0  0  0  0  0  0
    2.9623    1.1419   -0.5326 C   0  0  0  0  0  0  0  0  0  0  0  0
    4.1693    0.5794    0.2919 C   0  0  0  0  0  0  0  0  0  0  0  0
    5.0017    1.7018    0.5084 O   0  0  0  0  0  0  0  0  0  0  0  0
    6.1987    1.6286    1.2187 C   0  0  0  0  0  0  0  0  0  0  0  0
    7.0574    2.8302    1.4303 C   0  0  0  0  0  0  0  0  0  0  0  0
    6.5225    0.5036    1.6735 O   0  0  0  0  0  0  0  0  0  0  0  0
    2.4675   -1.0352   -1.6762 C   0  0  0  0  0  0  0  0  0  0  0  0
    2.2162   -2.3545   -0.9790 C   0  0  0  0  0  0  0  0  0  0  0  0
    0.9107   -2.5123   -0.3152 C   0  0  0  0  0  0  0  0  0  0  0  0
   -0.0491   -3.3968   -1.0954 C   0  0  0  0  0  0  0  0  0  0  0  0
   -1.1177    3.3808   -0.3694 H   0  0  0  0  0  0  0  0  0  0  0  0
    0.3837    4.4332   -0.3293 H   0  0  0  0  0  0  0  0  0  0  0  0
   -0.2529    3.6047    1.1773 H   0  0  0  0  0  0  0  0  0  0  0  0
   -1.8101    1.8929    0.8379 H   0  0  0  0  0  0  0  0  0  0  0  0
   -3.2176   -1.2685    2.0356 H   0  0  0  0  0  0  0  0  0  0  0  0
   -3.1968    0.4807    2.2738 H   0  0  0  0  0  0  0  0  0  0  0  0
   -4.6888    1.8978    1.0011 H   0  0  0  0  0  0  0  0  0  0  0  0
   -7.3987    1.1756   -2.7543 H   0  0  0  0  0  0  0  0  0  0  0  0
   -7.9933   -0.5529   -2.4754 H   0  0  0  0  0  0  0  0  0  0  0  0
   -4.0277   -3.0994    0.5439 H   0  0  0  0  0  0  0  0  0  0  0  0
   -3.5044   -2.8326   -1.1434 H   0  0  0  0  0  0  0  0  0  0  0  0
   -1.4572   -2.3076    0.7348 H   0  0  0  0  0  0  0  0  0  0  0  0
    3.4715    1.5198   -1.4672 H   0  0  0  0  0  0  0  0  0  0  0  0
    2.6051    1.9385    0.1027 H   0  0  0  0  0  0  0  0  0  0  0  0
    3.8161    0.0947    1.1997 H   0  0  0  0  0  0  0  0  0  0  0  0
    4.6855   -0.0800   -0.4321 H   0  0  0  0  0  0  0  0  0  0  0  0
    6.6930    3.4831    2.2377 H   0  0  0  0  0  0  0  0  0  0  0  0
    8.0696    2.4787    1.6507 H   0  0  0  0  0  0  0  0  0  0  0  0
    7.0834    3.3802    0.4506 H   0  0  0  0  0  0  0  0  0  0  0  0
    1.9119   -1.0290   -2.6187 H   0  0  0  0  0  0  0  0  0  0  0  0
    3.5504   -0.9835   -1.8937 H   0  0  0  0  0  0  0  0  0  0  0  0
    2.3686   -3.1568   -1.7218 H   0  0  0  0  0  0  0  0  0  0  0  0
    3.0336   -2.4384   -0.2107 H   0  0  0  0  0  0  0  0  0  0  0  0
    1.0751   -3.0522    0.6533 H   0  0  0  0  0  0  0  0  0  0  0  0
   -0.9095   -2.7741   -1.3960 H   0  0  0  0  0  0  0  0  0  0  0  0
   -0.4157   -4.2553   -0.5331 H   0  0  0  0  0  0  0  0  0  0  0  0
    0.4479   -3.6890   -2.0598 H   0  0  0  0  0  0  0  0  0  0  0  0
  1  2  1  0
  2  3  1  0
  3  4  2  0
  4  5  1  0
  5  6  1  0
  6  7  1  0
  7  8  2  0
  8  9  1  0
  9 10  2  0
 10 11  1  0
 10 12  1  0
 12 13  2  0
 13 14  1  0
  5 15  2  0
 15 16  1  0
 16 17  2  0
 17 18  1  0
 18 19  1  0
 19 20  1  0
 20 21  1  0
 21 22  1  0
 22 23  1  0
 22 24  2  0
 18 25  1  0
 25 26  1  0
 26 27  1  0
 27 28  1  0
 17  3  1  0
 13  7  1  0
 27 16  1  0
  1 29  1  0
  1 30  1  0
  1 31  1  0
  4 32  1  0
  6 33  1  0
  6 34  1  0
  8 35  1  0
 11 36  1  0
 11 37  1  0
 14 38  1  0
 14 39  1  0
 15 40  1  0
 19 41  1  0
 19 42  1  0
 20 43  1  0
 20 44  1  0
 23 45  1  0
 23 46  1  0
 23 47  1  0
 25 48  1  0
 25 49  1  0
 26 50  1  0
 26 51  1  0
 27 52  1  0
 28 53  1  0
 28 54  1  0
 28 55  1  0
M  END
$$$$
