@<TRIPOS>MOLECULE
*****
 55 57 0 0 0
SMALL
GASTEIGER

@<TRIPOS>ATOM
      1 C          -0.1163    3.5318    0.0857 C.3     1  UNL1        0.0789
      2 O           0.6119    2.3597   -0.2165 O.3     1  UNL1       -0.4932
      3 C           0.0373    1.1366    0.0478 C.ar    1  UNL1        0.1416
      4 C          -1.2216    1.0337    0.5919 C.ar    1  UNL1       -0.0146
      5 C          -1.8109   -0.2106    0.8588 C.ar    1  UNL1       -0.0391
      6 C          -3.1645   -0.2970    1.4561 C.3     1  UNL1        0.0024
      7 C          -4.2474   -0.1574    0.4973 C.ar    1  UNL1        0.0146
      8 C          -4.9222    1.0368    0.3901 C.ar    1  UNL1        0.0379
      9 N          -5.9182    1.1455   -0.5131 N.ar    1  UNL1       -0.2227
     10 C          -6.2775    0.1146   -1.3210 C.ar    1  UNL1        0.2142
     11 N          -7.3282    0.2391   -2.2702 N.pl3   1  UNL1       -0.3274
     12 N          -5.6231   -1.0555   -1.2224 N.ar    1  UNL1       -0.1999
     13 C          -4.6076   -1.2007   -0.3166 C.ar    1  UNL1        0.1247
     14 N          -3.9989   -2.4817   -0.2994 N.pl3   1  UNL1       -0.3428
     15 C          -1.0842   -1.3239    0.5564 C.ar    1  UNL1       -0.0528
     16 C           0.2045   -1.2571   -0.0003 C.ar    1  UNL1       -0.0196
     17 C           0.7399   -0.0080   -0.2426 C.ar    1  UNL1        0.0755
     18 N           2.0646    0.0661   -0.8031 N.pl3   1  UNL1       -0.3236
     19 C           2.9623    1.1419   -0.5326 C.3     1  UNL1        0.0466
     20 C           4.1693    0.5794    0.2919 C.3     1  UNL1        0.1080
     21 O           5.0017    1.7018    0.5084 O.3     1  UNL1       -0.4632
     22 C           6.1987    1.6286    1.2187 C.2     1  UNL1        0.3040
     23 C           7.0574    2.8302    1.4303 C.3     1  UNL1        0.0332
     24 O           6.5225    0.5036    1.6735 O.2     1  UNL1       -0.2512
     25 C           2.4675   -1.0352   -1.6762 C.3     1  UNL1        0.0130
     26 C           2.2162   -2.3545   -0.9790 C.3     1  UNL1       -0.0306
     27 C           0.9107   -2.5123   -0.3152 C.3     1  UNL1       -0.0154
     28 C          -0.0491   -3.3968   -1.0954 C.3     1  UNL1       -0.0583
     29 H          -1.1177    3.3808   -0.3694 H       1  UNL1        0.0660
     30 H           0.3837    4.4332   -0.3293 H       1  UNL1        0.0660
     31 H          -0.2529    3.6047    1.1773 H       1  UNL1        0.0660
     32 H          -1.8101    1.8929    0.8379 H       1  UNL1        0.0657
     33 H          -3.2176   -1.2685    2.0356 H       1  UNL1        0.0363
     34 H          -3.1968    0.4807    2.2738 H       1  UNL1        0.0363
     35 H          -4.6888    1.8978    1.0011 H       1  UNL1        0.0834
     36 H          -7.3987    1.1756   -2.7543 H       1  UNL1        0.1452
     37 H          -7.9933   -0.5529   -2.4754 H       1  UNL1        0.1452
     38 H          -4.0277   -3.0994    0.5439 H       1  UNL1        0.1437
     39 H          -3.5044   -2.8326   -1.1434 H       1  UNL1        0.1437
     40 H          -1.4572   -2.3076    0.7348 H       1  UNL1        0.0624
     41 H           3.4715    1.5198   -1.4672 H       1  UNL1        0.0497
     42 H           2.6051    1.9385    0.1027 H       1  UNL1        0.0497
     43 H           3.8161    0.0947    1.1997 H       1  UNL1        0.0713
     44 H           4.6855   -0.0800   -0.4321 H       1  UNL1        0.0713
     45 H           6.6930    3.4831    2.2377 H       1  UNL1        0.0342
     46 H           8.0696    2.4787    1.6507 H       1  UNL1        0.0342
     47 H           7.0834    3.3802    0.4506 H       1  UNL1        0.0342
     48 H           1.9119   -1.0290   -2.6187 H       1  UNL1        0.0464
     49 H           3.5504   -0.9835   -1.8937 H       1  UNL1        0.0464
     50 H           2.3686   -3.1568   -1.7218 H       1  UNL1        0.0286
     51 H           3.0336   -2.4384   -0.2107 H       1  UNL1        0.0286
     52 H           1.0751   -3.0522    0.6533 H       1  UNL1        0.0347
     53 H          -0.9095   -2.7741   -1.3960 H       1  UNL1        0.0236
     54 H          -0.4157   -4.2553   -0.5331 H       1  UNL1        0.0236
     55 H           0.4479   -3.6890   -2.0598 H       1  UNL1        0.0236
@<TRIPOS>BOND
     1     1     2    1
     2     2     3    1
     3     3     4   ar
     4     4     5   ar
     5     5     6    1
     6     6     7    1
     7     7     8   ar
     8     8     9   ar
     9     9    10   ar
    10    10    11    1
    11    10    12   ar
    12    12    13   ar
    13    13    14    1
    14     5    15   ar
    15    15    16   ar
    16    16    17   ar
    17    17    18    1
    18    18    19    1
    19    19    20    1
    20    20    21    1
    21    21    22    1
    22    22    23    1
    23    22    24    2
    24    18    25    1
    25    25    26    1
    26    26    27    1
    27    27    28    1
    28    17     3   ar
    29    13     7   ar
    30    27    16    1
    31     1    29    1
    32     1    30    1
    33     1    31    1
    34     4    32    1
    35     6    33    1
    36     6    34    1
    37     8    35    1
    38    11    36    1
    39    11    37    1
    40    14    38    1
    41    14    39    1
    42    15    40    1
    43    19    41    1
    44    19    42    1
    45    20    43    1
    46    20    44    1
    47    23    45    1
    48    23    46    1
    49    23    47    1
    50    25    48    1
    51    25    49    1
    52    26    50    1
    53    26    51    1
    54    27    52    1
    55    28    53    1
    56    28    54    1
    57    28    55    1
