@<TRIPOS>MOLECULE
*****
 110 113 0 0 0
SMALL
GASTEIGER

@<TRIPOS>ATOM
      1 C          -0.2573   -3.0504    3.8498 C.2     1  UNL1       -0.1026
      2 C          -0.7819   -3.6555    2.7695 C.2     1  UNL1       -0.0889
      3 C          -1.3418   -2.9382    1.6000 C.3     1  UNL1       -0.0080
      4 C          -1.0794   -1.4802    1.7236 C.3     1  UNL1        0.1028
      5 N          -1.6588   -0.6964    0.6557 N.am    1  UNL1       -0.3024
      6 C          -2.6910    0.2723    0.9534 C.2     1  UNL1        0.2326
      7 O          -3.0243    0.4238    2.1355 O.2     1  UNL1       -0.2740
      8 C          -3.3727    1.0958   -0.1286 C.3     1  UNL1        0.1097
      9 C          -2.4679    2.0712   -0.7837 C.3     1  UNL1       -0.0021
     10 C          -1.8725    3.1367    0.0721 C.ar    1  UNL1       -0.0454
     11 C          -2.4214    4.4127    0.1660 C.ar    1  UNL1       -0.0585
     12 C          -1.7835    5.3347    0.9700 C.ar    1  UNL1       -0.0615
     13 C          -0.6440    5.0998    1.6943 C.ar    1  UNL1       -0.0617
     14 C          -0.1250    3.8131    1.5745 C.ar    1  UNL1       -0.0615
     15 C          -0.7280    2.8567    0.7809 C.ar    1  UNL1       -0.0585
     16 N          -4.4165    1.7860    0.6033 N.3     1  UNL1       -0.1675
     17 S          -6.0368    1.4327    0.2924 S.O2    1  UNL1        0.0978
     18 O          -6.0622    0.0208   -0.4721 O.2     1  UNL1       -0.1411
     19 O          -6.8057    1.2782    1.5576 O.2     1  UNL1       -0.1411
     20 N          -6.8626    2.3885   -0.8462 N.3     1  UNL1       -0.1641
     21 C          -6.5785    2.1694   -2.2439 C.3     1  UNL1        0.0343
     22 C          -7.7553    1.4187   -2.8731 C.3     1  UNL1        0.0131
     23 N          -8.4568    0.6391   -1.8554 N.3     1  UNL1       -0.3028
     24 C          -9.5945   -0.0378   -2.5678 C.3     1  UNL1       -0.0127
     25 C          -9.1216    1.5142   -0.9059 C.3     1  UNL1        0.0131
     26 C          -8.2476    2.6578   -0.5373 C.3     1  UNL1        0.0343
     27 C           0.3619   -1.1583    1.8842 C.2     1  UNL1        0.2340
     28 O           0.7336   -0.0007    2.1897 O.2     1  UNL1       -0.2738
     29 N           1.4105   -2.1502    1.7041 N.am    1  UNL1       -0.3082
     30 C           2.8107   -1.8611    1.8876 C.3     1  UNL1        0.0555
     31 C           3.6002   -2.6568    2.7904 C.3     1  UNL1       -0.0290
     32 C           3.8430   -4.0942    2.6836 C.3     1  UNL1       -0.0393
     33 C           2.6881   -5.0504    2.6496 C.3     1  UNL1       -0.0502
     34 C           3.3116   -6.4161    3.0745 C.3     1  UNL1       -0.0528
     35 C           4.0878   -6.9218    1.8553 C.3     1  UNL1       -0.0530
     36 C           4.4914   -5.7705    0.9629 C.3     1  UNL1       -0.0528
     37 C           4.9229   -4.5302    1.7436 C.3     1  UNL1       -0.0502
     38 C           3.3821   -1.3166    0.5532 C.3     1  UNL1        0.1453
     39 O           4.7196   -1.0834    0.7428 O.3     1  UNL1       -0.3835
     40 C           2.9527   -1.9741   -0.6739 C.3     1  UNL1        0.3494
     41 F           3.2289   -3.2966   -0.7937 F       1  UNL1       -0.1924
     42 F           1.5833   -1.8474   -0.8433 F       1  UNL1       -0.1924
     43 C           3.6082   -1.2988   -1.8135 C.2     1  UNL1        0.2853
     44 O           4.3379   -1.9489   -2.6390 O.2     1  UNL1       -0.2692
     45 N           3.4935    0.0968   -2.0692 N.am    1  UNL1       -0.3091
     46 C           4.1852    0.6795   -3.1874 C.3     1  UNL1        0.0245
     47 C           3.9471    2.1400   -3.2717 C.3     1  UNL1        0.0146
     48 N           4.3702    2.8531   -2.0505 N.3     1  UNL1       -0.2965
     49 C           5.7935    2.8457   -1.9008 C.3     1  UNL1        0.0225
     50 C           6.4797    4.1589   -2.0012 C.3     1  UNL1        0.0604
     51 O           5.9483    5.1278   -1.1704 O.3     1  UNL1       -0.3772
     52 C           4.5153    5.1316   -1.1227 C.3     1  UNL1        0.0604
     53 C           3.9856    4.2667   -2.2374 C.3     1  UNL1        0.0225
     54 H          -0.1561   -2.0243    4.0275 H       1  UNL1        0.0532
     55 H           0.0912   -3.7354    4.6912 H       1  UNL1        0.0532
     56 H          -0.8186   -4.7435    2.7290 H       1  UNL1        0.0567
     57 H          -2.4465   -3.0928    1.6751 H       1  UNL1        0.0330
     58 H          -0.9986   -3.3668    0.6390 H       1  UNL1        0.0330
     59 H          -1.5265   -1.1979    2.7435 H       1  UNL1        0.0598
     60 H          -1.3755   -0.8189   -0.3028 H       1  UNL1        0.1495
     61 H          -3.7858    0.3904   -0.8735 H       1  UNL1        0.0576
     62 H          -3.1045    2.6206   -1.5735 H       1  UNL1        0.0334
     63 H          -1.6762    1.6024   -1.4123 H       1  UNL1        0.0334
     64 H          -3.3023    4.6837   -0.3942 H       1  UNL1        0.0620
     65 H          -2.1721    6.3728    1.0466 H       1  UNL1        0.0618
     66 H          -0.1586    5.8511    2.3356 H       1  UNL1        0.0618
     67 H           0.7905    3.5930    2.1127 H       1  UNL1        0.0618
     68 H          -0.3267    1.8372    0.6571 H       1  UNL1        0.0620
     69 H          -4.1609    2.8085    0.6139 H       1  UNL1        0.1500
     70 H          -6.4658    3.0933   -2.8609 H       1  UNL1        0.0457
     71 H          -5.7042    1.5338   -2.4044 H       1  UNL1        0.0457
     72 H          -7.4068    0.7514   -3.7454 H       1  UNL1        0.0439
     73 H          -8.4770    2.1054   -3.3393 H       1  UNL1        0.0439
     74 H         -10.0235   -0.7922   -1.9208 H       1  UNL1        0.0391
     75 H          -9.3287   -0.3550   -3.5972 H       1  UNL1        0.0391
     76 H         -10.3426    0.7929   -2.7679 H       1  UNL1        0.0391
     77 H         -10.0850    1.8936   -1.3904 H       1  UNL1        0.0439
     78 H          -9.4514    0.9072   -0.0321 H       1  UNL1        0.0439
     79 H          -8.5519    3.6216   -1.0608 H       1  UNL1        0.0457
     80 H          -8.2841    2.9072    0.5770 H       1  UNL1        0.0457
     81 H           1.0394   -3.0758    1.4039 H       1  UNL1        0.1491
     82 H           2.7764   -0.8138    2.4122 H       1  UNL1        0.0526
     83 H           4.6447   -2.1911    2.8193 H       1  UNL1        0.0287
     84 H           3.2525   -2.4375    3.8422 H       1  UNL1        0.0287
     85 H           4.2981   -4.3428    3.6923 H       1  UNL1        0.0301
     86 H           1.9055   -4.8922    3.4014 H       1  UNL1        0.0268
     87 H           2.3083   -5.2566    1.6472 H       1  UNL1        0.0268
     88 H           2.5018   -7.1538    3.2492 H       1  UNL1        0.0265
     89 H           3.9685   -6.3449    3.9039 H       1  UNL1        0.0265
     90 H           5.0156   -7.4818    2.1677 H       1  UNL1        0.0265
     91 H           3.4630   -7.6356    1.3125 H       1  UNL1        0.0265
     92 H           5.4292   -6.1023    0.3451 H       1  UNL1        0.0265
     93 H           3.7728   -5.5946    0.1540 H       1  UNL1        0.0265
     94 H           5.8937   -4.8372    2.2119 H       1  UNL1        0.0268
     95 H           5.2222   -3.7985    0.9799 H       1  UNL1        0.0268
     96 H           2.9467   -0.2540    0.4145 H       1  UNL1        0.0677
     97 H           4.9302   -0.2686    1.2646 H       1  UNL1        0.2101
     98 H           2.9242    0.6426   -1.4185 H       1  UNL1        0.1489
     99 H           3.8578    0.2324   -4.1912 H       1  UNL1        0.0474
    100 H           5.2952    0.4745   -3.0582 H       1  UNL1        0.0474
    101 H           4.5180    2.6439   -4.1075 H       1  UNL1        0.0442
    102 H           2.8644    2.4264   -3.3928 H       1  UNL1        0.0442
    103 H           6.2442    2.2243   -2.7757 H       1  UNL1        0.0449
    104 H           6.1448    2.2635   -0.9869 H       1  UNL1        0.0449
    105 H           7.5393    4.0038   -1.8853 H       1  UNL1        0.0572
    106 H           6.3255    4.5637   -3.0859 H       1  UNL1        0.0572
    107 H           4.1623    6.1312   -1.2404 H       1  UNL1        0.0572
    108 H           4.1944    4.7206   -0.1147 H       1  UNL1        0.0572
    109 H           4.3556    4.6593   -3.2117 H       1  UNL1        0.0449
    110 H           2.8490    4.3684   -2.2074 H       1  UNL1        0.0449
@<TRIPOS>BOND
     1     1     2    2
     2     2     3    1
     3     3     4    1
     4     4     5    1
     5     5     6   am
     6     6     7    2
     7     6     8    1
     8     8     9    1
     9     9    10    1
    10    10    11   ar
    11    11    12   ar
    12    12    13   ar
    13    13    14   ar
    14    14    15   ar
    15     8    16    1
    16    16    17    1
    17    17    18    2
    18    17    19    2
    19    17    20    1
    20    20    21    1
    21    21    22    1
    22    22    23    1
    23    23    24    1
    24    23    25    1
    25    25    26    1
    26     4    27    1
    27    27    28    2
    28    27    29   am
    29    29    30    1
    30    30    31    1
    31    31    32    1
    32    32    33    1
    33    33    34    1
    34    34    35    1
    35    35    36    1
    36    36    37    1
    37    30    38    1
    38    38    39    1
    39    38    40    1
    40    40    41    1
    41    40    42    1
    42    40    43    1
    43    43    44    2
    44    43    45   am
    45    45    46    1
    46    46    47    1
    47    47    48    1
    48    48    49    1
    49    49    50    1
    50    50    51    1
    51    51    52    1
    52    52    53    1
    53    15    10   ar
    54    26    20    1
    55    37    32    1
    56    53    48    1
    57     1    54    1
    58     1    55    1
    59     2    56    1
    60     3    57    1
    61     3    58    1
    62     4    59    1
    63     5    60    1
    64     8    61    1
    65     9    62    1
    66     9    63    1
    67    11    64    1
    68    12    65    1
    69    13    66    1
    70    14    67    1
    71    15    68    1
    72    16    69    1
    73    21    70    1
    74    21    71    1
    75    22    72    1
    76    22    73    1
    77    24    74    1
    78    24    75    1
    79    24    76    1
    80    25    77    1
    81    25    78    1
    82    26    79    1
    83    26    80    1
    84    29    81    1
    85    30    82    1
    86    31    83    1
    87    31    84    1
    88    32    85    1
    89    33    86    1
    90    33    87    1
    91    34    88    1
    92    34    89    1
    93    35    90    1
    94    35    91    1
    95    36    92    1
    96    36    93    1
    97    37    94    1
    98    37    95    1
    99    38    96    1
   100    39    97    1
   101    45    98    1
   102    46    99    1
   103    46   100    1
   104    47   101    1
   105    47   102    1
   106    49   103    1
   107    49   104    1
   108    50   105    1
   109    50   106    1
   110    52   107    1
   111    52   108    1
   112    53   109    1
   113    53   110    1
