
     RDKit          3D

110113  0  0  0  0  0  0  0  0999 V2000
   -0.2573   -3.0504    3.8498 C   0  0  0  0  0  0  0  0  0  0  0  0
   -0.7819   -3.6555    2.7695 C   0  0  0  0  0  0  0  0  0  0  0  0
   -1.3418   -2.9382    1.6000 C   0  0  0  0  0  0  0  0  0  0  0  0
   -1.0794   -1.4802    1.7236 C   0  0  2  0  0  0  0  0  0  0  0  0
   -1.6588   -0.6964    0.6557 N   0  0  0  0  0  0  0  0  0  0  0  0
   -2.6910    0.2723    0.9534 C   0  0  0  0  0  0  0  0  0  0  0  0
   -3.0243    0.4238    2.1355 O   0  0  0  0  0  0  0  0  0  0  0  0
   -3.3727    1.0958   -0.1286 C   0  0  2  0  0  0  0  0  0  0  0  0
   -2.4679    2.0712   -0.7837 C   0  0  0  0  0  0  0  0  0  0  0  0
   -1.8725    3.1367    0.0721 C   0  0  0  0  0  0  0  0  0  0  0  0
   -2.4214    4.4127    0.1660 C   0  0  0  0  0  0  0  0  0  0  0  0
   -1.7835    5.3347    0.9700 C   0  0  0  0  0  0  0  0  0  0  0  0
   -0.6440    5.0998    1.6943 C   0  0  0  0  0  0  0  0  0  0  0  0
   -0.1250    3.8131    1.5745 C   0  0  0  0  0  0  0  0  0  0  0  0
   -0.7280    2.8567    0.7809 C   0  0  0  0  0  0  0  0  0  0  0  0
   -4.4165    1.7860    0.6033 N   0  0  0  0  0  0  0  0  0  0  0  0
   -6.0368    1.4327    0.2924 S   0  0  0  0  0  6  0  0  0  0  0  0
   -6.0622    0.0208   -0.4721 O   0  0  0  0  0  0  0  0  0  0  0  0
   -6.8057    1.2782    1.5576 O   0  0  0  0  0  0  0  0  0  0  0  0
   -6.8626    2.3885   -0.8462 N   0  0  0  0  0  0  0  0  0  0  0  0
   -6.5785    2.1694   -2.2439 C   0  0  0  0  0  0  0  0  0  0  0  0
   -7.7553    1.4187   -2.8731 C   0  0  0  0  0  0  0  0  0  0  0  0
   -8.4568    0.6391   -1.8554 N   0  0  0  0  0  0  0  0  0  0  0  0
   -9.5945   -0.0378   -2.5678 C   0  0  0  0  0  0  0  0  0  0  0  0
   -9.1216    1.5142   -0.9059 C   0  0  0  0  0  0  0  0  0  0  0  0
   -8.2476    2.6578   -0.5373 C   0  0  0  0  0  0  0  0  0  0  0  0
    0.3619   -1.1583    1.8842 C   0  0  0  0  0  0  0  0  0  0  0  0
    0.7336   -0.0007    2.1897 O   0  0  0  0  0  0  0  0  0  0  0  0
    1.4105   -2.1502    1.7041 N   0  0  0  0  0  0  0  0  0  0  0  0
    2.8107   -1.8611    1.8876 C   0  0  1  0  0  0  0  0  0  0  0  0
    3.6002   -2.6568    2.7904 C   0  0  0  0  0  0  0  0  0  0  0  0
    3.8430   -4.0942    2.6836 C   0  0  0  0  0  0  0  0  0  0  0  0
    2.6881   -5.0504    2.6496 C   0  0  0  0  0  0  0  0  0  0  0  0
    3.3116   -6.4161    3.0745 C   0  0  0  0  0  0  0  0  0  0  0  0
    4.0878   -6.9218    1.8553 C   0  0  0  0  0  0  0  0  0  0  0  0
    4.4914   -5.7705    0.9629 C   0  0  0  0  0  0  0  0  0  0  0  0
    4.9229   -4.5302    1.7436 C   0  0  0  0  0  0  0  0  0  0  0  0
    3.3821   -1.3166    0.5532 C   0  0  0  0  0  0  0  0  0  0  0  0
    4.7196   -1.0834    0.7428 O   0  0  0  0  0  0  0  0  0  0  0  0
    2.9527   -1.9741   -0.6739 C   0  0  0  0  0  0  0  0  0  0  0  0
    3.2289   -3.2966   -0.7937 F   0  0  0  0  0  0  0  0  0  0  0  0
    1.5833   -1.8474   -0.8433 F   0  0  0  0  0  0  0  0  0  0  0  0
    3.6082   -1.2988   -1.8135 C   0  0  0  0  0  0  0  0  0  0  0  0
    4.3379   -1.9489   -2.6390 O   0  0  0  0  0  0  0  0  0  0  0  0
    3.4935    0.0968   -2.0692 N   0  0  0  0  0  0  0  0  0  0  0  0
    4.1852    0.6795   -3.1874 C   0  0  0  0  0  0  0  0  0  0  0  0
    3.9471    2.1400   -3.2717 C   0  0  0  0  0  0  0  0  0  0  0  0
    4.3702    2.8531   -2.0505 N   0  0  0  0  0  0  0  0  0  0  0  0
    5.7935    2.8457   -1.9008 C   0  0  0  0  0  0  0  0  0  0  0  0
    6.4797    4.1589   -2.0012 C   0  0  0  0  0  0  0  0  0  0  0  0
    5.9483    5.1278   -1.1704 O   0  0  0  0  0  0  0  0  0  0  0  0
    4.5153    5.1316   -1.1227 C   0  0  0  0  0  0  0  0  0  0  0  0
    3.9856    4.2667   -2.2374 C   0  0  0  0  0  0  0  0  0  0  0  0
   -0.1561   -2.0243    4.0275 H   0  0  0  0  0  0  0  0  0  0  0  0
    0.0912   -3.7354    4.6912 H   0  0  0  0  0  0  0  0  0  0  0  0
   -0.8186   -4.7435    2.7290 H   0  0  0  0  0  0  0  0  0  0  0  0
   -2.4465   -3.0928    1.6751 H   0  0  0  0  0  0  0  0  0  0  0  0
   -0.9986   -3.3668    0.6390 H   0  0  0  0  0  0  0  0  0  0  0  0
   -1.5265   -1.1979    2.7435 H   0  0  0  0  0  0  0  0  0  0  0  0
   -1.3755   -0.8189   -0.3028 H   0  0  0  0  0  0  0  0  0  0  0  0
   -3.7858    0.3904   -0.8735 H   0  0  0  0  0  0  0  0  0  0  0  0
   -3.1045    2.6206   -1.5735 H   0  0  0  0  0  0  0  0  0  0  0  0
   -1.6762    1.6024   -1.4123 H   0  0  0  0  0  0  0  0  0  0  0  0
   -3.3023    4.6837   -0.3942 H   0  0  0  0  0  0  0  0  0  0  0  0
   -2.1721    6.3728    1.0466 H   0  0  0  0  0  0  0  0  0  0  0  0
   -0.1586    5.8511    2.3356 H   0  0  0  0  0  0  0  0  0  0  0  0
    0.7905    3.5930    2.1127 H   0  0  0  0  0  0  0  0  0  0  0  0
   -0.3267    1.8372    0.6571 H   0  0  0  0  0  0  0  0  0  0  0  0
   -4.1609    2.8085    0.6139 H   0  0  0  0  0  0  0  0  0  0  0  0
   -6.4658    3.0933   -2.8609 H   0  0  0  0  0  0  0  0  0  0  0  0
   -5.7042    1.5338   -2.4044 H   0  0  0  0  0  0  0  0  0  0  0  0
   -7.4068    0.7514   -3.7454 H   0  0  0  0  0  0  0  0  0  0  0  0
   -8.4770    2.1054   -3.3393 H   0  0  0  0  0  0  0  0  0  0  0  0
  -10.0235   -0.7922   -1.9208 H   0  0  0  0  0  0  0  0  0  0  0  0
   -9.3287   -0.3550   -3.5972 H   0  0  0  0  0  0  0  0  0  0  0  0
  -10.3426    0.7929   -2.7679 H   0  0  0  0  0  0  0  0  0  0  0  0
  -10.0850    1.8936   -1.3904 H   0  0  0  0  0  0  0  0  0  0  0  0
   -9.4514    0.9072   -0.0321 H   0  0  0  0  0  0  0  0  0  0  0  0
   -8.5519    3.6216   -1.0608 H   0  0  0  0  0  0  0  0  0  0  0  0
   -8.2841    2.9072    0.5770 H   0  0  0  0  0  0  0  0  0  0  0  0
    1.0394   -3.0758    1.4039 H   0  0  0  0  0  0  0  0  0  0  0  0
    2.7764   -0.8138    2.4122 H   0  0  0  0  0  0  0  0  0  0  0  0
    4.6447   -2.1911    2.8193 H   0  0  0  0  0  0  0  0  0  0  0  0
    3.2525   -2.4375    3.8422 H   0  0  0  0  0  0  0  0  0  0  0  0
    4.2981   -4.3428    3.6923 H   0  0  0  0  0  0  0  0  0  0  0  0
    1.9055   -4.8922    3.4014 H   0  0  0  0  0  0  0  0  0  0  0  0
    2.3083   -5.2566    1.6472 H   0  0  0  0  0  0  0  0  0  0  0  0
    2.5018   -7.1538    3.2492 H   0  0  0  0  0  0  0  0  0  0  0  0
    3.9685   -6.3449    3.9039 H   0  0  0  0  0  0  0  0  0  0  0  0
    5.0156   -7.4818    2.1677 H   0  0  0  0  0  0  0  0  0  0  0  0
    3.4630   -7.6356    1.3125 H   0  0  0  0  0  0  0  0  0  0  0  0
    5.4292   -6.1023    0.3451 H   0  0  0  0  0  0  0  0  0  0  0  0
    3.7728   -5.5946    0.1540 H   0  0  0  0  0  0  0  0  0  0  0  0
    5.8937   -4.8372    2.2119 H   0  0  0  0  0  0  0  0  0  0  0  0
    5.2222   -3.7985    0.9799 H   0  0  0  0  0  0  0  0  0  0  0  0
    2.9467   -0.2540    0.4145 H   0  0  0  0  0  0  0  0  0  0  0  0
    4.9302   -0.2686    1.2646 H   0  0  0  0  0  0  0  0  0  0  0  0
    2.9242    0.6426   -1.4185 H   0  0  0  0  0  0  0  0  0  0  0  0
    3.8578    0.2324   -4.1912 H   0  0  0  0  0  0  0  0  0  0  0  0
    5.2952    0.4745   -3.0582 H   0  0  0  0  0  0  0  0  0  0  0  0
    4.5180    2.6439   -4.1075 H   0  0  0  0  0  0  0  0  0  0  0  0
    2.8644    2.4264   -3.3928 H   0  0  0  0  0  0  0  0  0  0  0  0
    6.2442    2.2243   -2.7757 H   0  0  0  0  0  0  0  0  0  0  0  0
    6.1448    2.2635   -0.9869 H   0  0  0  0  0  0  0  0  0  0  0  0
    7.5393    4.0038   -1.8853 H   0  0  0  0  0  0  0  0  0  0  0  0
    6.3255    4.5637   -3.0859 H   0  0  0  0  0  0  0  0  0  0  0  0
    4.1623    6.1312   -1.2404 H   0  0  0  0  0  0  0  0  0  0  0  0
    4.1944    4.7206   -0.1147 H   0  0  0  0  0  0  0  0  0  0  0  0
    4.3556    4.6593   -3.2117 H   0  0  0  0  0  0  0  0  0  0  0  0
    2.8490    4.3684   -2.2074 H   0  0  0  0  0  0  0  0  0  0  0  0
  1  2  2  3
  2  3  1  0
  3  4  1  0
  4  5  1  0
  5  6  1  0
  6  7  2  0
  6  8  1  0
  8  9  1  0
  9 10  1  0
 10 11  2  0
 11 12  1  0
 12 13  2  0
 13 14  1  0
 14 15  2  0
  8 16  1  0
 16 17  1  0
 17 18  2  0
 17 19  2  0
 17 20  1  0
 20 21  1  0
 21 22  1  0
 22 23  1  0
 23 24  1  0
 23 25  1  0
 25 26  1  0
  4 27  1  0
 27 28  2  0
 27 29  1  0
 29 30  1  0
 30 31  1  0
 31 32  1  0
 32 33  1  0
 33 34  1  0
 34 35  1  0
 35 36  1  0
 36 37  1  0
 30 38  1  0
 38 39  1  0
 38 40  1  0
 40 41  1  0
 40 42  1  0
 40 43  1  0
 43 44  2  0
 43 45  1  0
 45 46  1  0
 46 47  1  0
 47 48  1  0
 48 49  1  0
 49 50  1  0
 50 51  1  0
 51 52  1  0
 52 53  1  0
 15 10  1  0
 26 20  1  0
 37 32  1  0
 53 48  1  0
  1 54  1  0
  1 55  1  0
  2 56  1  0
  3 57  1  0
  3 58  1  0
  4 59  1  1
  5 60  1  0
  8 61  1  6
  9 62  1  0
  9 63  1  0
 11 64  1  0
 12 65  1  0
 13 66  1  0
 14 67  1  0
 15 68  1  0
 16 69  1  0
 21 70  1  0
 21 71  1  0
 22 72  1  0
 22 73  1  0
 24 74  1  0
 24 75  1  0
 24 76  1  0
 25 77  1  0
 25 78  1  0
 26 79  1  0
 26 80  1  0
 29 81  1  0
 30 82  1  1
 31 83  1  0
 31 84  1  0
 32 85  1  0
 33 86  1  0
 33 87  1  0
 34 88  1  0
 34 89  1  0
 35 90  1  0
 35 91  1  0
 36 92  1  0
 36 93  1  0
 37 94  1  0
 37 95  1  0
 38 96  1  0
 39 97  1  0
 45 98  1  0
 46 99  1  0
 46100  1  0
 47101  1  0
 47102  1  0
 49103  1  0
 49104  1  0
 50105  1  0
 50106  1  0
 52107  1  0
 52108  1  0
 53109  1  0
 53110  1  0
M  END
$$$$
