@<TRIPOS>MOLECULE
*****
 67 71 0 0 0
SMALL
GASTEIGER

@<TRIPOS>ATOM
      1 C           1.1099    2.2993    0.7764 C.3     1  UNL1       -0.0376
      2 C           0.2737    1.0874    0.5533 C.ar    1  UNL1       -0.0227
      3 C          -1.0892    1.1779    0.3767 C.ar    1  UNL1       -0.0532
      4 C          -1.8430    0.0221    0.1706 C.ar    1  UNL1       -0.0419
      5 C          -3.2879    0.1609   -0.0115 C.3     1  UNL1       -0.0135
      6 C          -3.6099    0.9801   -1.2425 C.3     1  UNL1       -0.0333
      7 C          -5.0778    1.3615   -1.2572 C.3     1  UNL1       -0.0006
      8 N          -5.7248    0.5883   -0.2484 N.3     1  UNL1       -0.3022
      9 C          -7.0871    0.2637   -0.4644 C.3     1  UNL1        0.0012
     10 C          -8.0509    1.4134   -0.4181 C.3     1  UNL1       -0.0118
     11 C          -9.4399    0.8118   -0.6763 C.3     1  UNL1        0.0913
     12 F         -10.3898    1.8085   -0.6514 F       1  UNL1       -0.2490
     13 C          -5.3682    1.0650    1.0448 C.3     1  UNL1       -0.0006
     14 C          -3.8733    0.7949    1.2384 C.3     1  UNL1       -0.0333
     15 C          -1.1710   -1.1779    0.1538 C.ar    1  UNL1       -0.0328
     16 C           0.1907   -1.2607    0.3310 C.ar    1  UNL1        0.0670
     17 N           1.0791   -2.3029    0.3585 N.ar    1  UNL1       -0.3377
     18 C           2.3267   -1.8676    0.5674 C.ar    1  UNL1        0.1463
     19 C           3.5748   -2.6624    0.6675 C.ar    1  UNL1        0.1022
     20 C           4.7997   -2.0746    0.8895 C.ar    1  UNL1        0.0446
     21 N           4.9700   -0.7005    1.0856 N.pl3   1  UNL1       -0.3414
     22 C           6.3098   -0.1572    1.2730 C.3     1  UNL1        0.0287
     23 C           7.0800   -0.0621   -0.0122 C.3     1  UNL1        0.0570
     24 N           6.3320    0.8292   -0.8994 N.ar    1  UNL1       -0.2685
     25 C           6.4983    2.1463   -0.9649 C.ar    1  UNL1        0.0439
     26 C           5.6046    2.5859   -1.9157 C.ar    1  UNL1        0.0783
     27 CL          5.3455    4.2236   -2.4530 Cl      1  UNL1       -0.0804
     28 C           4.9143    1.4865   -2.4005 C.ar    1  UNL1        0.0677
     29 N           5.4091    0.4284   -1.7331 N.ar    1  UNL1       -0.1781
     30 C           5.9115   -2.9302    0.9588 C.ar    1  UNL1       -0.0239
     31 C           5.8241   -4.2917    0.8163 C.ar    1  UNL1        0.0067
     32 N           4.6349   -4.8211    0.6046 N.ar    1  UNL1       -0.3284
     33 C           3.5525   -4.0337    0.5335 C.ar    1  UNL1        0.2612
     34 O           2.4682   -4.6180    0.3314 O.2     1  UNL1       -0.2671
     35 N           2.2019   -0.5291    0.6702 N.ar    1  UNL1       -0.2272
     36 C           0.9351   -0.1253    0.5340 C.ar    1  UNL1        0.0924
     37 H           2.0353    2.0438    1.3085 H       1  UNL1        0.0278
     38 H           0.5148    3.0208    1.3897 H       1  UNL1        0.0278
     39 H           1.3527    2.7455   -0.2107 H       1  UNL1        0.0278
     40 H          -1.5596    2.1700    0.4019 H       1  UNL1        0.0624
     41 H          -3.7279   -0.8665   -0.1759 H       1  UNL1        0.0350
     42 H          -3.4219    0.3434   -2.1228 H       1  UNL1        0.0283
     43 H          -2.9369    1.8402   -1.2779 H       1  UNL1        0.0283
     44 H          -5.1059    2.4610   -1.0389 H       1  UNL1        0.0427
     45 H          -5.5474    1.1914   -2.2307 H       1  UNL1        0.0427
     46 H          -7.1960   -0.3284   -1.3976 H       1  UNL1        0.0427
     47 H          -7.4002   -0.4394    0.3558 H       1  UNL1        0.0427
     48 H          -8.0955    1.8289    0.6082 H       1  UNL1        0.0302
     49 H          -7.8492    2.1864   -1.1896 H       1  UNL1        0.0302
     50 H          -9.6456    0.1149    0.1665 H       1  UNL1        0.0615
     51 H          -9.4632    0.2119   -1.5943 H       1  UNL1        0.0615
     52 H          -5.9257    0.5801    1.8720 H       1  UNL1        0.0427
     53 H          -5.5130    2.1608    1.1713 H       1  UNL1        0.0427
     54 H          -3.7429    0.0773    2.0523 H       1  UNL1        0.0283
     55 H          -3.3134    1.7410    1.3914 H       1  UNL1        0.0283
     56 H          -1.7208   -2.0884   -0.0039 H       1  UNL1        0.0642
     57 H           0.7949   -3.2912    0.2312 H       1  UNL1        0.1674
     58 H           4.1861   -0.0361    1.1097 H       1  UNL1        0.1461
     59 H           6.2352    0.8795    1.7036 H       1  UNL1        0.0479
     60 H           6.8801   -0.7236    2.0591 H       1  UNL1        0.0479
     61 H           7.2865   -1.0156   -0.4868 H       1  UNL1        0.0524
     62 H           8.0595    0.4262    0.2264 H       1  UNL1        0.0524
     63 H           7.1752    2.7758   -0.4120 H       1  UNL1        0.0841
     64 H           4.1493    1.4299   -3.1390 H       1  UNL1        0.0863
     65 H           6.9123   -2.5425    1.1533 H       1  UNL1        0.0651
     66 H           6.6931   -4.9486    0.8711 H       1  UNL1        0.0808
     67 H           4.5564   -5.8683    0.4936 H       1  UNL1        0.1683
@<TRIPOS>BOND
     1     1     2    1
     2     2     3   ar
     3     3     4   ar
     4     4     5    1
     5     5     6    1
     6     6     7    1
     7     7     8    1
     8     8     9    1
     9     9    10    1
    10    10    11    1
    11    11    12    1
    12     8    13    1
    13    13    14    1
    14     4    15   ar
    15    15    16   ar
    16    16    17   ar
    17    17    18   ar
    18    18    19    1
    19    19    20   ar
    20    20    21    1
    21    21    22    1
    22    22    23    1
    23    23    24    1
    24    24    25   ar
    25    25    26   ar
    26    26    27    1
    27    26    28   ar
    28    28    29   ar
    29    20    30   ar
    30    30    31   ar
    31    31    32   ar
    32    32    33   ar
    33    33    34    2
    34    18    35   ar
    35    35    36   ar
    36    36     2   ar
    37    14     5    1
    38    36    16   ar
    39    33    19   ar
    40    29    24   ar
    41     1    37    1
    42     1    38    1
    43     1    39    1
    44     3    40    1
    45     5    41    1
    46     6    42    1
    47     6    43    1
    48     7    44    1
    49     7    45    1
    50     9    46    1
    51     9    47    1
    52    10    48    1
    53    10    49    1
    54    11    50    1
    55    11    51    1
    56    13    52    1
    57    13    53    1
    58    14    54    1
    59    14    55    1
    60    15    56    1
    61    17    57    1
    62    21    58    1
    63    22    59    1
    64    22    60    1
    65    23    61    1
    66    23    62    1
    67    25    63    1
    68    28    64    1
    69    30    65    1
    70    31    66    1
    71    32    67    1
