
     RDKit          3D

 67 71  0  0  0  0  0  0  0  0999 V2000
    1.1099    2.2993    0.7764 C   0  0  0  0  0  0  0  0  0  0  0  0
    0.2737    1.0874    0.5533 C   0  0  0  0  0  0  0  0  0  0  0  0
   -1.0892    1.1779    0.3767 C   0  0  0  0  0  0  0  0  0  0  0  0
   -1.8430    0.0221    0.1706 C   0  0  0  0  0  0  0  0  0  0  0  0
   -3.2879    0.1609   -0.0115 C   0  0  0  0  0  0  0  0  0  0  0  0
   -3.6099    0.9801   -1.2425 C   0  0  0  0  0  0  0  0  0  0  0  0
   -5.0778    1.3615   -1.2572 C   0  0  0  0  0  0  0  0  0  0  0  0
   -5.7248    0.5883   -0.2484 N   0  0  0  0  0  0  0  0  0  0  0  0
   -7.0871    0.2637   -0.4644 C   0  0  0  0  0  0  0  0  0  0  0  0
   -8.0509    1.4134   -0.4181 C   0  0  0  0  0  0  0  0  0  0  0  0
   -9.4399    0.8118   -0.6763 C   0  0  0  0  0  0  0  0  0  0  0  0
  -10.3898    1.8085   -0.6514 F   0  0  0  0  0  0  0  0  0  0  0  0
   -5.3682    1.0650    1.0448 C   0  0  0  0  0  0  0  0  0  0  0  0
   -3.8733    0.7949    1.2384 C   0  0  0  0  0  0  0  0  0  0  0  0
   -1.1710   -1.1779    0.1538 C   0  0  0  0  0  0  0  0  0  0  0  0
    0.1907   -1.2607    0.3310 C   0  0  0  0  0  0  0  0  0  0  0  0
    1.0791   -2.3029    0.3585 N   0  0  0  0  0  0  0  0  0  0  0  0
    2.3267   -1.8676    0.5674 C   0  0  0  0  0  0  0  0  0  0  0  0
    3.5748   -2.6624    0.6675 C   0  0  0  0  0  0  0  0  0  0  0  0
    4.7997   -2.0746    0.8895 C   0  0  0  0  0  0  0  0  0  0  0  0
    4.9700   -0.7005    1.0856 N   0  0  0  0  0  0  0  0  0  0  0  0
    6.3098   -0.1572    1.2730 C   0  0  0  0  0  0  0  0  0  0  0  0
    7.0800   -0.0621   -0.0122 C   0  0  0  0  0  0  0  0  0  0  0  0
    6.3320    0.8292   -0.8994 N   0  0  0  0  0  0  0  0  0  0  0  0
    6.4983    2.1463   -0.9649 C   0  0  0  0  0  0  0  0  0  0  0  0
    5.6046    2.5859   -1.9157 C   0  0  0  0  0  0  0  0  0  0  0  0
    5.3455    4.2236   -2.4530 Cl  0  0  0  0  0  0  0  0  0  0  0  0
    4.9143    1.4865   -2.4005 C   0  0  0  0  0  0  0  0  0  0  0  0
    5.4091    0.4284   -1.7331 N   0  0  0  0  0  0  0  0  0  0  0  0
    5.9115   -2.9302    0.9588 C   0  0  0  0  0  0  0  0  0  0  0  0
    5.8241   -4.2917    0.8163 C   0  0  0  0  0  0  0  0  0  0  0  0
    4.6349   -4.8211    0.6046 N   0  0  0  0  0  0  0  0  0  0  0  0
    3.5525   -4.0337    0.5335 C   0  0  0  0  0  0  0  0  0  0  0  0
    2.4682   -4.6180    0.3314 O   0  0  0  0  0  0  0  0  0  0  0  0
    2.2019   -0.5291    0.6702 N   0  0  0  0  0  0  0  0  0  0  0  0
    0.9351   -0.1253    0.5340 C   0  0  0  0  0  0  0  0  0  0  0  0
    2.0353    2.0438    1.3085 H   0  0  0  0  0  0  0  0  0  0  0  0
    0.5148    3.0208    1.3897 H   0  0  0  0  0  0  0  0  0  0  0  0
    1.3527    2.7455   -0.2107 H   0  0  0  0  0  0  0  0  0  0  0  0
   -1.5596    2.1700    0.4019 H   0  0  0  0  0  0  0  0  0  0  0  0
   -3.7279   -0.8665   -0.1759 H   0  0  0  0  0  0  0  0  0  0  0  0
   -3.4219    0.3434   -2.1228 H   0  0  0  0  0  0  0  0  0  0  0  0
   -2.9369    1.8402   -1.2779 H   0  0  0  0  0  0  0  0  0  0  0  0
   -5.1059    2.4610   -1.0389 H   0  0  0  0  0  0  0  0  0  0  0  0
   -5.5474    1.1914   -2.2307 H   0  0  0  0  0  0  0  0  0  0  0  0
   -7.1960   -0.3284   -1.3976 H   0  0  0  0  0  0  0  0  0  0  0  0
   -7.4002   -0.4394    0.3558 H   0  0  0  0  0  0  0  0  0  0  0  0
   -8.0955    1.8289    0.6082 H   0  0  0  0  0  0  0  0  0  0  0  0
   -7.8492    2.1864   -1.1896 H   0  0  0  0  0  0  0  0  0  0  0  0
   -9.6456    0.1149    0.1665 H   0  0  0  0  0  0  0  0  0  0  0  0
   -9.4632    0.2119   -1.5943 H   0  0  0  0  0  0  0  0  0  0  0  0
   -5.9257    0.5801    1.8720 H   0  0  0  0  0  0  0  0  0  0  0  0
   -5.5130    2.1608    1.1713 H   0  0  0  0  0  0  0  0  0  0  0  0
   -3.7429    0.0773    2.0523 H   0  0  0  0  0  0  0  0  0  0  0  0
   -3.3134    1.7410    1.3914 H   0  0  0  0  0  0  0  0  0  0  0  0
   -1.7208   -2.0884   -0.0039 H   0  0  0  0  0  0  0  0  0  0  0  0
    0.7949   -3.2912    0.2312 H   0  0  0  0  0  0  0  0  0  0  0  0
    4.1861   -0.0361    1.1097 H   0  0  0  0  0  0  0  0  0  0  0  0
    6.2352    0.8795    1.7036 H   0  0  0  0  0  0  0  0  0  0  0  0
    6.8801   -0.7236    2.0591 H   0  0  0  0  0  0  0  0  0  0  0  0
    7.2865   -1.0156   -0.4868 H   0  0  0  0  0  0  0  0  0  0  0  0
    8.0595    0.4262    0.2264 H   0  0  0  0  0  0  0  0  0  0  0  0
    7.1752    2.7758   -0.4120 H   0  0  0  0  0  0  0  0  0  0  0  0
    4.1493    1.4299   -3.1390 H   0  0  0  0  0  0  0  0  0  0  0  0
    6.9123   -2.5425    1.1533 H   0  0  0  0  0  0  0  0  0  0  0  0
    6.6931   -4.9486    0.8711 H   0  0  0  0  0  0  0  0  0  0  0  0
    4.5564   -5.8683    0.4936 H   0  0  0  0  0  0  0  0  0  0  0  0
  1  2  1  0
  2  3  2  0
  3  4  1  0
  4  5  1  0
  5  6  1  0
  6  7  1  0
  7  8  1  0
  8  9  1  0
  9 10  1  0
 10 11  1  0
 11 12  1  0
  8 13  1  0
 13 14  1  0
  4 15  2  0
 15 16  1  0
 16 17  1  0
 17 18  1  0
 18 19  1  0
 19 20  2  0
 20 21  1  0
 21 22  1  0
 22 23  1  0
 23 24  1  0
 24 25  1  0
 25 26  2  0
 26 27  1  0
 26 28  1  0
 28 29  2  0
 20 30  1  0
 30 31  2  0
 31 32  1  0
 32 33  1  0
 33 34  2  0
 18 35  2  0
 35 36  1  0
 36  2  1  0
 14  5  1  0
 36 16  2  0
 33 19  1  0
 29 24  1  0
  1 37  1  0
  1 38  1  0
  1 39  1  0
  3 40  1  0
  5 41  1  0
  6 42  1  0
  6 43  1  0
  7 44  1  0
  7 45  1  0
  9 46  1  0
  9 47  1  0
 10 48  1  0
 10 49  1  0
 11 50  1  0
 11 51  1  0
 13 52  1  0
 13 53  1  0
 14 54  1  0
 14 55  1  0
 15 56  1  0
 17 57  1  0
 21 58  1  0
 22 59  1  0
 22 60  1  0
 23 61  1  0
 23 62  1  0
 25 63  1  0
 28 64  1  0
 30 65  1  0
 31 66  1  0
 32 67  1  0
M  END
$$$$
