@<TRIPOS>MOLECULE
*****
 35 35 0 0 0
SMALL
GASTEIGER

@<TRIPOS>ATOM
      1 C           3.0797   -1.2177   -2.0734 C.3     1  UNL1       -0.0653
      2 C           1.9873   -0.2879   -1.4647 C.3     1  UNL1       -0.0556
      3 C           1.8344   -0.5872   -0.0070 C.3     1  UNL1       -0.0493
      4 C           0.8059    0.2611    0.6706 C.3     1  UNL1       -0.0212
      5 C           0.8174   -0.1904    2.1237 C.3     1  UNL1       -0.0610
      6 C          -0.5488    0.3287    0.0799 C.3     1  UNL1        0.1293
      7 C          -1.5468    1.1773    0.8668 C.3     1  UNL1       -0.0123
      8 C          -1.8536    0.7849    2.2178 C.2     1  UNL1       -0.0897
      9 C          -1.9977    0.7950    3.5631 C.2     1  UNL1       -0.1026
     10 C          -1.1604   -0.9922   -0.1805 C.2     1  UNL1        0.2360
     11 O          -0.9792   -1.9557    0.6162 O.2     1  UNL1       -0.2742
     12 N          -1.9816   -1.3400   -1.2878 N.am    1  UNL1       -0.2390
     13 C          -2.0659   -0.4126   -2.3592 C.2     1  UNL1        0.3122
     14 O          -2.7812   -0.6771   -3.3623 O.2     1  UNL1       -0.2520
     15 N          -1.3751    0.8035   -2.3456 N.am    1  UNL1       -0.2390
     16 C          -0.5457    1.1411   -1.2120 C.2     1  UNL1        0.2360
     17 O           0.1757    2.1619   -1.3820 O.2     1  UNL1       -0.2742
     18 H           3.9574   -1.1886   -1.4354 H       1  UNL1        0.0230
     19 H           2.5841   -2.2070   -2.1049 H       1  UNL1        0.0230
     20 H           3.2331   -0.8527   -3.0943 H       1  UNL1        0.0230
     21 H           2.4153    0.7236   -1.6480 H       1  UNL1        0.0263
     22 H           1.0740   -0.4096   -2.0523 H       1  UNL1        0.0263
     23 H           2.8631   -0.4199    0.4493 H       1  UNL1        0.0268
     24 H           1.6851   -1.6753    0.1894 H       1  UNL1        0.0268
     25 H           1.1699    1.3428    0.7083 H       1  UNL1        0.0313
     26 H           0.0212   -0.8704    2.4003 H       1  UNL1        0.0233
     27 H           1.8398   -0.5786    2.4016 H       1  UNL1        0.0233
     28 H           0.7289    0.7178    2.7475 H       1  UNL1        0.0233
     29 H          -1.2430    2.2427    0.7752 H       1  UNL1        0.0322
     30 H          -2.4978    1.1204    0.2634 H       1  UNL1        0.0322
     31 H          -2.2769   -0.2330    2.2873 H       1  UNL1        0.0567
     32 H          -1.8269    1.4437    4.3861 H       1  UNL1        0.0532
     33 H          -1.6130    1.8072    3.7786 H       1  UNL1        0.0532
     34 H          -2.5178   -2.2157   -1.3658 H       1  UNL1        0.1591
     35 H          -1.4610    1.4596   -3.1500 H       1  UNL1        0.1591
@<TRIPOS>BOND
     1     1     2    1
     2     2     3    1
     3     3     4    1
     4     4     5    1
     5     4     6    1
     6     6     7    1
     7     7     8    1
     8     8     9    2
     9     6    10    1
    10    10    11    2
    11    10    12   am
    12    12    13   am
    13    13    14    2
    14    13    15   am
    15    15    16   am
    16    16    17    2
    17    16     6    1
    18     1    18    1
    19     1    19    1
    20     1    20    1
    21     2    21    1
    22     2    22    1
    23     3    23    1
    24     3    24    1
    25     4    25    1
    26     5    26    1
    27     5    27    1
    28     5    28    1
    29     7    29    1
    30     7    30    1
    31     8    31    1
    32     9    32    1
    33     9    33    1
    34    12    34    1
    35    15    35    1
