@<TRIPOS>MOLECULE
*****
 65 68 0 0 0
SMALL
GASTEIGER

@<TRIPOS>ATOM
      1 C           8.3140    1.2949    1.3484 C.3     1  UNL1       -0.0520
      2 C           8.1241   -0.0715    0.7434 C.3     1  UNL1        0.0560
      3 C           9.4855   -0.6942    0.5580 C.3     1  UNL1        0.0550
      4 O           9.4051   -1.9701   -0.0011 O.3     1  UNL1       -0.3943
      5 C           7.3466   -0.0542   -0.5179 C.2     1  UNL1        0.2206
      6 O           7.9292   -0.4884   -1.5612 O.2     1  UNL1       -0.2752
      7 N           6.0081    0.4259   -0.5616 N.am    1  UNL1       -0.3012
      8 C           5.3062    0.4182   -1.8118 C.3     1  UNL1        0.0153
      9 C           3.9864   -0.3319   -1.7171 C.3     1  UNL1       -0.0273
     10 C           3.4800   -0.3253   -0.2761 C.3     1  UNL1        0.0236
     11 C           2.0159   -0.5423   -0.2500 C.ar    1  UNL1        0.1548
     12 N           1.0299    0.2045   -0.7494 N.ar    1  UNL1       -0.2093
     13 C          -0.1726   -0.3634   -0.5027 C.ar    1  UNL1        0.1785
     14 C          -1.4667    0.1752   -0.9028 C.ar    1  UNL1        0.1266
     15 C          -1.6186    1.0290   -1.9756 C.ar    1  UNL1        0.0587
     16 N          -2.8277    1.5174   -2.3306 N.ar    1  UNL1       -0.2361
     17 C          -3.9481    1.1893   -1.6467 C.ar    1  UNL1        0.1472
     18 N          -5.2245    1.7080   -2.0255 N.pl3   1  UNL1       -0.3413
     19 C          -3.7967    0.3361   -0.5745 C.ar    1  UNL1        0.1672
     20 C          -4.9912   -0.0413    0.1899 C.ar    1  UNL1        0.2701
     21 N          -5.0453   -0.8624    1.2677 N.ar    1  UNL1       -0.1055
     22 N          -6.3095   -0.9363    1.6543 N.ar    1  UNL1       -0.1115
     23 C          -7.0550   -0.1693    0.8305 C.ar    1  UNL1        0.2230
     24 C          -8.5349    0.0635    0.8687 C.3     1  UNL1        0.0401
     25 C          -9.1598   -0.6938    1.9941 C.3     1  UNL1       -0.0516
     26 C          -9.0971   -0.3205   -0.4901 C.3     1  UNL1       -0.0516
     27 C          -8.7307    1.5591    1.1039 C.3     1  UNL1       -0.0516
     28 O          -6.2209    0.3387   -0.0204 O.2     1  UNL1       -0.4183
     29 N          -2.5902   -0.1460   -0.2271 N.ar    1  UNL1       -0.2338
     30 N           0.1080   -1.4864    0.1664 N.ar    1  UNL1       -0.2466
     31 C          -0.8741   -2.4267    0.6438 C.3     1  UNL1        0.0325
     32 N           1.4060   -1.6043    0.3231 N.ar    1  UNL1       -0.1544
     33 C           3.8825    0.9599    0.4127 C.3     1  UNL1       -0.0273
     34 C           5.3735    0.9116    0.6460 C.3     1  UNL1        0.0153
     35 H           9.3785    1.4365    1.6989 H       1  UNL1        0.0238
     36 H           7.7036    1.3739    2.2710 H       1  UNL1        0.0238
     37 H           8.1365    2.1212    0.6380 H       1  UNL1        0.0238
     38 H           7.5544   -0.7520    1.4381 H       1  UNL1        0.0414
     39 H           9.9281   -0.8237    1.5761 H       1  UNL1        0.0564
     40 H          10.1527   -0.0362   -0.0420 H       1  UNL1        0.0564
     41 H           8.4708   -2.3009   -0.0361 H       1  UNL1        0.2094
     42 H           5.9064   -0.1134   -2.5713 H       1  UNL1        0.0465
     43 H           5.0973    1.4261   -2.2065 H       1  UNL1        0.0465
     44 H           3.2292    0.1724   -2.3506 H       1  UNL1        0.0287
     45 H           4.0890   -1.3687   -2.0984 H       1  UNL1        0.0287
     46 H           4.0045   -1.1529    0.2418 H       1  UNL1        0.0381
     47 H          -0.7218    1.2890   -2.5194 H       1  UNL1        0.0853
     48 H          -6.0573    1.1328   -2.2436 H       1  UNL1        0.1438
     49 H          -5.3164    2.7432   -2.0844 H       1  UNL1        0.1438
     50 H          -8.5007   -0.7611    2.8659 H       1  UNL1        0.0240
     51 H          -9.5467   -1.7061    1.6831 H       1  UNL1        0.0240
     52 H         -10.0820   -0.1376    2.3268 H       1  UNL1        0.0240
     53 H          -9.0910   -1.4170   -0.5612 H       1  UNL1        0.0240
     54 H          -8.4129    0.1030   -1.2429 H       1  UNL1        0.0240
     55 H         -10.1258    0.0861   -0.5994 H       1  UNL1        0.0240
     56 H          -8.2875    1.7796    2.0973 H       1  UNL1        0.0240
     57 H          -8.0638    2.0774    0.3624 H       1  UNL1        0.0240
     58 H          -9.7772    1.8613    1.0055 H       1  UNL1        0.0240
     59 H          -0.4234   -3.3058    1.1305 H       1  UNL1        0.0473
     60 H          -1.4743   -2.8278   -0.2244 H       1  UNL1        0.0473
     61 H          -1.6376   -1.9188    1.2956 H       1  UNL1        0.0473
     62 H           3.6743    1.8420   -0.2255 H       1  UNL1        0.0287
     63 H           3.3393    0.9988    1.3778 H       1  UNL1        0.0287
     64 H           5.5446    0.1290    1.4309 H       1  UNL1        0.0465
     65 H           5.7716    1.9049    0.9572 H       1  UNL1        0.0465
@<TRIPOS>BOND
     1     1     2    1
     2     2     3    1
     3     3     4    1
     4     2     5    1
     5     5     6    2
     6     5     7   am
     7     7     8    1
     8     8     9    1
     9     9    10    1
    10    10    11    1
    11    11    12   ar
    12    12    13   ar
    13    13    14    1
    14    14    15   ar
    15    15    16   ar
    16    16    17   ar
    17    17    18    1
    18    17    19   ar
    19    19    20    1
    20    20    21   ar
    21    21    22   ar
    22    22    23   ar
    23    23    24    1
    24    24    25    1
    25    24    26    1
    26    24    27    1
    27    23    28   ar
    28    19    29   ar
    29    13    30   ar
    30    30    31    1
    31    30    32   ar
    32    10    33    1
    33    33    34    1
    34    34     7    1
    35    32    11   ar
    36    29    14   ar
    37    28    20   ar
    38     1    35    1
    39     1    36    1
    40     1    37    1
    41     2    38    1
    42     3    39    1
    43     3    40    1
    44     4    41    1
    45     8    42    1
    46     8    43    1
    47     9    44    1
    48     9    45    1
    49    10    46    1
    50    15    47    1
    51    18    48    1
    52    18    49    1
    53    25    50    1
    54    25    51    1
    55    25    52    1
    56    26    53    1
    57    26    54    1
    58    26    55    1
    59    27    56    1
    60    27    57    1
    61    27    58    1
    62    31    59    1
    63    31    60    1
    64    31    61    1
    65    33    62    1
    66    33    63    1
    67    34    64    1
    68    34    65    1
