@<TRIPOS>MOLECULE
*****
 56 58 0 0 0
SMALL
GASTEIGER

@<TRIPOS>ATOM
      1 C          -3.5626   -0.5749    0.9012 C.3     1  UNL1        0.0375
      2 C          -5.0764   -0.7811    1.0483 C.3     1  UNL1       -0.0330
      3 C          -5.5268   -0.8474   -0.3751 C.3     1  UNL1       -0.0499
      4 C          -4.5818   -0.0010   -1.1839 C.3     1  UNL1       -0.0356
      5 C          -3.4024    0.3157   -0.2987 C.3     1  UNL1        0.0282
      6 N          -3.3497    1.7049    0.0116 N.3     1  UNL1       -0.3037
      7 C          -4.4876    2.2555    0.6687 C.3     1  UNL1       -0.0127
      8 C          -2.7496    2.5151   -0.9959 C.3     1  UNL1       -0.0127
      9 N          -3.0085   -1.8718    0.5624 N.pl3   1  UNL1       -0.3241
     10 C          -1.5889   -2.0157    0.3882 C.ar    1  UNL1        0.1358
     11 N          -0.8182   -0.9323    0.5518 N.ar    1  UNL1       -0.1989
     12 C           0.5157   -0.9754    0.4081 C.ar    1  UNL1        0.2212
     13 N           1.2817    0.2041    0.5936 N.pl3   1  UNL1       -0.2836
     14 C           2.6841    0.3705    0.4880 C.ar    1  UNL1        0.0337
     15 C           3.6011   -0.6059    0.1779 C.ar    1  UNL1       -0.0386
     16 C           4.9621   -0.4340    0.0769 C.ar    1  UNL1       -0.0336
     17 C           5.4719    0.8200    0.3026 C.ar    1  UNL1        0.1053
     18 C           4.6012    1.8392    0.6176 C.ar    1  UNL1       -0.0336
     19 C           3.2498    1.6046    0.7037 C.ar    1  UNL1       -0.0386
     20 S           7.2001    1.0552    0.1788 S.O2    1  UNL1        0.0582
     21 O           7.6895    2.0633    1.1776 O.2     1  UNL1       -0.1531
     22 O           7.8802   -0.2521    0.5397 O.2     1  UNL1       -0.1531
     23 N           7.6947    1.4578   -1.4112 N.3     1  UNL1       -0.1930
     24 C           7.0901    2.6980   -1.8295 C.3     1  UNL1        0.0059
     25 N           1.0155   -2.1756    0.0908 N.ar    1  UNL1       -0.2220
     26 C           0.3137   -3.3001   -0.0889 C.ar    1  UNL1        0.0462
     27 C          -1.0508   -3.2402    0.0616 C.ar    1  UNL1        0.1125
     28 C          -1.9123   -4.4381   -0.1174 C.3     1  UNL1        0.4220
     29 F          -2.8339   -4.2140   -1.1456 F       1  UNL1       -0.1657
     30 F          -1.1377   -5.5117   -0.5223 F       1  UNL1       -0.1657
     31 F          -2.6515   -4.7377    1.0058 F       1  UNL1       -0.1657
     32 H          -3.1346   -0.1672    1.8352 H       1  UNL1        0.0513
     33 H          -5.5517   -0.0120    1.6562 H       1  UNL1        0.0284
     34 H          -5.2553   -1.7492    1.5969 H       1  UNL1        0.0284
     35 H          -5.5248   -1.9061   -0.7072 H       1  UNL1        0.0266
     36 H          -6.5858   -0.5122   -0.5102 H       1  UNL1        0.0266
     37 H          -4.2390   -0.6275   -2.0458 H       1  UNL1        0.0281
     38 H          -5.0365    0.8968   -1.6215 H       1  UNL1        0.0281
     39 H          -2.4731    0.0541   -0.8231 H       1  UNL1        0.0480
     40 H          -4.4987    3.3633    0.4522 H       1  UNL1        0.0391
     41 H          -5.3934    1.8734    0.1572 H       1  UNL1        0.0391
     42 H          -4.5054    2.1663    1.7645 H       1  UNL1        0.0391
     43 H          -1.8110    2.9941   -0.6764 H       1  UNL1        0.0391
     44 H          -2.6726    1.9410   -1.9325 H       1  UNL1        0.0391
     45 H          -3.4558    3.3610   -1.2340 H       1  UNL1        0.0391
     46 H          -3.6139   -2.7374    0.4340 H       1  UNL1        0.1478
     47 H           0.7407    1.0687    0.8416 H       1  UNL1        0.1550
     48 H           3.2585   -1.6112   -0.0098 H       1  UNL1        0.0637
     49 H           5.6248   -1.2461   -0.1706 H       1  UNL1        0.0638
     50 H           4.9819    2.8423    0.8021 H       1  UNL1        0.0638
     51 H           2.6184    2.4676    0.9595 H       1  UNL1        0.0637
     52 H           7.3181    0.7001   -2.0476 H       1  UNL1        0.1477
     53 H           7.8932    3.4764   -1.7847 H       1  UNL1        0.0405
     54 H           6.1901    2.9444   -1.2614 H       1  UNL1        0.0405
     55 H           6.8120    2.6722   -2.9204 H       1  UNL1        0.0405
     56 H           0.8012   -4.2477   -0.3489 H       1  UNL1        0.0837
@<TRIPOS>BOND
     1     1     2    1
     2     2     3    1
     3     3     4    1
     4     4     5    1
     5     5     6    1
     6     6     7    1
     7     6     8    1
     8     1     9    1
     9     9    10    1
    10    10    11   ar
    11    11    12   ar
    12    12    13    1
    13    13    14    1
    14    14    15   ar
    15    15    16   ar
    16    16    17   ar
    17    17    18   ar
    18    18    19   ar
    19    17    20    1
    20    20    21    2
    21    20    22    2
    22    20    23    1
    23    23    24    1
    24    12    25   ar
    25    25    26   ar
    26    26    27   ar
    27    27    28    1
    28    28    29    1
    29    28    30    1
    30    28    31    1
    31     5     1    1
    32    27    10   ar
    33    19    14   ar
    34     1    32    1
    35     2    33    1
    36     2    34    1
    37     3    35    1
    38     3    36    1
    39     4    37    1
    40     4    38    1
    41     5    39    1
    42     7    40    1
    43     7    41    1
    44     7    42    1
    45     8    43    1
    46     8    44    1
    47     8    45    1
    48     9    46    1
    49    13    47    1
    50    15    48    1
    51    16    49    1
    52    18    50    1
    53    19    51    1
    54    23    52    1
    55    24    53    1
    56    24    54    1
    57    24    55    1
    58    26    56    1
