
     RDKit          3D

 56 58  0  0  0  0  0  0  0  0999 V2000
   -3.5626   -0.5749    0.9012 C   0  0  2  0  0  0  0  0  0  0  0  0
   -5.0764   -0.7811    1.0483 C   0  0  0  0  0  0  0  0  0  0  0  0
   -5.5268   -0.8474   -0.3751 C   0  0  0  0  0  0  0  0  0  0  0  0
   -4.5818   -0.0010   -1.1839 C   0  0  0  0  0  0  0  0  0  0  0  0
   -3.4024    0.3157   -0.2987 C   0  0  1  0  0  0  0  0  0  0  0  0
   -3.3497    1.7049    0.0116 N   0  0  0  0  0  0  0  0  0  0  0  0
   -4.4876    2.2555    0.6687 C   0  0  0  0  0  0  0  0  0  0  0  0
   -2.7496    2.5151   -0.9959 C   0  0  0  0  0  0  0  0  0  0  0  0
   -3.0085   -1.8718    0.5624 N   0  0  0  0  0  0  0  0  0  0  0  0
   -1.5889   -2.0157    0.3882 C   0  0  0  0  0  0  0  0  0  0  0  0
   -0.8182   -0.9323    0.5518 N   0  0  0  0  0  0  0  0  0  0  0  0
    0.5157   -0.9754    0.4081 C   0  0  0  0  0  0  0  0  0  0  0  0
    1.2817    0.2041    0.5936 N   0  0  0  0  0  0  0  0  0  0  0  0
    2.6841    0.3705    0.4880 C   0  0  0  0  0  0  0  0  0  0  0  0
    3.6011   -0.6059    0.1779 C   0  0  0  0  0  0  0  0  0  0  0  0
    4.9621   -0.4340    0.0769 C   0  0  0  0  0  0  0  0  0  0  0  0
    5.4719    0.8200    0.3026 C   0  0  0  0  0  0  0  0  0  0  0  0
    4.6012    1.8392    0.6176 C   0  0  0  0  0  0  0  0  0  0  0  0
    3.2498    1.6046    0.7037 C   0  0  0  0  0  0  0  0  0  0  0  0
    7.2001    1.0552    0.1788 S   0  0  0  0  0  0  0  0  0  0  0  0
    7.6895    2.0633    1.1776 O   0  0  0  0  0  0  0  0  0  0  0  0
    7.8802   -0.2521    0.5397 O   0  0  0  0  0  0  0  0  0  0  0  0
    7.6947    1.4578   -1.4112 N   0  0  0  0  0  0  0  0  0  0  0  0
    7.0901    2.6980   -1.8295 C   0  0  0  0  0  0  0  0  0  0  0  0
    1.0155   -2.1756    0.0908 N   0  0  0  0  0  0  0  0  0  0  0  0
    0.3137   -3.3001   -0.0889 C   0  0  0  0  0  0  0  0  0  0  0  0
   -1.0508   -3.2402    0.0616 C   0  0  0  0  0  0  0  0  0  0  0  0
   -1.9123   -4.4381   -0.1174 C   0  0  0  0  0  0  0  0  0  0  0  0
   -2.8339   -4.2140   -1.1456 F   0  0  0  0  0  0  0  0  0  0  0  0
   -1.1377   -5.5117   -0.5223 F   0  0  0  0  0  0  0  0  0  0  0  0
   -2.6515   -4.7377    1.0058 F   0  0  0  0  0  0  0  0  0  0  0  0
   -3.1346   -0.1672    1.8352 H   0  0  0  0  0  0  0  0  0  0  0  0
   -5.5517   -0.0120    1.6562 H   0  0  0  0  0  0  0  0  0  0  0  0
   -5.2553   -1.7492    1.5969 H   0  0  0  0  0  0  0  0  0  0  0  0
   -5.5248   -1.9061   -0.7072 H   0  0  0  0  0  0  0  0  0  0  0  0
   -6.5858   -0.5122   -0.5102 H   0  0  0  0  0  0  0  0  0  0  0  0
   -4.2390   -0.6275   -2.0458 H   0  0  0  0  0  0  0  0  0  0  0  0
   -5.0365    0.8968   -1.6215 H   0  0  0  0  0  0  0  0  0  0  0  0
   -2.4731    0.0541   -0.8231 H   0  0  0  0  0  0  0  0  0  0  0  0
   -4.4987    3.3633    0.4522 H   0  0  0  0  0  0  0  0  0  0  0  0
   -5.3934    1.8734    0.1572 H   0  0  0  0  0  0  0  0  0  0  0  0
   -4.5054    2.1663    1.7645 H   0  0  0  0  0  0  0  0  0  0  0  0
   -1.8110    2.9941   -0.6764 H   0  0  0  0  0  0  0  0  0  0  0  0
   -2.6726    1.9410   -1.9325 H   0  0  0  0  0  0  0  0  0  0  0  0
   -3.4558    3.3610   -1.2340 H   0  0  0  0  0  0  0  0  0  0  0  0
   -3.6139   -2.7374    0.4340 H   0  0  0  0  0  0  0  0  0  0  0  0
    0.7407    1.0687    0.8416 H   0  0  0  0  0  0  0  0  0  0  0  0
    3.2585   -1.6112   -0.0098 H   0  0  0  0  0  0  0  0  0  0  0  0
    5.6248   -1.2461   -0.1706 H   0  0  0  0  0  0  0  0  0  0  0  0
    4.9819    2.8423    0.8021 H   0  0  0  0  0  0  0  0  0  0  0  0
    2.6184    2.4676    0.9595 H   0  0  0  0  0  0  0  0  0  0  0  0
    7.3181    0.7001   -2.0476 H   0  0  0  0  0  0  0  0  0  0  0  0
    7.8932    3.4764   -1.7847 H   0  0  0  0  0  0  0  0  0  0  0  0
    6.1901    2.9444   -1.2614 H   0  0  0  0  0  0  0  0  0  0  0  0
    6.8120    2.6722   -2.9204 H   0  0  0  0  0  0  0  0  0  0  0  0
    0.8012   -4.2477   -0.3489 H   0  0  0  0  0  0  0  0  0  0  0  0
  1  2  1  0
  2  3  1  0
  3  4  1  0
  4  5  1  0
  5  6  1  0
  6  7  1  0
  6  8  1  0
  1  9  1  0
  9 10  1  0
 10 11  2  0
 11 12  1  0
 12 13  1  0
 13 14  1  0
 14 15  2  0
 15 16  1  0
 16 17  2  0
 17 18  1  0
 18 19  2  0
 17 20  1  0
 20 21  2  0
 20 22  2  0
 20 23  1  0
 23 24  1  0
 12 25  2  0
 25 26  1  0
 26 27  2  0
 27 28  1  0
 28 29  1  0
 28 30  1  0
 28 31  1  0
  5  1  1  0
 27 10  1  0
 19 14  1  0
  1 32  1  1
  2 33  1  0
  2 34  1  0
  3 35  1  0
  3 36  1  0
  4 37  1  0
  4 38  1  0
  5 39  1  6
  7 40  1  0
  7 41  1  0
  7 42  1  0
  8 43  1  0
  8 44  1  0
  8 45  1  0
  9 46  1  0
 13 47  1  0
 15 48  1  0
 16 49  1  0
 18 50  1  0
 19 51  1  0
 23 52  1  0
 24 53  1  0
 24 54  1  0
 24 55  1  0
 26 56  1  0
M  END
$$$$
