@<TRIPOS>MOLECULE
*****
 58 61 0 0 0
SMALL
GASTEIGER

@<TRIPOS>ATOM
      1 C          -7.1596   -1.7089   -0.4829 C.3     1  UNL1       -0.0128
      2 N          -6.0066   -2.2808    0.1376 N.3     1  UNL1       -0.3052
      3 C          -5.0985   -2.9314   -0.7442 C.3     1  UNL1        0.0003
      4 C          -3.9474   -2.0955   -1.2003 C.3     1  UNL1       -0.0216
      5 C          -3.3758   -1.2088   -0.1332 C.3     1  UNL1        0.0257
      6 N          -1.9211   -1.2386   -0.1152 N.am    1  UNL1       -0.3083
      7 C          -1.2153    0.0070   -0.2048 C.2     1  UNL1        0.2491
      8 O          -1.9317    1.0359   -0.2917 O.2     1  UNL1       -0.2700
      9 C           0.2288    0.0146   -0.1907 C.ar    1  UNL1        0.0945
     10 C           0.9284   -1.1754   -0.1155 C.ar    1  UNL1        0.0466
     11 N           2.2635   -1.1309   -0.1106 N.ar    1  UNL1       -0.2218
     12 C           3.0143   -0.0250   -0.1726 C.ar    1  UNL1        0.2212
     13 N           4.4279   -0.0150   -0.1644 N.pl3   1  UNL1       -0.2835
     14 C           5.2598   -1.1374   -0.0621 C.ar    1  UNL1        0.0363
     15 C           6.6440   -0.9449   -0.1797 C.ar    1  UNL1       -0.0220
     16 C           7.5050   -2.0069   -0.0810 C.ar    1  UNL1        0.0441
     17 CL          9.2281   -1.6572   -0.2436 Cl      1  UNL1       -0.0834
     18 C           7.0810   -3.3004    0.1345 C.ar    1  UNL1       -0.0249
     19 C           5.7344   -3.5119    0.2524 C.ar    1  UNL1        0.0441
     20 CL          5.1429   -5.1258    0.5255 Cl      1  UNL1       -0.0834
     21 C           4.8620   -2.4264    0.1511 C.ar    1  UNL1       -0.0220
     22 N           2.3169    1.1396   -0.2463 N.ar    1  UNL1       -0.1987
     23 C           0.9514    1.1853   -0.2566 C.ar    1  UNL1        0.1364
     24 N           0.3432    2.4809   -0.3320 N.pl3   1  UNL1       -0.3207
     25 C           1.2053    3.6607   -0.4014 C.3     1  UNL1        0.0733
     26 C           2.1073    3.7355    0.8131 C.3     1  UNL1        0.0686
     27 O           2.1919    5.0384    1.2123 O.3     1  UNL1       -0.3752
     28 C           1.3239    5.8141    0.4976 C.3     1  UNL1        0.0755
     29 C           0.3478    4.8891   -0.1968 C.3     1  UNL1        0.0988
     30 O          -0.1443    5.4072   -1.3786 O.3     1  UNL1       -0.3876
     31 C          -3.8982   -1.7438    1.2067 C.3     1  UNL1       -0.0216
     32 C          -5.4110   -1.4922    1.1637 C.3     1  UNL1        0.0003
     33 H          -7.9966   -2.4588   -0.3698 H       1  UNL1        0.0391
     34 H          -7.4917   -0.8125    0.0895 H       1  UNL1        0.0391
     35 H          -7.0293   -1.4773   -1.5493 H       1  UNL1        0.0391
     36 H          -4.7507   -3.8969   -0.2845 H       1  UNL1        0.0427
     37 H          -5.6706   -3.2326   -1.6660 H       1  UNL1        0.0427
     38 H          -4.1721   -1.5174   -2.1268 H       1  UNL1        0.0295
     39 H          -3.1307   -2.8118   -1.5098 H       1  UNL1        0.0295
     40 H          -3.7252   -0.1839   -0.2289 H       1  UNL1        0.0499
     41 H          -1.5027   -2.1654   -0.0378 H       1  UNL1        0.1493
     42 H           0.3794   -2.0938   -0.0641 H       1  UNL1        0.0839
     43 H           4.8758    0.9328   -0.2422 H       1  UNL1        0.1550
     44 H           7.0249    0.0541   -0.3496 H       1  UNL1        0.0651
     45 H           7.8140   -4.0878    0.2013 H       1  UNL1        0.0647
     46 H           3.8239   -2.6778    0.2587 H       1  UNL1        0.0651
     47 H          -0.6421    2.6434   -0.3414 H       1  UNL1        0.1479
     48 H           1.7795    3.7048   -1.3374 H       1  UNL1        0.0547
     49 H           3.0867    3.2781    0.5943 H       1  UNL1        0.0579
     50 H           1.6115    3.1191    1.6097 H       1  UNL1        0.0579
     51 H           1.8526    6.3757   -0.3274 H       1  UNL1        0.0586
     52 H           0.8070    6.6014    1.0949 H       1  UNL1        0.0586
     53 H          -0.4690    4.6413    0.5287 H       1  UNL1        0.0635
     54 H          -0.9609    4.9020   -1.6195 H       1  UNL1        0.2100
     55 H          -3.4474   -1.1978    2.0494 H       1  UNL1        0.0295
     56 H          -3.7461   -2.8219    1.2051 H       1  UNL1        0.0295
     57 H          -5.8152   -1.6769    2.1811 H       1  UNL1        0.0427
     58 H          -5.5034   -0.3913    0.9285 H       1  UNL1        0.0427
@<TRIPOS>BOND
     1     1     2    1
     2     2     3    1
     3     3     4    1
     4     4     5    1
     5     5     6    1
     6     6     7   am
     7     7     8    2
     8     7     9    1
     9     9    10   ar
    10    10    11   ar
    11    11    12   ar
    12    12    13    1
    13    13    14    1
    14    14    15   ar
    15    15    16   ar
    16    16    17    1
    17    16    18   ar
    18    18    19   ar
    19    19    20    1
    20    19    21   ar
    21    12    22   ar
    22    22    23   ar
    23    23    24    1
    24    24    25    1
    25    25    26    1
    26    26    27    1
    27    27    28    1
    28    28    29    1
    29    29    30    1
    30     5    31    1
    31    31    32    1
    32    32     2    1
    33    23     9   ar
    34    29    25    1
    35    21    14   ar
    36     1    33    1
    37     1    34    1
    38     1    35    1
    39     3    36    1
    40     3    37    1
    41     4    38    1
    42     4    39    1
    43     5    40    1
    44     6    41    1
    45    10    42    1
    46    13    43    1
    47    15    44    1
    48    18    45    1
    49    21    46    1
    50    24    47    1
    51    25    48    1
    52    26    49    1
    53    26    50    1
    54    28    51    1
    55    28    52    1
    56    29    53    1
    57    30    54    1
    58    31    55    1
    59    31    56    1
    60    32    57    1
    61    32    58    1
