@<TRIPOS>MOLECULE
*****
 49 52 0 0 0
SMALL
GASTEIGER

@<TRIPOS>ATOM
      1 O          -5.4149   -1.6930    1.8937 O.3     1  UNL1       -0.3918
      2 C          -5.4417   -0.9675    0.7230 C.3     1  UNL1        0.0553
      3 C          -4.3820    0.1407    0.7278 C.3     1  UNL1       -0.0263
      4 C          -3.0503   -0.5251    0.4684 C.3     1  UNL1       -0.0424
      5 C          -2.9181   -0.7868   -1.0179 C.3     1  UNL1        0.0016
      6 C          -2.3699    0.4139   -1.6865 C.ar    1  UNL1        0.0483
      7 N          -3.0804    1.2697   -2.4683 N.ar    1  UNL1       -0.2807
      8 N          -2.2822    2.2273   -2.9031 N.ar    1  UNL1       -0.1814
      9 C          -1.0472    2.0630   -2.4444 C.ar    1  UNL1        0.0586
     10 C          -1.0825    0.8894   -1.6538 C.ar    1  UNL1        0.0411
     11 C           0.0994    0.4230   -0.9594 C.ar    1  UNL1        0.0792
     12 C           0.2317   -0.8105   -0.4224 C.ar    1  UNL1       -0.0173
     13 C           1.4317   -1.1843    0.1746 C.ar    1  UNL1        0.0332
     14 N           2.4443   -0.3380    0.2229 N.ar    1  UNL1       -0.2229
     15 C           2.3399    0.8874   -0.3006 C.ar    1  UNL1        0.2159
     16 N           3.4303    1.7846   -0.2562 N.pl3   1  UNL1       -0.3106
     17 C           4.6876    1.4146    0.2798 C.3     1  UNL1        0.0233
     18 C           4.7001    0.9436    1.7088 C.3     1  UNL1       -0.0345
     19 C           6.1619    0.4641    1.8062 C.3     1  UNL1       -0.0513
     20 C           6.1914   -0.4508    0.5683 C.3     1  UNL1       -0.0513
     21 C           5.3162    0.2495   -0.4501 C.3     1  UNL1       -0.0345
     22 N           1.1841    1.2331   -0.8717 N.ar    1  UNL1       -0.2144
     23 C          -4.3347   -1.0696   -1.5085 C.3     1  UNL1       -0.0424
     24 C          -5.0357   -1.8950   -0.4108 C.3     1  UNL1       -0.0263
     25 H          -6.2060   -2.2792    2.0188 H       1  UNL1        0.2098
     26 H          -6.4181   -0.5057    0.5222 H       1  UNL1        0.0593
     27 H          -4.3944    0.6705    1.7051 H       1  UNL1        0.0290
     28 H          -4.6709    0.8615   -0.0564 H       1  UNL1        0.0290
     29 H          -2.2161    0.1621    0.7723 H       1  UNL1        0.0272
     30 H          -2.9382   -1.4956    1.0243 H       1  UNL1        0.0272
     31 H          -2.3542   -1.6893   -1.2489 H       1  UNL1        0.0364
     32 H          -4.0882    1.2514   -2.7386 H       1  UNL1        0.1885
     33 H          -0.1825    2.6756   -2.6235 H       1  UNL1        0.0854
     34 H          -0.5147   -1.5563   -0.4015 H       1  UNL1        0.0654
     35 H           1.5540   -2.1745    0.6066 H       1  UNL1        0.0831
     36 H           3.2973    2.7451   -0.6291 H       1  UNL1        0.1492
     37 H           5.4377    2.2476    0.2398 H       1  UNL1        0.0498
     38 H           4.0447    0.0698    1.8847 H       1  UNL1        0.0283
     39 H           4.5217    1.7497    2.4550 H       1  UNL1        0.0283
     40 H           6.7830    1.3403    1.5953 H       1  UNL1        0.0266
     41 H           6.3707   -0.0785    2.7263 H       1  UNL1        0.0266
     42 H           7.2379   -0.5446    0.2322 H       1  UNL1        0.0266
     43 H           5.7893   -1.4325    0.8889 H       1  UNL1        0.0266
     44 H           6.0084    0.6632   -1.2378 H       1  UNL1        0.0283
     45 H           4.5660   -0.4161   -0.9026 H       1  UNL1        0.0283
     46 H          -4.9226   -0.1814   -1.7379 H       1  UNL1        0.0272
     47 H          -4.3225   -1.7322   -2.3956 H       1  UNL1        0.0272
     48 H          -4.2647   -2.6156   -0.0602 H       1  UNL1        0.0290
     49 H          -5.8964   -2.4186   -0.8297 H       1  UNL1        0.0290
@<TRIPOS>BOND
     1     1     2    1
     2     2     3    1
     3     3     4    1
     4     4     5    1
     5     5     6    1
     6     6     7   ar
     7     7     8   ar
     8     8     9   ar
     9     9    10   ar
    10    10    11    1
    11    11    12   ar
    12    12    13   ar
    13    13    14   ar
    14    14    15   ar
    15    15    16    1
    16    16    17    1
    17    17    18    1
    18    18    19    1
    19    19    20    1
    20    20    21    1
    21    15    22   ar
    22     5    23    1
    23    23    24    1
    24    24     2    1
    25    10     6   ar
    26    22    11   ar
    27    21    17    1
    28     1    25    1
    29     2    26    1
    30     3    27    1
    31     3    28    1
    32     4    29    1
    33     4    30    1
    34     5    31    1
    35     7    32    1
    36     9    33    1
    37    12    34    1
    38    13    35    1
    39    16    36    1
    40    17    37    1
    41    18    38    1
    42    18    39    1
    43    19    40    1
    44    19    41    1
    45    20    42    1
    46    20    43    1
    47    21    44    1
    48    21    45    1
    49    23    46    1
    50    23    47    1
    51    24    48    1
    52    24    49    1
