
     RDKit          3D

 49 52  0  0  0  0  0  0  0  0999 V2000
   -5.4149   -1.6930    1.8937 O   0  0  0  0  0  0  0  0  0  0  0  0
   -5.4417   -0.9675    0.7230 C   0  0  1  0  0  0  0  0  0  0  0  0
   -4.3820    0.1407    0.7278 C   0  0  0  0  0  0  0  0  0  0  0  0
   -3.0503   -0.5251    0.4684 C   0  0  0  0  0  0  0  0  0  0  0  0
   -2.9181   -0.7868   -1.0179 C   0  0  2  0  0  0  0  0  0  0  0  0
   -2.3699    0.4139   -1.6865 C   0  0  0  0  0  0  0  0  0  0  0  0
   -3.0804    1.2697   -2.4683 N   0  0  0  0  0  0  0  0  0  0  0  0
   -2.2822    2.2273   -2.9031 N   0  0  0  0  0  0  0  0  0  0  0  0
   -1.0472    2.0630   -2.4444 C   0  0  0  0  0  0  0  0  0  0  0  0
   -1.0825    0.8894   -1.6538 C   0  0  0  0  0  0  0  0  0  0  0  0
    0.0994    0.4230   -0.9594 C   0  0  0  0  0  0  0  0  0  0  0  0
    0.2317   -0.8105   -0.4224 C   0  0  0  0  0  0  0  0  0  0  0  0
    1.4317   -1.1843    0.1746 C   0  0  0  0  0  0  0  0  0  0  0  0
    2.4443   -0.3380    0.2229 N   0  0  0  0  0  0  0  0  0  0  0  0
    2.3399    0.8874   -0.3006 C   0  0  0  0  0  0  0  0  0  0  0  0
    3.4303    1.7846   -0.2562 N   0  0  0  0  0  0  0  0  0  0  0  0
    4.6876    1.4146    0.2798 C   0  0  0  0  0  0  0  0  0  0  0  0
    4.7001    0.9436    1.7088 C   0  0  0  0  0  0  0  0  0  0  0  0
    6.1619    0.4641    1.8062 C   0  0  0  0  0  0  0  0  0  0  0  0
    6.1914   -0.4508    0.5683 C   0  0  0  0  0  0  0  0  0  0  0  0
    5.3162    0.2495   -0.4501 C   0  0  0  0  0  0  0  0  0  0  0  0
    1.1841    1.2331   -0.8717 N   0  0  0  0  0  0  0  0  0  0  0  0
   -4.3347   -1.0696   -1.5085 C   0  0  0  0  0  0  0  0  0  0  0  0
   -5.0357   -1.8950   -0.4108 C   0  0  0  0  0  0  0  0  0  0  0  0
   -6.2060   -2.2792    2.0188 H   0  0  0  0  0  0  0  0  0  0  0  0
   -6.4181   -0.5057    0.5222 H   0  0  0  0  0  0  0  0  0  0  0  0
   -4.3944    0.6705    1.7051 H   0  0  0  0  0  0  0  0  0  0  0  0
   -4.6709    0.8615   -0.0564 H   0  0  0  0  0  0  0  0  0  0  0  0
   -2.2161    0.1621    0.7723 H   0  0  0  0  0  0  0  0  0  0  0  0
   -2.9382   -1.4956    1.0243 H   0  0  0  0  0  0  0  0  0  0  0  0
   -2.3542   -1.6893   -1.2489 H   0  0  0  0  0  0  0  0  0  0  0  0
   -4.0882    1.2514   -2.7386 H   0  0  0  0  0  0  0  0  0  0  0  0
   -0.1825    2.6756   -2.6235 H   0  0  0  0  0  0  0  0  0  0  0  0
   -0.5147   -1.5563   -0.4015 H   0  0  0  0  0  0  0  0  0  0  0  0
    1.5540   -2.1745    0.6066 H   0  0  0  0  0  0  0  0  0  0  0  0
    3.2973    2.7451   -0.6291 H   0  0  0  0  0  0  0  0  0  0  0  0
    5.4377    2.2476    0.2398 H   0  0  0  0  0  0  0  0  0  0  0  0
    4.0447    0.0698    1.8847 H   0  0  0  0  0  0  0  0  0  0  0  0
    4.5217    1.7497    2.4550 H   0  0  0  0  0  0  0  0  0  0  0  0
    6.7830    1.3403    1.5953 H   0  0  0  0  0  0  0  0  0  0  0  0
    6.3707   -0.0785    2.7263 H   0  0  0  0  0  0  0  0  0  0  0  0
    7.2379   -0.5446    0.2322 H   0  0  0  0  0  0  0  0  0  0  0  0
    5.7893   -1.4325    0.8889 H   0  0  0  0  0  0  0  0  0  0  0  0
    6.0084    0.6632   -1.2378 H   0  0  0  0  0  0  0  0  0  0  0  0
    4.5660   -0.4161   -0.9026 H   0  0  0  0  0  0  0  0  0  0  0  0
   -4.9226   -0.1814   -1.7379 H   0  0  0  0  0  0  0  0  0  0  0  0
   -4.3225   -1.7322   -2.3956 H   0  0  0  0  0  0  0  0  0  0  0  0
   -4.2647   -2.6156   -0.0602 H   0  0  0  0  0  0  0  0  0  0  0  0
   -5.8964   -2.4186   -0.8297 H   0  0  0  0  0  0  0  0  0  0  0  0
  1  2  1  0
  2  3  1  0
  3  4  1  0
  4  5  1  0
  5  6  1  0
  6  7  1  0
  7  8  1  0
  8  9  2  0
  9 10  1  0
 10 11  1  0
 11 12  2  0
 12 13  1  0
 13 14  2  0
 14 15  1  0
 15 16  1  0
 16 17  1  0
 17 18  1  0
 18 19  1  0
 19 20  1  0
 20 21  1  0
 15 22  2  0
  5 23  1  0
 23 24  1  0
 24  2  1  0
 10  6  2  0
 22 11  1  0
 21 17  1  0
  1 25  1  0
  2 26  1  6
  3 27  1  0
  3 28  1  0
  4 29  1  0
  4 30  1  0
  5 31  1  1
  7 32  1  0
  9 33  1  0
 12 34  1  0
 13 35  1  0
 16 36  1  0
 17 37  1  0
 18 38  1  0
 18 39  1  0
 19 40  1  0
 19 41  1  0
 20 42  1  0
 20 43  1  0
 21 44  1  0
 21 45  1  0
 23 46  1  0
 23 47  1  0
 24 48  1  0
 24 49  1  0
M  END
$$$$
