@<TRIPOS>MOLECULE
*****
 71 76 0 0 0
SMALL
GASTEIGER

@<TRIPOS>ATOM
      1 C           4.8059    1.3981   -1.6146 C.3     1  UNL1       -0.0390
      2 C           4.2275    0.4972   -0.5783 C.ar    1  UNL1       -0.0378
      3 C           2.8768    0.2375   -0.6034 C.ar    1  UNL1       -0.0502
      4 C           2.3489   -0.5930    0.3535 C.ar    1  UNL1       -0.0125
      5 C           0.9176   -0.8668    0.3246 C.ar    1  UNL1        0.0462
      6 C           0.3464   -2.1211    0.4784 C.ar    1  UNL1        0.0598
      7 N          -0.9849   -1.9569    0.3913 N.ar    1  UNL1       -0.1699
      8 N          -1.3069   -0.6936    0.1937 N.ar    1  UNL1       -0.1828
      9 C          -2.4986   -0.0747    0.0476 C.ar    1  UNL1        0.2211
     10 N          -3.7041   -0.8244    0.0986 N.pl3   1  UNL1       -0.3130
     11 C          -3.6927   -2.2543    0.3058 C.3     1  UNL1        0.0148
     12 C          -5.0918   -2.8293    0.3234 C.3     1  UNL1       -0.0213
     13 C          -5.0603   -4.3138    0.5394 C.3     1  UNL1       -0.0251
     14 C          -6.2641   -5.0024   -0.0532 C.3     1  UNL1        0.0480
     15 O          -6.3833   -4.8148   -1.4096 O.3     1  UNL1       -0.3797
     16 C          -5.6223   -3.7611   -1.8903 C.3     1  UNL1        0.0480
     17 C          -5.7344   -2.5311   -1.0160 C.3     1  UNL1       -0.0251
     18 N          -2.4828    1.2533   -0.1434 N.ar    1  UNL1       -0.1811
     19 C          -1.3533    1.9729   -0.1935 C.ar    1  UNL1        0.2203
     20 N          -1.3605    3.3871   -0.3983 N.pl3   1  UNL1       -0.3105
     21 C          -2.6523    4.0272   -0.5529 C.3     1  UNL1        0.0233
     22 C          -2.5363    5.5075   -0.7624 C.3     1  UNL1       -0.0345
     23 C          -3.6217    6.0999    0.1129 C.3     1  UNL1       -0.0513
     24 C          -3.6423    5.1698    1.2938 C.3     1  UNL1       -0.0513
     25 C          -3.4410    3.8122    0.7022 C.3     1  UNL1       -0.0345
     26 N          -0.1754    1.3272   -0.0441 N.ar    1  UNL1       -0.1945
     27 C          -0.1427   -0.0034    0.1496 C.ar    1  UNL1        0.1702
     28 C           3.1929   -1.1303    1.2968 C.ar    1  UNL1       -0.0531
     29 C           4.5469   -0.8588    1.3072 C.ar    1  UNL1       -0.0488
     30 C           5.1016   -0.0242    0.3522 C.ar    1  UNL1        0.0396
     31 C           6.5150    0.2923    0.3192 C.2     1  UNL1        0.2445
     32 O           6.9196    1.4692    0.4273 O.2     1  UNL1       -0.2702
     33 N           7.4686   -0.7390    0.1622 N.am    1  UNL1       -0.3085
     34 C           8.8833   -0.4680    0.1242 C.3     1  UNL1        0.0235
     35 C           9.8844   -1.4459    0.5669 C.3     1  UNL1       -0.0328
     36 C           9.7181   -1.1955   -0.9347 C.3     1  UNL1       -0.0328
     37 H           4.0056    1.7773   -2.2944 H       1  UNL1        0.0278
     38 H           5.5169    0.8498   -2.2750 H       1  UNL1        0.0278
     39 H           5.2992    2.2816   -1.1865 H       1  UNL1        0.0278
     40 H           2.2422    0.6920   -1.3799 H       1  UNL1        0.0626
     41 H           0.8927   -3.0424    0.6374 H       1  UNL1        0.0855
     42 H          -4.6282   -0.3653   -0.0119 H       1  UNL1        0.1489
     43 H          -3.2549   -2.4606    1.3167 H       1  UNL1        0.0465
     44 H          -3.0573   -2.7953   -0.4246 H       1  UNL1        0.0465
     45 H          -5.6872   -2.3148    1.1003 H       1  UNL1        0.0317
     46 H          -5.0267   -4.5936    1.6211 H       1  UNL1        0.0290
     47 H          -4.1454   -4.7770    0.0941 H       1  UNL1        0.0290
     48 H          -7.1908   -4.7080    0.5020 H       1  UNL1        0.0560
     49 H          -6.1355   -6.0948    0.1411 H       1  UNL1        0.0560
     50 H          -4.5496   -4.0279   -1.9589 H       1  UNL1        0.0560
     51 H          -5.9831   -3.5058   -2.9028 H       1  UNL1        0.0560
     52 H          -5.1857   -1.7203   -1.5221 H       1  UNL1        0.0290
     53 H          -6.8131   -2.2594   -0.8987 H       1  UNL1        0.0290
     54 H          -0.5092    3.9534   -0.4392 H       1  UNL1        0.1492
     55 H          -3.1966    3.5801   -1.4353 H       1  UNL1        0.0498
     56 H          -1.5316    5.8725   -0.4021 H       1  UNL1        0.0283
     57 H          -2.7020    5.8203   -1.8144 H       1  UNL1        0.0283
     58 H          -3.4137    7.1487    0.3994 H       1  UNL1        0.0266
     59 H          -4.6051    5.9893   -0.4093 H       1  UNL1        0.0266
     60 H          -4.6356    5.1899    1.8124 H       1  UNL1        0.0266
     61 H          -2.8644    5.4136    2.0510 H       1  UNL1        0.0266
     62 H          -4.4020    3.3049    0.4692 H       1  UNL1        0.0283
     63 H          -2.9034    3.1793    1.4408 H       1  UNL1        0.0283
     64 H           2.7953   -1.7997    2.0758 H       1  UNL1        0.0624
     65 H           5.2056   -1.2873    2.0555 H       1  UNL1        0.0625
     66 H           7.1680   -1.7551    0.0666 H       1  UNL1        0.1493
     67 H           9.1613    0.6025    0.2270 H       1  UNL1        0.0498
     68 H          10.8490   -1.0648    0.9745 H       1  UNL1        0.0284
     69 H           9.6287   -2.4439    0.9640 H       1  UNL1        0.0284
     70 H          10.4988   -0.6408   -1.4623 H       1  UNL1        0.0284
     71 H           9.1560   -1.9473   -1.5204 H       1  UNL1        0.0284
@<TRIPOS>BOND
     1     1     2    1
     2     2     3   ar
     3     3     4   ar
     4     4     5    1
     5     5     6   ar
     6     6     7   ar
     7     7     8   ar
     8     8     9   ar
     9     9    10    1
    10    10    11    1
    11    11    12    1
    12    12    13    1
    13    13    14    1
    14    14    15    1
    15    15    16    1
    16    16    17    1
    17     9    18   ar
    18    18    19   ar
    19    19    20    1
    20    20    21    1
    21    21    22    1
    22    22    23    1
    23    23    24    1
    24    24    25    1
    25    19    26   ar
    26    26    27   ar
    27     4    28   ar
    28    28    29   ar
    29    29    30   ar
    30    30    31    1
    31    31    32    2
    32    31    33   am
    33    33    34    1
    34    34    35    1
    35    35    36    1
    36    30     2   ar
    37    36    34    1
    38    27     5   ar
    39    27     8   ar
    40    17    12    1
    41    25    21    1
    42     1    37    1
    43     1    38    1
    44     1    39    1
    45     3    40    1
    46     6    41    1
    47    10    42    1
    48    11    43    1
    49    11    44    1
    50    12    45    1
    51    13    46    1
    52    13    47    1
    53    14    48    1
    54    14    49    1
    55    16    50    1
    56    16    51    1
    57    17    52    1
    58    17    53    1
    59    20    54    1
    60    21    55    1
    61    22    56    1
    62    22    57    1
    63    23    58    1
    64    23    59    1
    65    24    60    1
    66    24    61    1
    67    25    62    1
    68    25    63    1
    69    28    64    1
    70    29    65    1
    71    33    66    1
    72    34    67    1
    73    35    68    1
    74    35    69    1
    75    36    70    1
    76    36    71    1
