@<TRIPOS>MOLECULE
*****
 53 58 0 0 0
SMALL
GASTEIGER

@<TRIPOS>ATOM
      1 F           4.0221   -1.4590    1.8495 F       1  UNL1       -0.2035
      2 C           3.3591   -0.6345    1.0289 C.ar    1  UNL1        0.1449
      3 C           2.0172   -0.8406    0.7654 C.ar    1  UNL1       -0.0168
      4 C           1.2649   -0.0283   -0.0519 C.ar    1  UNL1       -0.0122
      5 C          -0.1580   -0.2951   -0.2968 C.ar    1  UNL1        0.0185
      6 C          -1.0612    0.7095   -0.5376 C.ar    1  UNL1        0.0391
      7 N          -2.3649    0.4107   -0.7571 N.ar    1  UNL1       -0.2350
      8 C          -2.7588   -0.8728   -0.7360 C.ar    1  UNL1        0.1632
      9 C          -4.0286   -1.4084   -0.9310 C.ar    1  UNL1        0.0467
     10 C          -5.2465   -0.6585   -1.2109 C.ar    1  UNL1       -0.0022
     11 C          -5.6902   -0.3457   -2.4775 C.ar    1  UNL1       -0.0351
     12 C          -6.8540    0.3683   -2.7018 C.ar    1  UNL1        0.0288
     13 N          -7.5811    0.7731   -1.6347 N.ar    1  UNL1       -0.2549
     14 C          -7.2008    0.4992   -0.3749 C.ar    1  UNL1        0.0715
     15 C          -7.9687    0.9295    0.6871 C.ar    1  UNL1       -0.0357
     16 C          -7.5327    0.6219    1.9620 C.ar    1  UNL1       -0.0597
     17 C          -6.3810   -0.0854    2.2018 C.ar    1  UNL1       -0.0611
     18 C          -5.6090   -0.5179    1.1299 C.ar    1  UNL1       -0.0520
     19 C          -6.0310   -0.2186   -0.1499 C.ar    1  UNL1        0.0082
     20 C          -3.8430   -2.7679   -0.7968 C.ar    1  UNL1        0.0597
     21 N          -2.5539   -3.0430   -0.5385 N.ar    1  UNL1       -0.1727
     22 N          -1.9038   -1.8837   -0.5037 N.ar    1  UNL1       -0.2206
     23 C          -0.6082   -1.6024   -0.2844 C.ar    1  UNL1        0.0406
     24 C           1.9212    1.0381   -0.6202 C.ar    1  UNL1       -0.0520
     25 C           3.2846    1.2654   -0.3660 C.ar    1  UNL1       -0.0373
     26 C           4.0067    0.4345    0.4554 C.ar    1  UNL1        0.0655
     27 N           5.4073    0.6458    0.6947 N.pl3   1  UNL1       -0.3253
     28 C           6.0464    1.9136    0.4644 C.3     1  UNL1        0.0248
     29 C           7.3525    1.6657   -0.2980 C.3     1  UNL1        0.0117
     30 N           8.2078    0.9808    0.6905 N.3     1  UNL1       -0.3130
     31 C           7.6828   -0.3432    0.8334 C.3     1  UNL1        0.0117
     32 C           6.2352   -0.4465    1.1684 C.3     1  UNL1        0.0248
     33 H           1.5271   -1.6871    1.2260 H       1  UNL1        0.0653
     34 H          -0.6923    1.7308   -0.5444 H       1  UNL1        0.0837
     35 H          -5.0880   -0.6831   -3.3042 H       1  UNL1        0.0639
     36 H          -7.1818    0.6020   -3.7146 H       1  UNL1        0.0830
     37 H          -8.8822    1.4879    0.5701 H       1  UNL1        0.0639
     38 H          -8.1245    0.9525    2.8162 H       1  UNL1        0.0618
     39 H          -6.0413   -0.3256    3.2126 H       1  UNL1        0.0618
     40 H          -4.6938   -1.0783    1.2839 H       1  UNL1        0.0624
     41 H          -4.6383   -3.4897   -0.8905 H       1  UNL1        0.0855
     42 H           0.1283   -2.3901   -0.0906 H       1  UNL1        0.0837
     43 H           1.3860    1.7104   -1.2695 H       1  UNL1        0.0624
     44 H           3.7311    2.1206   -0.8543 H       1  UNL1        0.0637
     45 H           6.3814    2.3302    1.4477 H       1  UNL1        0.0476
     46 H           5.4124    2.6289   -0.0756 H       1  UNL1        0.0476
     47 H           7.1870    1.0091   -1.1685 H       1  UNL1        0.0439
     48 H           7.8261    2.6032   -0.5994 H       1  UNL1        0.0439
     49 H           8.1614    1.5158    1.5785 H       1  UNL1        0.1220
     50 H           8.2534   -0.8816    1.6409 H       1  UNL1        0.0439
     51 H           7.9388   -0.9217   -0.1011 H       1  UNL1        0.0439
     52 H           6.1097   -0.6439    2.2520 H       1  UNL1        0.0476
     53 H           5.8673   -1.3951    0.6532 H       1  UNL1        0.0476
@<TRIPOS>BOND
     1     1     2    1
     2     2     3   ar
     3     3     4   ar
     4     4     5    1
     5     5     6   ar
     6     6     7   ar
     7     7     8   ar
     8     8     9   ar
     9     9    10    1
    10    10    11   ar
    11    11    12   ar
    12    12    13   ar
    13    13    14   ar
    14    14    15   ar
    15    15    16   ar
    16    16    17   ar
    17    17    18   ar
    18    18    19   ar
    19     9    20   ar
    20    20    21   ar
    21    21    22   ar
    22    22    23   ar
    23     4    24   ar
    24    24    25   ar
    25    25    26   ar
    26    26    27    1
    27    27    28    1
    28    28    29    1
    29    29    30    1
    30    30    31    1
    31    31    32    1
    32    26     2   ar
    33    32    27    1
    34    23     5   ar
    35    22     8   ar
    36    19    10   ar
    37    19    14   ar
    38     3    33    1
    39     6    34    1
    40    11    35    1
    41    12    36    1
    42    15    37    1
    43    16    38    1
    44    17    39    1
    45    18    40    1
    46    20    41    1
    47    23    42    1
    48    24    43    1
    49    25    44    1
    50    28    45    1
    51    28    46    1
    52    29    47    1
    53    29    48    1
    54    30    49    1
    55    31    50    1
    56    31    51    1
    57    32    52    1
    58    32    53    1
