@<TRIPOS>MOLECULE
*****
 37 40 0 0 0
SMALL
GASTEIGER

@<TRIPOS>ATOM
      1 C          -3.1724    1.2770   -2.2935 C.3     1  UNL1       -0.0059
      2 C          -3.2375    0.6436   -0.9574 C.ar    1  UNL1        0.1126
      3 N          -4.3467    0.1977   -0.3372 N.ar    1  UNL1       -0.2309
      4 C          -4.0479   -0.3273    0.8631 C.ar    1  UNL1        0.1069
      5 C          -4.7414   -0.9146    1.8988 C.ar    1  UNL1        0.0791
      6 C          -6.1672   -1.0351    1.7326 C.1     1  UNL1        0.1014
      7 N          -7.3184   -1.1255    1.6176 N.1     1  UNL1       -0.1908
      8 C          -4.1202   -1.3641    3.0283 C.ar    1  UNL1       -0.0422
      9 C          -2.7356   -1.2134    3.1151 C.ar    1  UNL1       -0.0585
     10 C          -2.0017   -0.6315    2.1028 C.ar    1  UNL1       -0.0356
     11 C          -2.6871   -0.1952    0.9827 C.ar    1  UNL1        0.0753
     12 N          -2.1981    0.4054   -0.1467 N.ar    1  UNL1       -0.2901
     13 C          -0.8266    0.7144   -0.3987 C.ar    1  UNL1        0.0867
     14 C          -0.2310    1.9065   -0.7945 C.ar    1  UNL1       -0.0297
     15 C           1.0843    1.9262   -0.9583 C.ar    1  UNL1       -0.0405
     16 C           1.8530    0.8414   -0.7556 C.ar    1  UNL1        0.0758
     17 C           3.2487    0.6025   -0.8547 C.2     1  UNL1        0.2510
     18 O           4.0394    1.5376   -1.2064 O.2     1  UNL1       -0.2696
     19 N           3.8492   -0.6582   -0.5773 N.am    1  UNL1       -0.3081
     20 C           5.2598   -0.8216   -0.6996 C.3     1  UNL1        0.0236
     21 C           6.0172   -1.8044    0.1072 C.3     1  UNL1       -0.0328
     22 C           5.6669   -2.1526   -1.3214 C.3     1  UNL1       -0.0328
     23 S           0.5700   -0.3956   -0.2649 S.2     1  UNL1       -0.0661
     24 H          -2.8357    2.3289   -2.2826 H       1  UNL1        0.0308
     25 H          -2.6121    0.6521   -3.0252 H       1  UNL1        0.0308
     26 H          -4.2178    1.3273   -2.7228 H       1  UNL1        0.0308
     27 H          -4.6574   -1.8258    3.8445 H       1  UNL1        0.0631
     28 H          -2.1987   -1.5520    3.9847 H       1  UNL1        0.0619
     29 H          -0.9332   -0.5171    2.1735 H       1  UNL1        0.0639
     30 H          -0.9187    2.7962   -0.9503 H       1  UNL1        0.0644
     31 H           1.5789    2.9037   -1.2863 H       1  UNL1        0.0631
     32 H           3.2018   -1.4456   -0.2842 H       1  UNL1        0.1493
     33 H           5.8200    0.0775   -1.0427 H       1  UNL1        0.0498
     34 H           5.5437   -2.3647    0.9402 H       1  UNL1        0.0284
     35 H           7.0863   -1.5937    0.2765 H       1  UNL1        0.0284
     36 H           6.4705   -2.0917   -2.0921 H       1  UNL1        0.0284
     37 H           4.9155   -2.9558   -1.4151 H       1  UNL1        0.0284
@<TRIPOS>BOND
     1     1     2    1
     2     2     3   ar
     3     3     4   ar
     4     4     5   ar
     5     5     6    1
     6     6     7    3
     7     5     8   ar
     8     8     9   ar
     9     9    10   ar
    10    10    11   ar
    11    11    12   ar
    12    12    13    1
    13    13    14   ar
    14    14    15   ar
    15    15    16   ar
    16    16    17    1
    17    17    18    2
    18    17    19   am
    19    19    20    1
    20    20    21    1
    21    21    22    1
    22    16    23   ar
    23    12     2   ar
    24    23    13   ar
    25    11     4   ar
    26    22    20    1
    27     1    24    1
    28     1    25    1
    29     1    26    1
    30     8    27    1
    31     9    28    1
    32    10    29    1
    33    14    30    1
    34    15    31    1
    35    19    32    1
    36    20    33    1
    37    21    34    1
    38    21    35    1
    39    22    36    1
    40    22    37    1
