
     RDKit          3D

 37 40  0  0  0  0  0  0  0  0999 V2000
   -3.1724    1.2770   -2.2935 C   0  0  0  0  0  0  0  0  0  0  0  0
   -3.2375    0.6436   -0.9574 C   0  0  0  0  0  0  0  0  0  0  0  0
   -4.3467    0.1977   -0.3372 N   0  0  0  0  0  0  0  0  0  0  0  0
   -4.0479   -0.3273    0.8631 C   0  0  0  0  0  0  0  0  0  0  0  0
   -4.7414   -0.9146    1.8988 C   0  0  0  0  0  0  0  0  0  0  0  0
   -6.1672   -1.0351    1.7326 C   0  0  0  0  0  0  0  0  0  0  0  0
   -7.3184   -1.1255    1.6176 N   0  0  0  0  0  0  0  0  0  0  0  0
   -4.1202   -1.3641    3.0283 C   0  0  0  0  0  0  0  0  0  0  0  0
   -2.7356   -1.2134    3.1151 C   0  0  0  0  0  0  0  0  0  0  0  0
   -2.0017   -0.6315    2.1028 C   0  0  0  0  0  0  0  0  0  0  0  0
   -2.6871   -0.1952    0.9827 C   0  0  0  0  0  0  0  0  0  0  0  0
   -2.1981    0.4054   -0.1467 N   0  0  0  0  0  0  0  0  0  0  0  0
   -0.8266    0.7144   -0.3987 C   0  0  0  0  0  0  0  0  0  0  0  0
   -0.2310    1.9065   -0.7945 C   0  0  0  0  0  0  0  0  0  0  0  0
    1.0843    1.9262   -0.9583 C   0  0  0  0  0  0  0  0  0  0  0  0
    1.8530    0.8414   -0.7556 C   0  0  0  0  0  0  0  0  0  0  0  0
    3.2487    0.6025   -0.8547 C   0  0  0  0  0  0  0  0  0  0  0  0
    4.0394    1.5376   -1.2064 O   0  0  0  0  0  0  0  0  0  0  0  0
    3.8492   -0.6582   -0.5773 N   0  0  0  0  0  0  0  0  0  0  0  0
    5.2598   -0.8216   -0.6996 C   0  0  0  0  0  0  0  0  0  0  0  0
    6.0172   -1.8044    0.1072 C   0  0  0  0  0  0  0  0  0  0  0  0
    5.6669   -2.1526   -1.3214 C   0  0  0  0  0  0  0  0  0  0  0  0
    0.5700   -0.3956   -0.2649 S   0  0  0  0  0  0  0  0  0  0  0  0
   -2.8357    2.3289   -2.2826 H   0  0  0  0  0  0  0  0  0  0  0  0
   -2.6121    0.6521   -3.0252 H   0  0  0  0  0  0  0  0  0  0  0  0
   -4.2178    1.3273   -2.7228 H   0  0  0  0  0  0  0  0  0  0  0  0
   -4.6574   -1.8258    3.8445 H   0  0  0  0  0  0  0  0  0  0  0  0
   -2.1987   -1.5520    3.9847 H   0  0  0  0  0  0  0  0  0  0  0  0
   -0.9332   -0.5171    2.1735 H   0  0  0  0  0  0  0  0  0  0  0  0
   -0.9187    2.7962   -0.9503 H   0  0  0  0  0  0  0  0  0  0  0  0
    1.5789    2.9037   -1.2863 H   0  0  0  0  0  0  0  0  0  0  0  0
    3.2018   -1.4456   -0.2842 H   0  0  0  0  0  0  0  0  0  0  0  0
    5.8200    0.0775   -1.0427 H   0  0  0  0  0  0  0  0  0  0  0  0
    5.5437   -2.3647    0.9402 H   0  0  0  0  0  0  0  0  0  0  0  0
    7.0863   -1.5937    0.2765 H   0  0  0  0  0  0  0  0  0  0  0  0
    6.4705   -2.0917   -2.0921 H   0  0  0  0  0  0  0  0  0  0  0  0
    4.9155   -2.9558   -1.4151 H   0  0  0  0  0  0  0  0  0  0  0  0
  1  2  1  0
  2  3  2  0
  3  4  1  0
  4  5  2  0
  5  6  1  0
  6  7  3  0
  5  8  1  0
  8  9  2  0
  9 10  1  0
 10 11  2  0
 11 12  1  0
 12 13  1  0
 13 14  2  0
 14 15  1  0
 15 16  2  0
 16 17  1  0
 17 18  2  0
 17 19  1  0
 19 20  1  0
 20 21  1  0
 21 22  1  0
 16 23  1  0
 12  2  1  0
 23 13  1  0
 11  4  1  0
 22 20  1  0
  1 24  1  0
  1 25  1  0
  1 26  1  0
  8 27  1  0
  9 28  1  0
 10 29  1  0
 14 30  1  0
 15 31  1  0
 19 32  1  0
 20 33  1  0
 21 34  1  0
 21 35  1  0
 22 36  1  0
 22 37  1  0
M  END
$$$$
