
     RDKit          3D

 59 60  0  0  0  0  0  0  0  0999 V2000
   -3.5885   -2.7690    1.9683 O   0  0  0  0  0  0  0  0  0  0  0  0
   -4.3417   -1.6111    1.8398 C   0  0  0  0  0  0  0  0  0  0  0  0
   -4.2146   -1.1393    0.4086 C   0  0  1  0  0  0  0  0  0  0  0  0
   -5.1781   -0.0336    0.0728 C   0  0  1  0  0  0  0  0  0  0  0  0
   -5.4099    0.8207    1.1551 O   0  0  0  0  0  0  0  0  0  0  0  0
   -4.6634    0.7243   -1.1067 C   0  0  2  0  0  0  0  0  0  0  0  0
   -5.7333    1.1782   -1.9064 O   0  0  0  0  0  0  0  0  0  0  0  0
   -3.7595   -0.0505   -2.0141 C   0  0  1  0  0  0  0  0  0  0  0  0
   -3.2680    0.8335   -2.9702 O   0  0  0  0  0  0  0  0  0  0  0  0
   -2.5704   -0.6531   -1.2854 C   0  0  0  0  0  0  0  0  0  0  0  0
   -2.8704   -0.8675    0.0693 N   0  0  0  0  0  0  0  0  0  0  0  0
   -1.9720   -0.4535    1.0619 C   0  0  0  0  0  0  0  0  0  0  0  0
   -1.8138    1.0354    1.2085 C   0  0  0  0  0  0  0  0  0  0  0  0
   -0.8395    1.3805    2.2926 C   0  0  0  0  0  0  0  0  0  0  0  0
    0.5367    0.8473    2.0878 C   0  0  0  0  0  0  0  0  0  0  0  0
    1.1962    1.3356    0.8242 C   0  0  0  0  0  0  0  0  0  0  0  0
    2.4650    0.7832    0.7302 O   0  0  0  0  0  0  0  0  0  0  0  0
    3.1558    1.1758   -0.4049 C   0  0  0  0  0  0  0  0  0  0  0  0
    4.5135    0.5140   -0.3889 C   0  0  0  0  0  0  0  0  0  0  0  0
    5.3489    0.8855   -1.5995 C   0  0  0  0  0  0  0  0  0  0  0  0
    6.4709   -0.1072   -1.8114 C   0  0  0  0  0  0  0  0  0  0  0  0
    6.7883   -0.8051   -0.5041 C   0  0  0  0  0  0  0  0  0  0  0  0
    5.6236   -1.6478   -0.0120 C   0  0  0  0  0  0  0  0  0  0  0  0
    4.2921   -0.9847   -0.3439 C   0  0  0  0  0  0  0  0  0  0  0  0
   -3.9794   -3.5068    1.4677 H   0  0  0  0  0  0  0  0  0  0  0  0
   -5.4153   -1.9223    1.9732 H   0  0  0  0  0  0  0  0  0  0  0  0
   -4.1412   -0.8491    2.5892 H   0  0  0  0  0  0  0  0  0  0  0  0
   -4.5278   -2.0317   -0.2166 H   0  0  0  0  0  0  0  0  0  0  0  0
   -6.1618   -0.4997   -0.2026 H   0  0  0  0  0  0  0  0  0  0  0  0
   -5.5867    1.7216    0.7546 H   0  0  0  0  0  0  0  0  0  0  0  0
   -4.1180    1.6366   -0.7592 H   0  0  0  0  0  0  0  0  0  0  0  0
   -6.4131    1.6385   -1.3537 H   0  0  0  0  0  0  0  0  0  0  0  0
   -4.3337   -0.8435   -2.5603 H   0  0  0  0  0  0  0  0  0  0  0  0
   -4.0561    1.2079   -3.4448 H   0  0  0  0  0  0  0  0  0  0  0  0
   -1.6679   -0.0699   -1.4986 H   0  0  0  0  0  0  0  0  0  0  0  0
   -2.3944   -1.6574   -1.7706 H   0  0  0  0  0  0  0  0  0  0  0  0
   -0.9461   -0.8432    0.7881 H   0  0  0  0  0  0  0  0  0  0  0  0
   -2.1675   -0.8633    2.0578 H   0  0  0  0  0  0  0  0  0  0  0  0
   -1.4128    1.4576    0.2583 H   0  0  0  0  0  0  0  0  0  0  0  0
   -2.7763    1.5206    1.4657 H   0  0  0  0  0  0  0  0  0  0  0  0
   -1.2239    0.9309    3.2438 H   0  0  0  0  0  0  0  0  0  0  0  0
   -0.7970    2.4715    2.4828 H   0  0  0  0  0  0  0  0  0  0  0  0
    1.1562    1.1990    2.9483 H   0  0  0  0  0  0  0  0  0  0  0  0
    0.5395   -0.2498    2.0982 H   0  0  0  0  0  0  0  0  0  0  0  0
    0.6077    0.9074   -0.0253 H   0  0  0  0  0  0  0  0  0  0  0  0
    1.2323    2.4233    0.7393 H   0  0  0  0  0  0  0  0  0  0  0  0
    2.5873    0.8985   -1.3221 H   0  0  0  0  0  0  0  0  0  0  0  0
    3.2555    2.2950   -0.3926 H   0  0  0  0  0  0  0  0  0  0  0  0
    5.0309    0.7980    0.5483 H   0  0  0  0  0  0  0  0  0  0  0  0
    5.8034    1.8830   -1.4750 H   0  0  0  0  0  0  0  0  0  0  0  0
    4.7185    0.9259   -2.5166 H   0  0  0  0  0  0  0  0  0  0  0  0
    7.3755    0.4287   -2.1198 H   0  0  0  0  0  0  0  0  0  0  0  0
    6.1611   -0.8803   -2.5453 H   0  0  0  0  0  0  0  0  0  0  0  0
    7.6347   -1.4910   -0.6485 H   0  0  0  0  0  0  0  0  0  0  0  0
    7.0649   -0.0732    0.2627 H   0  0  0  0  0  0  0  0  0  0  0  0
    5.6779   -1.7796    1.0926 H   0  0  0  0  0  0  0  0  0  0  0  0
    5.6038   -2.6542   -0.4573 H   0  0  0  0  0  0  0  0  0  0  0  0
    3.9099   -1.3751   -1.3121 H   0  0  0  0  0  0  0  0  0  0  0  0
    3.5917   -1.2007    0.4784 H   0  0  0  0  0  0  0  0  0  0  0  0
  1  2  1  0
  2  3  1  0
  3  4  1  0
  4  5  1  0
  4  6  1  0
  6  7  1  0
  6  8  1  0
  8  9  1  0
  8 10  1  0
 10 11  1  0
 11 12  1  0
 12 13  1  0
 13 14  1  0
 14 15  1  0
 15 16  1  0
 16 17  1  0
 17 18  1  0
 18 19  1  0
 19 20  1  0
 20 21  1  0
 21 22  1  0
 22 23  1  0
 23 24  1  0
 11  3  1  0
 24 19  1  0
  1 25  1  0
  2 26  1  0
  2 27  1  0
  3 28  1  6
  4 29  1  6
  5 30  1  0
  6 31  1  1
  7 32  1  0
  8 33  1  6
  9 34  1  0
 10 35  1  0
 10 36  1  0
 12 37  1  0
 12 38  1  0
 13 39  1  0
 13 40  1  0
 14 41  1  0
 14 42  1  0
 15 43  1  0
 15 44  1  0
 16 45  1  0
 16 46  1  0
 18 47  1  0
 18 48  1  0
 19 49  1  0
 20 50  1  0
 20 51  1  0
 21 52  1  0
 21 53  1  0
 22 54  1  0
 22 55  1  0
 23 56  1  0
 23 57  1  0
 24 58  1  0
 24 59  1  0
M  END
$$$$
