@<TRIPOS>MOLECULE
*****
 59 60 0 0 0
SMALL
GASTEIGER

@<TRIPOS>ATOM
      1 O          -3.5885   -2.7690    1.9683 O.3     1  UNL1       -0.3934
      2 C          -4.3417   -1.6111    1.8398 C.3     1  UNL1        0.0622
      3 C          -4.2146   -1.1393    0.4086 C.3     1  UNL1        0.0621
      4 C          -5.1781   -0.0336    0.0728 C.3     1  UNL1        0.1011
      5 O          -5.4099    0.8207    1.1551 O.3     1  UNL1       -0.3875
      6 C          -4.6634    0.7243   -1.1067 C.3     1  UNL1        0.1095
      7 O          -5.7333    1.1782   -1.9064 O.3     1  UNL1       -0.3866
      8 C          -3.7595   -0.0505   -2.0141 C.3     1  UNL1        0.0962
      9 O          -3.2680    0.8335   -2.9702 O.3     1  UNL1       -0.3879
     10 C          -2.5704   -0.6531   -1.2854 C.3     1  UNL1        0.0279
     11 N          -2.8704   -0.8675    0.0693 N.3     1  UNL1       -0.2923
     12 C          -1.9720   -0.4535    1.0619 C.3     1  UNL1       -0.0006
     13 C          -1.8138    1.0354    1.2085 C.3     1  UNL1       -0.0401
     14 C          -0.8395    1.3805    2.2926 C.3     1  UNL1       -0.0498
     15 C           0.5367    0.8473    2.0878 C.3     1  UNL1       -0.0294
     16 C           1.1962    1.3356    0.8242 C.3     1  UNL1        0.0477
     17 O           2.4650    0.7832    0.7302 O.3     1  UNL1       -0.3795
     18 C           3.1558    1.1758   -0.4049 C.3     1  UNL1        0.0505
     19 C           4.5135    0.5140   -0.3889 C.3     1  UNL1       -0.0176
     20 C           5.3489    0.8855   -1.5995 C.3     1  UNL1       -0.0481
     21 C           6.4709   -0.1072   -1.8114 C.3     1  UNL1       -0.0527
     22 C           6.7883   -0.8051   -0.5041 C.3     1  UNL1       -0.0530
     23 C           5.6236   -1.6478   -0.0120 C.3     1  UNL1       -0.0527
     24 C           4.2921   -0.9847   -0.3439 C.3     1  UNL1       -0.0481
     25 H          -3.9794   -3.5068    1.4677 H       1  UNL1        0.2095
     26 H          -5.4153   -1.9223    1.9732 H       1  UNL1        0.0573
     27 H          -4.1412   -0.8491    2.5892 H       1  UNL1        0.0573
     28 H          -4.5278   -2.0317   -0.2166 H       1  UNL1        0.0511
     29 H          -6.1618   -0.4997   -0.2026 H       1  UNL1        0.0636
     30 H          -5.5867    1.7216    0.7546 H       1  UNL1        0.2100
     31 H          -4.1180    1.6366   -0.7592 H       1  UNL1        0.0646
     32 H          -6.4131    1.6385   -1.3537 H       1  UNL1        0.2100
     33 H          -4.3337   -0.8435   -2.5603 H       1  UNL1        0.0633
     34 H          -4.0561    1.2079   -3.4448 H       1  UNL1        0.2099
     35 H          -1.6679   -0.0699   -1.4986 H       1  UNL1        0.0453
     36 H          -2.3944   -1.6574   -1.7706 H       1  UNL1        0.0453
     37 H          -0.9461   -0.8432    0.7881 H       1  UNL1        0.0427
     38 H          -2.1675   -0.8633    2.0578 H       1  UNL1        0.0427
     39 H          -1.4128    1.4576    0.2583 H       1  UNL1        0.0278
     40 H          -2.7763    1.5206    1.4657 H       1  UNL1        0.0278
     41 H          -1.2239    0.9309    3.2438 H       1  UNL1        0.0266
     42 H          -0.7970    2.4715    2.4828 H       1  UNL1        0.0266
     43 H           1.1562    1.1990    2.9483 H       1  UNL1        0.0287
     44 H           0.5395   -0.2498    2.0982 H       1  UNL1        0.0287
     45 H           0.6077    0.9074   -0.0253 H       1  UNL1        0.0560
     46 H           1.2323    2.4233    0.7393 H       1  UNL1        0.0560
     47 H           2.5873    0.8985   -1.3221 H       1  UNL1        0.0562
     48 H           3.2555    2.2950   -0.3926 H       1  UNL1        0.0562
     49 H           5.0309    0.7980    0.5483 H       1  UNL1        0.0323
     50 H           5.8034    1.8830   -1.4750 H       1  UNL1        0.0269
     51 H           4.7185    0.9259   -2.5166 H       1  UNL1        0.0269
     52 H           7.3755    0.4287   -2.1198 H       1  UNL1        0.0265
     53 H           6.1611   -0.8803   -2.5453 H       1  UNL1        0.0265
     54 H           7.6347   -1.4910   -0.6485 H       1  UNL1        0.0265
     55 H           7.0649   -0.0732    0.2627 H       1  UNL1        0.0265
     56 H           5.6779   -1.7796    1.0926 H       1  UNL1        0.0265
     57 H           5.6038   -2.6542   -0.4573 H       1  UNL1        0.0265
     58 H           3.9099   -1.3751   -1.3121 H       1  UNL1        0.0269
     59 H           3.5917   -1.2007    0.4784 H       1  UNL1        0.0269
@<TRIPOS>BOND
     1     1     2    1
     2     2     3    1
     3     3     4    1
     4     4     5    1
     5     4     6    1
     6     6     7    1
     7     6     8    1
     8     8     9    1
     9     8    10    1
    10    10    11    1
    11    11    12    1
    12    12    13    1
    13    13    14    1
    14    14    15    1
    15    15    16    1
    16    16    17    1
    17    17    18    1
    18    18    19    1
    19    19    20    1
    20    20    21    1
    21    21    22    1
    22    22    23    1
    23    23    24    1
    24    11     3    1
    25    24    19    1
    26     1    25    1
    27     2    26    1
    28     2    27    1
    29     3    28    1
    30     4    29    1
    31     5    30    1
    32     6    31    1
    33     7    32    1
    34     8    33    1
    35     9    34    1
    36    10    35    1
    37    10    36    1
    38    12    37    1
    39    12    38    1
    40    13    39    1
    41    13    40    1
    42    14    41    1
    43    14    42    1
    44    15    43    1
    45    15    44    1
    46    16    45    1
    47    16    46    1
    48    18    47    1
    49    18    48    1
    50    19    49    1
    51    20    50    1
    52    20    51    1
    53    21    52    1
    54    21    53    1
    55    22    54    1
    56    22    55    1
    57    23    56    1
    58    23    57    1
    59    24    58    1
    60    24    59    1
