
     RDKit          3D

 21 21  0  0  0  0  0  0  0  0999 V2000
   -2.4073   -2.3944    0.5365 C   0  0  0  0  0  0  0  0  0  0  0  0
   -1.6920   -1.1923    0.0834 C   0  0  0  0  0  0  0  0  0  0  0  0
   -1.7565   -0.5456   -0.9933 O   0  0  0  0  0  0  0  0  0  0  0  0
   -0.7478   -0.5335    0.8587 O   0  0  0  0  0  0  0  0  0  0  0  0
   -0.0794    0.6026    0.4163 C   0  0  0  0  0  0  0  0  0  0  0  0
   -0.4632    1.9175    0.5739 C   0  0  0  0  0  0  0  0  0  0  0  0
    0.3191    2.9388    0.0712 C   0  0  0  0  0  0  0  0  0  0  0  0
    1.4856    2.6167   -0.5880 C   0  0  0  0  0  0  0  0  0  0  0  0
    1.9149    1.3179   -0.7727 C   0  0  0  0  0  0  0  0  0  0  0  0
    1.1118    0.3159   -0.2589 C   0  0  0  0  0  0  0  0  0  0  0  0
    1.5955   -1.0466   -0.4720 C   0  0  0  0  0  0  0  0  0  0  0  0
    1.0039   -2.2109   -0.0725 O   0  0  0  0  0  0  0  0  0  0  0  0
    2.6537   -1.3676   -1.0686 O   0  0  0  0  0  0  0  0  0  0  0  0
   -2.6623   -3.1033   -0.2740 H   0  0  0  0  0  0  0  0  0  0  0  0
   -3.3627   -2.0670    0.9985 H   0  0  0  0  0  0  0  0  0  0  0  0
   -1.8028   -2.8578    1.3278 H   0  0  0  0  0  0  0  0  0  0  0  0
   -1.3994    2.0254    1.1103 H   0  0  0  0  0  0  0  0  0  0  0  0
   -0.0385    3.9476    0.2287 H   0  0  0  0  0  0  0  0  0  0  0  0
    2.0948    3.4456   -0.9811 H   0  0  0  0  0  0  0  0  0  0  0  0
    2.8386    1.0940   -1.2962 H   0  0  0  0  0  0  0  0  0  0  0  0
    1.3939   -2.9030    0.5722 H   0  0  0  0  0  0  0  0  0  0  0  0
  1  2  1  0
  2  3  2  0
  2  4  1  0
  4  5  1  0
  5  6  2  0
  6  7  1  0
  7  8  2  0
  8  9  1  0
  9 10  2  0
 10 11  1  0
 11 12  1  0
 11 13  2  0
 10  5  1  0
  1 14  1  0
  1 15  1  0
  1 16  1  0
  6 17  1  0
  7 18  1  0
  8 19  1  0
  9 20  1  0
 12 21  1  0
M  END
$$$$
