@<TRIPOS>MOLECULE
*****
 56 60 0 0 0
SMALL
GASTEIGER

@<TRIPOS>ATOM
      1 C          -3.0825   -1.9007    2.9957 C.3     1  UNL1       -0.0220
      2 C          -1.8486   -2.4002    2.3317 C.ar    1  UNL1        0.0471
      3 C          -1.0606   -1.6845    1.4472 C.ar    1  UNL1        0.0643
      4 C          -1.1030   -0.4067    0.9080 C.ar    1  UNL1        0.1324
      5 O          -2.1244    0.4092    1.2767 O.3     1  UNL1       -0.4880
      6 C          -2.4210    1.7082    0.9096 C.3     1  UNL1        0.1021
      7 C          -2.3822    2.6819    2.0817 C.3     1  UNL1       -0.0275
      8 C          -3.7501    1.8464    0.2029 C.3     1  UNL1        0.0195
      9 C          -4.0560    3.2606   -0.1865 C.3     1  UNL1        0.0182
     10 N          -5.1223    3.0469   -1.1829 N.am    1  UNL1       -0.3149
     11 C          -4.8935    1.7957   -1.8109 C.2     1  UNL1        0.2135
     12 O          -5.5420    1.3415   -2.7754 O.2     1  UNL1       -0.2758
     13 C          -3.7611    1.1274   -1.1293 C.3     1  UNL1        0.0315
     14 C          -0.1185   -0.0171    0.0280 C.ar    1  UNL1       -0.0113
     15 C           0.9261   -0.8632   -0.3442 C.ar    1  UNL1       -0.0094
     16 C           1.9609   -0.4304   -1.2773 C.ar    1  UNL1        0.0197
     17 C           1.7691    0.4581   -2.3133 C.ar    1  UNL1        0.0571
     18 N           2.9454    0.6134   -2.9546 N.ar    1  UNL1       -0.1790
     19 N           3.8591   -0.1362   -2.3665 N.ar    1  UNL1       -0.2706
     20 C           5.2287   -0.2119   -2.7921 C.3     1  UNL1        0.0443
     21 C           6.0942    0.8207   -2.1072 C.3     1  UNL1       -0.0214
     22 C           7.5698    0.8009   -2.5094 C.3     1  UNL1       -0.0482
     23 C           7.0781    0.3921   -1.1008 C.3     1  UNL1       -0.0482
     24 C           3.2803   -0.7883   -1.3324 C.ar    1  UNL1        0.0332
     25 C           0.9211   -2.1218    0.2204 C.ar    1  UNL1       -0.0259
     26 C          -0.0401   -2.5611    1.1057 C.ar    1  UNL1        0.0971
     27 N          -0.2507   -3.7243    1.7754 N.ar    1  UNL1       -0.1711
     28 N          -1.3406   -3.6326    2.5165 N.ar    1  UNL1       -0.2704
     29 C          -1.9125   -4.6699    3.3889 C.3     1  UNL1        0.0305
     30 H          -3.1019   -2.2733    4.0425 H       1  UNL1        0.0293
     31 H          -4.0018   -2.1324    2.4478 H       1  UNL1        0.0293
     32 H          -2.9897   -0.7990    3.0715 H       1  UNL1        0.0293
     33 H          -1.6509    2.0690    0.1996 H       1  UNL1        0.0733
     34 H          -3.3745    2.5664    2.6093 H       1  UNL1        0.0265
     35 H          -1.6135    2.4149    2.8029 H       1  UNL1        0.0265
     36 H          -2.3591    3.7091    1.7067 H       1  UNL1        0.0265
     37 H          -4.5913    1.4716    0.8043 H       1  UNL1        0.0356
     38 H          -3.2229    3.7276   -0.7776 H       1  UNL1        0.0466
     39 H          -4.3819    3.9037    0.6299 H       1  UNL1        0.0466
     40 H          -5.8834    3.7212   -1.3572 H       1  UNL1        0.1487
     41 H          -3.9153    0.0376   -1.0062 H       1  UNL1        0.0363
     42 H          -2.8476    1.3819   -1.7020 H       1  UNL1        0.0363
     43 H          -0.0876    0.9597   -0.4294 H       1  UNL1        0.0660
     44 H           0.8681    0.9727   -2.6130 H       1  UNL1        0.0854
     45 H           5.6127   -1.2376   -2.5574 H       1  UNL1        0.0511
     46 H           5.2984   -0.1068   -3.8956 H       1  UNL1        0.0511
     47 H           5.6182    1.8325   -2.0715 H       1  UNL1        0.0318
     48 H           8.0974    1.7911   -2.5534 H       1  UNL1        0.0269
     49 H           7.9428   -0.0276   -3.1190 H       1  UNL1        0.0269
     50 H           7.1248   -0.6950   -0.8663 H       1  UNL1        0.0269
     51 H           7.2829    1.0985   -0.2742 H       1  UNL1        0.0269
     52 H           3.7506   -1.4716   -0.6584 H       1  UNL1        0.0832
     53 H           1.7268   -2.7963   -0.0575 H       1  UNL1        0.0646
     54 H          -1.0535   -5.2090    3.8339 H       1  UNL1        0.0473
     55 H          -2.4692   -5.4177    2.7763 H       1  UNL1        0.0473
     56 H          -2.6017   -4.2453    4.1159 H       1  UNL1        0.0473
@<TRIPOS>BOND
     1     1     2    1
     2     2     3   ar
     3     3     4   ar
     4     4     5    1
     5     5     6    1
     6     6     7    1
     7     6     8    1
     8     8     9    1
     9     9    10    1
    10    10    11   am
    11    11    12    2
    12    11    13    1
    13     4    14   ar
    14    14    15   ar
    15    15    16    1
    16    16    17   ar
    17    17    18   ar
    18    18    19   ar
    19    19    20    1
    20    20    21    1
    21    21    22    1
    22    22    23    1
    23    19    24   ar
    24    15    25   ar
    25    25    26   ar
    26    26    27   ar
    27    27    28   ar
    28    28    29    1
    29    28     2   ar
    30    26     3   ar
    31    13     8    1
    32    24    16   ar
    33    23    21    1
    34     1    30    1
    35     1    31    1
    36     1    32    1
    37     6    33    1
    38     7    34    1
    39     7    35    1
    40     7    36    1
    41     8    37    1
    42     9    38    1
    43     9    39    1
    44    10    40    1
    45    13    41    1
    46    13    42    1
    47    14    43    1
    48    17    44    1
    49    20    45    1
    50    20    46    1
    51    21    47    1
    52    22    48    1
    53    22    49    1
    54    23    50    1
    55    23    51    1
    56    24    52    1
    57    25    53    1
    58    29    54    1
    59    29    55    1
    60    29    56    1
