@<TRIPOS>MOLECULE
*****
 33 35 0 0 0
SMALL
GASTEIGER

@<TRIPOS>ATOM
      1 C           6.3479    0.1808    0.0897 C.3     1  UNL1        0.0788
      2 O           5.4053    1.0415   -0.5219 O.3     1  UNL1       -0.4951
      3 C           4.0484    0.7366   -0.3882 C.ar    1  UNL1        0.1201
      4 C           3.6305   -0.3713    0.3192 C.ar    1  UNL1       -0.0193
      5 C           2.2792   -0.6452    0.4329 C.ar    1  UNL1       -0.0476
      6 C           1.3059    0.1292   -0.1235 C.ar    1  UNL1        0.0176
      7 C          -0.1217   -0.1875    0.0145 C.ar    1  UNL1        0.1392
      8 C          -0.5949   -1.2743    0.7054 C.ar    1  UNL1        0.0288
      9 C          -1.9349   -1.5685    0.8329 C.ar    1  UNL1        0.1966
     10 O          -2.3801   -2.5563    1.4601 O.2     1  UNL1       -0.2869
     11 C          -2.8287   -0.7022    0.2199 C.ar    1  UNL1        0.1055
     12 C          -4.1810   -0.9019    0.2847 C.ar    1  UNL1        0.1347
     13 O          -4.6192   -2.0199    0.9978 O.3     1  UNL1       -0.5058
     14 C          -5.0367   -0.0313   -0.3292 C.ar    1  UNL1        0.0223
     15 C          -4.5725    1.0636   -1.0259 C.ar    1  UNL1        0.1239
     16 O          -5.4670    1.9413   -1.6464 O.3     1  UNL1       -0.5065
     17 C          -3.2136    1.2729   -1.0967 C.ar    1  UNL1        0.0231
     18 C          -2.3316    0.3812   -0.4675 C.ar    1  UNL1        0.1462
     19 O          -1.0368    0.5825   -0.5363 O.2     1  UNL1       -0.4544
     20 C           1.7232    1.2399   -0.8327 C.ar    1  UNL1       -0.0476
     21 C           3.0666    1.5195   -0.9506 C.ar    1  UNL1       -0.0193
     22 H           6.2850   -0.8283   -0.3884 H       1  UNL1        0.0660
     23 H           7.3700    0.5545    0.0306 H       1  UNL1        0.0660
     24 H           6.0593    0.0424    1.1730 H       1  UNL1        0.0660
     25 H           4.3636   -1.0220    0.7825 H       1  UNL1        0.0654
     26 H           2.0204   -1.5199    0.9948 H       1  UNL1        0.0626
     27 H           0.1059   -1.9496    1.1834 H       1  UNL1        0.0693
     28 H          -4.7078   -2.9341    0.6245 H       1  UNL1        0.2922
     29 H          -6.1148   -0.2095   -0.2651 H       1  UNL1        0.0691
     30 H          -6.4316    1.6557   -1.7491 H       1  UNL1        0.2921
     31 H          -2.7869    2.1202   -1.6325 H       1  UNL1        0.0691
     32 H           0.9728    1.8705   -1.2837 H       1  UNL1        0.0626
     33 H           3.3758    2.3897   -1.5070 H       1  UNL1        0.0654
@<TRIPOS>BOND
     1     1     2    1
     2     2     3    1
     3     3     4   ar
     4     4     5   ar
     5     5     6   ar
     6     6     7    1
     7     7     8   ar
     8     8     9   ar
     9     9    10    2
    10     9    11   ar
    11    11    12   ar
    12    12    13    1
    13    12    14   ar
    14    14    15   ar
    15    15    16    1
    16    15    17   ar
    17    17    18   ar
    18    18    19   ar
    19     6    20   ar
    20    20    21   ar
    21    21     3   ar
    22    19     7   ar
    23    18    11   ar
    24     1    22    1
    25     1    23    1
    26     1    24    1
    27     4    25    1
    28     5    26    1
    29     8    27    1
    30    13    28    1
    31    14    29    1
    32    16    30    1
    33    17    31    1
    34    20    32    1
    35    21    33    1
