@<TRIPOS>MOLECULE
*****
 40 43 0 0 0
SMALL
GASTEIGER

@<TRIPOS>ATOM
      1 C           7.2791   -1.5280   -0.7401 C.3     1  UNL1        0.0820
      2 O           6.2752   -0.5567   -0.5339 O.3     1  UNL1       -0.4644
      3 C           4.9363   -0.8188   -0.4782 C.2     1  UNL1        0.3404
      4 O           4.5375   -2.0022   -0.6169 O.2     1  UNL1       -0.2449
      5 C           3.9225    0.2078   -0.2639 C.ar    1  UNL1        0.0776
      6 C           4.3167    1.5342   -0.1059 C.ar    1  UNL1        0.0416
      7 N           3.4150    2.5114    0.0936 N.ar    1  UNL1       -0.2618
      8 C           2.1055    2.2060    0.1423 C.ar    1  UNL1        0.0353
      9 C           1.6550    0.8972   -0.0092 C.ar    1  UNL1        0.0010
     10 C           0.2025    0.6204    0.0531 C.ar    1  UNL1       -0.0160
     11 C          -0.6570    1.5844   -0.3981 C.ar    1  UNL1       -0.0520
     12 C          -2.0460    1.4084   -0.3766 C.ar    1  UNL1       -0.0369
     13 C          -2.5640    0.2307    0.1129 C.ar    1  UNL1        0.0526
     14 C          -1.6959   -0.7355    0.5659 C.ar    1  UNL1       -0.0225
     15 C          -0.2948   -0.5506    0.5408 C.ar    1  UNL1       -0.0488
     16 C          -2.1925   -1.9979    1.1080 C.3     1  UNL1       -0.0188
     17 C          -3.6411   -2.2221    1.0784 C.3     1  UNL1        0.0118
     18 C          -4.4787   -1.1389    0.5999 C.ar    1  UNL1        0.1383
     19 N          -5.8313   -1.0958    0.5268 N.ar    1  UNL1       -0.1340
     20 N          -6.1931    0.0605    0.0261 N.ar    1  UNL1       -0.1343
     21 C          -5.0364    0.7733   -0.2263 C.ar    1  UNL1        0.1348
     22 C          -5.0195    2.1322   -0.7965 C.3     1  UNL1       -0.0041
     23 N          -3.9955    0.0206    0.1326 N.ar    1  UNL1       -0.2829
     24 C           2.5850   -0.0736   -0.2099 C.ar    1  UNL1       -0.0371
     25 H           7.8500   -1.6032    0.2307 H       1  UNL1        0.0661
     26 H           8.0049   -1.2709   -1.5120 H       1  UNL1        0.0661
     27 H           6.8734   -2.5317   -0.9588 H       1  UNL1        0.0661
     28 H           5.3861    1.7271   -0.1533 H       1  UNL1        0.0838
     29 H           1.3723    2.9952    0.3038 H       1  UNL1        0.0836
     30 H          -0.2860    2.5023   -0.7810 H       1  UNL1        0.0624
     31 H          -2.6451    2.2123   -0.7491 H       1  UNL1        0.0638
     32 H           0.3608   -1.3189    0.8994 H       1  UNL1        0.0627
     33 H          -1.8506   -2.0840    2.1863 H       1  UNL1        0.0318
     34 H          -1.6463   -2.8310    0.5547 H       1  UNL1        0.0318
     35 H          -3.8537   -3.1263    0.4315 H       1  UNL1        0.0347
     36 H          -3.9930   -2.5739    2.0910 H       1  UNL1        0.0347
     37 H          -4.6156    2.2091   -1.8171 H       1  UNL1        0.0308
     38 H          -4.6736    2.9038   -0.0817 H       1  UNL1        0.0308
     39 H          -6.1214    2.4190   -0.9507 H       1  UNL1        0.0308
     40 H           2.2537   -1.0962   -0.3299 H       1  UNL1        0.0633
@<TRIPOS>BOND
     1     1     2    1
     2     2     3    1
     3     3     4    2
     4     3     5    1
     5     5     6   ar
     6     6     7   ar
     7     7     8   ar
     8     8     9   ar
     9     9    10    1
    10    10    11   ar
    11    11    12   ar
    12    12    13   ar
    13    13    14   ar
    14    14    15   ar
    15    14    16    1
    16    16    17    1
    17    17    18    1
    18    18    19   ar
    19    19    20   ar
    20    20    21   ar
    21    21    22    1
    22    21    23   ar
    23     9    24   ar
    24    24     5   ar
    25    15    10   ar
    26    23    18   ar
    27    23    13    1
    28     1    25    1
    29     1    26    1
    30     1    27    1
    31     6    28    1
    32     8    29    1
    33    11    30    1
    34    12    31    1
    35    15    32    1
    36    16    33    1
    37    16    34    1
    38    17    35    1
    39    17    36    1
    40    22    37    1
    41    22    38    1
    42    22    39    1
    43    24    40    1
