
     RDKit          3D

 40 43  0  0  0  0  0  0  0  0999 V2000
    7.2791   -1.5280   -0.7401 C   0  0  0  0  0  0  0  0  0  0  0  0
    6.2752   -0.5567   -0.5339 O   0  0  0  0  0  0  0  0  0  0  0  0
    4.9363   -0.8188   -0.4782 C   0  0  0  0  0  0  0  0  0  0  0  0
    4.5375   -2.0022   -0.6169 O   0  0  0  0  0  0  0  0  0  0  0  0
    3.9225    0.2078   -0.2639 C   0  0  0  0  0  0  0  0  0  0  0  0
    4.3167    1.5342   -0.1059 C   0  0  0  0  0  0  0  0  0  0  0  0
    3.4150    2.5114    0.0936 N   0  0  0  0  0  0  0  0  0  0  0  0
    2.1055    2.2060    0.1423 C   0  0  0  0  0  0  0  0  0  0  0  0
    1.6550    0.8972   -0.0092 C   0  0  0  0  0  0  0  0  0  0  0  0
    0.2025    0.6204    0.0531 C   0  0  0  0  0  0  0  0  0  0  0  0
   -0.6570    1.5844   -0.3981 C   0  0  0  0  0  0  0  0  0  0  0  0
   -2.0460    1.4084   -0.3766 C   0  0  0  0  0  0  0  0  0  0  0  0
   -2.5640    0.2307    0.1129 C   0  0  0  0  0  0  0  0  0  0  0  0
   -1.6959   -0.7355    0.5659 C   0  0  0  0  0  0  0  0  0  0  0  0
   -0.2948   -0.5506    0.5408 C   0  0  0  0  0  0  0  0  0  0  0  0
   -2.1925   -1.9979    1.1080 C   0  0  0  0  0  0  0  0  0  0  0  0
   -3.6411   -2.2221    1.0784 C   0  0  0  0  0  0  0  0  0  0  0  0
   -4.4787   -1.1389    0.5999 C   0  0  0  0  0  0  0  0  0  0  0  0
   -5.8313   -1.0958    0.5268 N   0  0  0  0  0  0  0  0  0  0  0  0
   -6.1931    0.0605    0.0261 N   0  0  0  0  0  0  0  0  0  0  0  0
   -5.0364    0.7733   -0.2263 C   0  0  0  0  0  0  0  0  0  0  0  0
   -5.0195    2.1322   -0.7965 C   0  0  0  0  0  0  0  0  0  0  0  0
   -3.9955    0.0206    0.1326 N   0  0  0  0  0  0  0  0  0  0  0  0
    2.5850   -0.0736   -0.2099 C   0  0  0  0  0  0  0  0  0  0  0  0
    7.8500   -1.6032    0.2307 H   0  0  0  0  0  0  0  0  0  0  0  0
    8.0049   -1.2709   -1.5120 H   0  0  0  0  0  0  0  0  0  0  0  0
    6.8734   -2.5317   -0.9588 H   0  0  0  0  0  0  0  0  0  0  0  0
    5.3861    1.7271   -0.1533 H   0  0  0  0  0  0  0  0  0  0  0  0
    1.3723    2.9952    0.3038 H   0  0  0  0  0  0  0  0  0  0  0  0
   -0.2860    2.5023   -0.7810 H   0  0  0  0  0  0  0  0  0  0  0  0
   -2.6451    2.2123   -0.7491 H   0  0  0  0  0  0  0  0  0  0  0  0
    0.3608   -1.3189    0.8994 H   0  0  0  0  0  0  0  0  0  0  0  0
   -1.8506   -2.0840    2.1863 H   0  0  0  0  0  0  0  0  0  0  0  0
   -1.6463   -2.8310    0.5547 H   0  0  0  0  0  0  0  0  0  0  0  0
   -3.8537   -3.1263    0.4315 H   0  0  0  0  0  0  0  0  0  0  0  0
   -3.9930   -2.5739    2.0910 H   0  0  0  0  0  0  0  0  0  0  0  0
   -4.6156    2.2091   -1.8171 H   0  0  0  0  0  0  0  0  0  0  0  0
   -4.6736    2.9038   -0.0817 H   0  0  0  0  0  0  0  0  0  0  0  0
   -6.1214    2.4190   -0.9507 H   0  0  0  0  0  0  0  0  0  0  0  0
    2.2537   -1.0962   -0.3299 H   0  0  0  0  0  0  0  0  0  0  0  0
  1  2  1  0
  2  3  1  0
  3  4  2  0
  3  5  1  0
  5  6  2  0
  6  7  1  0
  7  8  2  0
  8  9  1  0
  9 10  1  0
 10 11  2  0
 11 12  1  0
 12 13  2  0
 13 14  1  0
 14 15  2  0
 14 16  1  0
 16 17  1  0
 17 18  1  0
 18 19  2  0
 19 20  1  0
 20 21  2  0
 21 22  1  0
 21 23  1  0
  9 24  2  0
 24  5  1  0
 15 10  1  0
 23 18  1  0
 23 13  1  0
  1 25  1  0
  1 26  1  0
  1 27  1  0
  6 28  1  0
  8 29  1  0
 11 30  1  0
 12 31  1  0
 15 32  1  0
 16 33  1  0
 16 34  1  0
 17 35  1  0
 17 36  1  0
 22 37  1  0
 22 38  1  0
 22 39  1  0
 24 40  1  0
M  END
$$$$
