@<TRIPOS>MOLECULE
*****
 55 59 0 0 0
SMALL
GASTEIGER

@<TRIPOS>ATOM
      1 C          -4.9143   -1.2318    3.8423 C.3     1  UNL1       -0.0396
      2 C          -4.1017   -0.5186    2.8164 C.ar    1  UNL1       -0.0483
      3 C          -3.0349    0.2495    3.2137 C.ar    1  UNL1       -0.0580
      4 C          -2.2608    0.9256    2.2652 C.ar    1  UNL1       -0.0473
      5 C          -2.5474    0.8376    0.9263 C.ar    1  UNL1        0.0640
      6 C          -1.7824    1.5155   -0.0827 C.2     1  UNL1        0.2491
      7 O          -2.1439    2.6816   -0.3880 O.2     1  UNL1       -0.2699
      8 N          -0.6612    0.9643   -0.7513 N.am    1  UNL1       -0.2897
      9 C          -0.0002    1.7913   -1.7624 C.3     1  UNL1        0.0388
     10 C          -0.2016    1.0584   -3.0753 C.3     1  UNL1        0.0635
     11 O          -0.3721   -0.3092   -2.8718 O.3     1  UNL1       -0.3764
     12 C           0.4391   -0.8048   -1.8682 C.3     1  UNL1        0.0666
     13 C          -0.1310   -0.3318   -0.5389 C.3     1  UNL1        0.0537
     14 C           0.7697   -0.5646    0.6012 C.3     1  UNL1       -0.0040
     15 C           2.0193    0.1780    0.6731 C.ar    1  UNL1       -0.0083
     16 C           3.2210   -0.4469    0.3092 C.ar    1  UNL1       -0.0286
     17 C           4.4413    0.1895    0.3483 C.ar    1  UNL1        0.0866
     18 N           5.6550   -0.4537   -0.0216 N.ar    1  UNL1       -0.1503
     19 N           6.3302   -0.3126   -1.1270 N.ar    1  UNL1       -0.1556
     20 C           7.4353   -1.0878   -1.1226 C.ar    1  UNL1        0.0697
     21 C           7.4249   -1.7483    0.0810 C.ar    1  UNL1        0.0697
     22 N           6.3208   -1.3344    0.7266 N.ar    1  UNL1       -0.1556
     23 C           4.4339    1.5058    0.7723 C.ar    1  UNL1       -0.0318
     24 C           3.2569    2.1274    1.1318 C.ar    1  UNL1       -0.0241
     25 C           2.0238    1.4838    1.0922 C.ar    1  UNL1        0.1267
     26 F           0.9029    2.1615    1.4654 F       1  UNL1       -0.2052
     27 C          -3.6235    0.0605    0.5508 C.ar    1  UNL1        0.0985
     28 N          -3.9345   -0.0430   -0.8209 N.ar    1  UNL1       -0.1496
     29 N          -4.3493    0.9461   -1.6113 N.ar    1  UNL1       -0.1556
     30 C          -4.5373    0.4606   -2.8316 C.ar    1  UNL1        0.0697
     31 C          -4.2313   -0.8744   -2.8076 C.ar    1  UNL1        0.0697
     32 N          -3.8598   -1.1435   -1.5300 N.ar    1  UNL1       -0.1556
     33 C          -4.4021   -0.6167    1.4760 C.ar    1  UNL1       -0.0309
     34 H          -4.3686   -2.1578    4.1490 H       1  UNL1        0.0278
     35 H          -5.8991   -1.4607    3.4034 H       1  UNL1        0.0278
     36 H          -5.0745   -0.5503    4.7170 H       1  UNL1        0.0278
     37 H          -2.8130    0.3169    4.2664 H       1  UNL1        0.0620
     38 H          -1.4310    1.5204    2.6176 H       1  UNL1        0.0626
     39 H           1.0559    1.9391   -1.5509 H       1  UNL1        0.0487
     40 H          -0.4625    2.7822   -1.8589 H       1  UNL1        0.0487
     41 H          -1.1064    1.4815   -3.5535 H       1  UNL1        0.0575
     42 H           0.6581    1.2728   -3.7415 H       1  UNL1        0.0575
     43 H           0.4207   -1.9081   -1.9458 H       1  UNL1        0.0578
     44 H           1.4425   -0.3669   -1.9789 H       1  UNL1        0.0578
     45 H          -1.0233   -1.0131   -0.3768 H       1  UNL1        0.0526
     46 H           0.1697   -0.4617    1.5367 H       1  UNL1        0.0333
     47 H           1.0216   -1.6708    0.5862 H       1  UNL1        0.0333
     48 H           3.2202   -1.4908   -0.0266 H       1  UNL1        0.0643
     49 H           8.1756   -1.1696   -1.9090 H       1  UNL1        0.0864
     50 H           8.1827   -2.4609    0.4101 H       1  UNL1        0.0864
     51 H           5.3926    2.0247    0.8085 H       1  UNL1        0.0640
     52 H           3.2463    3.1689    1.4678 H       1  UNL1        0.0647
     53 H          -4.8728    1.0354   -3.6801 H       1  UNL1        0.0864
     54 H          -4.2706   -1.5811   -3.6211 H       1  UNL1        0.0864
     55 H          -5.2489   -1.2299    1.1999 H       1  UNL1        0.0642
@<TRIPOS>BOND
     1     1     2    1
     2     2     3   ar
     3     3     4   ar
     4     4     5   ar
     5     5     6    1
     6     6     7    2
     7     6     8   am
     8     8     9    1
     9     9    10    1
    10    10    11    1
    11    11    12    1
    12    12    13    1
    13    13    14    1
    14    14    15    1
    15    15    16   ar
    16    16    17   ar
    17    17    18    1
    18    18    19   ar
    19    19    20   ar
    20    20    21   ar
    21    21    22   ar
    22    17    23   ar
    23    23    24   ar
    24    24    25   ar
    25    25    26    1
    26     5    27   ar
    27    27    28    1
    28    28    29   ar
    29    29    30   ar
    30    30    31   ar
    31    31    32   ar
    32    27    33   ar
    33    33     2   ar
    34    13     8    1
    35    25    15   ar
    36    32    28   ar
    37    22    18   ar
    38     1    34    1
    39     1    35    1
    40     1    36    1
    41     3    37    1
    42     4    38    1
    43     9    39    1
    44     9    40    1
    45    10    41    1
    46    10    42    1
    47    12    43    1
    48    12    44    1
    49    13    45    1
    50    14    46    1
    51    14    47    1
    52    16    48    1
    53    20    49    1
    54    21    50    1
    55    23    51    1
    56    24    52    1
    57    30    53    1
    58    31    54    1
    59    33    55    1
