@<TRIPOS>MOLECULE
*****
 34 36 0 0 0
SMALL
GASTEIGER

@<TRIPOS>ATOM
      1 C           0.5271    6.3311   -2.4622 C.1     1  UNL1       -0.1158
      2 C           0.7881    5.8463   -1.3737 C.1     1  UNL1       -0.0648
      3 C           1.1104    5.2804   -0.0530 C.3     1  UNL1        0.1496
      4 O           0.8412    3.9653    0.0060 O.3     1  UNL1       -0.4793
      5 C           0.7353    2.8240    0.5644 C.ar    1  UNL1        0.1289
      6 C           0.9191    2.4448    1.8630 C.ar    1  UNL1        0.0225
      7 C           0.8192    1.2987    2.5109 C.ar    1  UNL1        0.1347
      8 O           1.0437    1.0924    3.8449 O.3     1  UNL1       -0.5058
      9 C           0.4376    0.2115    1.6766 C.ar    1  UNL1        0.1055
     10 C           0.3015   -0.9914    2.2589 C.ar    1  UNL1        0.1966
     11 O           0.5085   -1.2439    3.4935 O.2     1  UNL1       -0.2869
     12 C          -0.0936   -2.0951    1.4363 C.ar    1  UNL1        0.0288
     13 C          -0.2872   -1.7880    0.1033 C.ar    1  UNL1        0.1392
     14 C          -0.6770   -2.9483   -0.7212 C.ar    1  UNL1        0.0174
     15 C          -0.5978   -2.8774   -2.1303 C.ar    1  UNL1       -0.0511
     16 C          -0.9801   -3.9202   -2.9149 C.ar    1  UNL1       -0.0611
     17 C          -1.4814   -5.1396   -2.3955 C.ar    1  UNL1       -0.0617
     18 C          -1.5348   -5.1415   -1.0249 C.ar    1  UNL1       -0.0611
     19 C          -1.1690   -4.1491   -0.1945 C.ar    1  UNL1       -0.0511
     20 O          -0.1413   -0.6258   -0.4006 O.2     1  UNL1       -0.4544
     21 C           0.2247    0.4523    0.3443 C.ar    1  UNL1        0.1462
     22 C           0.3483    1.6636   -0.2586 C.ar    1  UNL1        0.0234
     23 H           0.2876    6.7489   -3.4377 H       1  UNL1        0.1229
     24 H           0.3818    5.8146    0.6325 H       1  UNL1        0.0837
     25 H           2.0994    5.6028    0.3418 H       1  UNL1        0.0837
     26 H           1.2369    3.3521    2.4918 H       1  UNL1        0.0691
     27 H           0.4769    1.7227    4.4609 H       1  UNL1        0.2922
     28 H          -0.1997   -3.0071    1.9344 H       1  UNL1        0.0693
     29 H          -0.2326   -1.9689   -2.5684 H       1  UNL1        0.0625
     30 H          -0.9172   -3.8926   -4.0057 H       1  UNL1        0.0618
     31 H          -1.7869   -5.9420   -3.0206 H       1  UNL1        0.0618
     32 H          -1.9192   -6.1188   -0.6001 H       1  UNL1        0.0618
     33 H          -1.2580   -4.2347    0.8901 H       1  UNL1        0.0625
     34 H           0.1884    1.8556   -1.2919 H       1  UNL1        0.0691
@<TRIPOS>BOND
     1     1     2    3
     2     2     3    1
     3     3     4    1
     4     4     5    1
     5     5     6   ar
     6     6     7   ar
     7     7     8    1
     8     7     9   ar
     9     9    10   ar
    10    10    11    2
    11    10    12   ar
    12    12    13   ar
    13    13    14    1
    14    14    15   ar
    15    15    16   ar
    16    16    17   ar
    17    17    18   ar
    18    18    19   ar
    19    13    20   ar
    20    20    21   ar
    21    21    22   ar
    22    22     5   ar
    23    21     9   ar
    24    19    14   ar
    25     1    23    1
    26     3    24    1
    27     3    25    1
    28     6    26    1
    29     8    27    1
    30    12    28    1
    31    15    29    1
    32    16    30    1
    33    17    31    1
    34    18    32    1
    35    19    33    1
    36    22    34    1
