@<TRIPOS>MOLECULE
*****
 59 63 0 0 0
SMALL
GASTEIGER

@<TRIPOS>ATOM
      1 O          -1.1745    0.7654   -1.0403 O.2     1  UNL1       -0.2701
      2 C          -1.3633   -0.3164   -0.3748 C.2     1  UNL1        0.2473
      3 N          -2.6140   -0.9900   -0.6302 N.am    1  UNL1       -0.3112
      4 C          -3.5593   -0.4194   -1.5924 C.3     1  UNL1        0.0133
      5 C          -4.7513   -1.2829   -1.7813 C.3     1  UNL1       -0.0215
      6 C          -5.6034   -1.5443   -0.5963 C.3     1  UNL1        0.0161
      7 N          -6.2338   -0.3802   -0.0565 N.am    1  UNL1       -0.3014
      8 C          -5.7562    0.4791    0.9817 C.3     1  UNL1        0.0151
      9 C          -6.9572    1.2680    1.4711 C.3     1  UNL1       -0.0289
     10 C          -8.1057    0.9071    0.5718 C.3     1  UNL1        0.0256
     11 C          -7.5203    0.0793   -0.5137 C.2     1  UNL1        0.2156
     12 O          -8.0624   -0.1622   -1.6178 O.2     1  UNL1       -0.2756
     13 C          -0.4219   -0.8710    0.5648 C.ar    1  UNL1        0.0758
     14 C          -0.9105   -1.7788    1.5169 C.ar    1  UNL1        0.0415
     15 N          -0.0770   -2.2960    2.4343 N.ar    1  UNL1       -0.2624
     16 C           1.2064   -1.9845    2.4842 C.ar    1  UNL1        0.0293
     17 C           1.7676   -1.0920    1.5747 C.ar    1  UNL1       -0.0216
     18 C           0.9337   -0.5457    0.6214 C.ar    1  UNL1        0.0476
     19 N           1.4950    0.2644   -0.3752 N.pl3   1  UNL1       -0.2969
     20 C           2.9014    0.4427   -0.5390 C.ar    1  UNL1        0.1546
     21 N           3.8055    0.7080    0.3807 N.ar    1  UNL1       -0.2101
     22 C           5.1355    0.8030    0.1172 C.ar    1  UNL1        0.1670
     23 C           6.1266    1.0841    1.1555 C.ar    1  UNL1        0.0554
     24 C           5.8102    1.4261    2.4460 C.ar    1  UNL1       -0.0343
     25 C           6.8361    1.6303    3.3762 C.ar    1  UNL1        0.0187
     26 BR          6.4093    2.1140    5.1653 Br      1  UNL1       -0.0503
     27 C           8.1652    1.5014    3.0548 C.ar    1  UNL1       -0.0450
     28 C           8.4749    1.1558    1.7498 C.ar    1  UNL1       -0.0247
     29 C           7.4582    0.9574    0.8400 C.ar    1  UNL1        0.1341
     30 F           7.7689    0.6071   -0.4443 F       1  UNL1       -0.2047
     31 N           5.5103    0.6121   -1.1642 N.ar    1  UNL1       -0.2061
     32 C           4.6896    0.3416   -2.1703 C.ar    1  UNL1        0.1838
     33 N           5.0543    0.1547   -3.4360 N.ar    1  UNL1       -0.2328
     34 C           4.1558   -0.1168   -4.3861 C.ar    1  UNL1        0.0481
     35 C           2.8117   -0.2128   -4.1020 C.ar    1  UNL1        0.0466
     36 N           2.4380   -0.0210   -2.8190 N.ar    1  UNL1       -0.2469
     37 C           3.3378    0.2506   -1.8632 C.ar    1  UNL1        0.1478
     38 H          -2.8251   -1.8673   -0.1442 H       1  UNL1        0.1490
     39 H          -3.0023   -0.3923   -2.5579 H       1  UNL1        0.0462
     40 H          -3.8502    0.6070   -1.3704 H       1  UNL1        0.0462
     41 H          -4.4069   -2.2439   -2.2700 H       1  UNL1        0.0295
     42 H          -5.3601   -0.8016   -2.6009 H       1  UNL1        0.0295
     43 H          -4.9940   -1.9748    0.2645 H       1  UNL1        0.0465
     44 H          -6.3604   -2.3312   -0.9090 H       1  UNL1        0.0465
     45 H          -5.3658   -0.0927    1.8572 H       1  UNL1        0.0465
     46 H          -4.9521    1.1528    0.6344 H       1  UNL1        0.0465
     47 H          -6.7682    2.3805    1.4086 H       1  UNL1        0.0285
     48 H          -7.2206    0.9489    2.5053 H       1  UNL1        0.0285
     49 H          -8.8732    0.3026    1.1280 H       1  UNL1        0.0359
     50 H          -8.5644    1.8181    0.1081 H       1  UNL1        0.0359
     51 H          -1.9684   -2.0571    1.5174 H       1  UNL1        0.0838
     52 H           1.8502   -2.4348    3.2597 H       1  UNL1        0.0830
     53 H           2.8343   -0.8716    1.6492 H       1  UNL1        0.0651
     54 H           0.8440    0.7717   -1.0390 H       1  UNL1        0.1536
     55 H           4.7698    1.5399    2.7165 H       1  UNL1        0.0636
     56 H           8.9280    1.6629    3.8073 H       1  UNL1        0.0629
     57 H           9.5271    1.0547    1.5099 H       1  UNL1        0.0647
     58 H           4.4484   -0.2755   -5.4172 H       1  UNL1        0.0846
     59 H           2.1288   -0.4345   -4.9000 H       1  UNL1        0.0845
@<TRIPOS>BOND
     1     1     2    2
     2     2     3   am
     3     3     4    1
     4     4     5    1
     5     5     6    1
     6     6     7    1
     7     7     8    1
     8     8     9    1
     9     9    10    1
    10    10    11    1
    11    11    12    2
    12     2    13    1
    13    13    14   ar
    14    14    15   ar
    15    15    16   ar
    16    16    17   ar
    17    17    18   ar
    18    18    19    1
    19    19    20    1
    20    20    21   ar
    21    21    22   ar
    22    22    23    1
    23    23    24   ar
    24    24    25   ar
    25    25    26    1
    26    25    27   ar
    27    27    28   ar
    28    28    29   ar
    29    29    30    1
    30    22    31   ar
    31    31    32   ar
    32    32    33   ar
    33    33    34   ar
    34    34    35   ar
    35    35    36   ar
    36    36    37   ar
    37    11     7   am
    38    18    13   ar
    39    37    20   ar
    40    29    23   ar
    41    37    32   ar
    42     3    38    1
    43     4    39    1
    44     4    40    1
    45     5    41    1
    46     5    42    1
    47     6    43    1
    48     6    44    1
    49     8    45    1
    50     8    46    1
    51     9    47    1
    52     9    48    1
    53    10    49    1
    54    10    50    1
    55    14    51    1
    56    16    52    1
    57    17    53    1
    58    19    54    1
    59    24    55    1
    60    27    56    1
    61    28    57    1
    62    34    58    1
    63    35    59    1
