@<TRIPOS>MOLECULE
*****
 30 30 0 0 0
SMALL
GASTEIGER

@<TRIPOS>ATOM
      1 C           1.6900   -0.6441    0.5865 C.3     1  UNL1        0.0233
      2 C           3.0764   -0.2031    0.9950 C.3     1  UNL1        0.0506
      3 O           4.0233   -0.7921    0.1709 O.3     1  UNL1       -0.3946
      4 C           0.7023    0.0277    1.5174 C.3     1  UNL1        0.0052
      5 N           0.1335    1.1725    0.8736 N.3     1  UNL1       -0.2926
      6 C          -0.7636    0.7300   -0.1690 C.3     1  UNL1        0.1328
      7 N          -1.9036    0.1430    0.4876 N.2     1  UNL1       -0.2333
      8 C          -2.9847   -0.2414   -0.0732 C.2     1  UNL1        0.1808
      9 C          -4.0115   -0.8195    0.8571 C.3     1  UNL1        0.0113
     10 O          -3.0126   -0.0511   -1.4631 O.2     1  UNL1       -0.4958
     11 C          -0.1324   -0.3195   -1.0531 C.3     1  UNL1        0.1167
     12 O          -0.3224   -0.0094   -2.4082 O.3     1  UNL1       -0.3858
     13 C           1.3660   -0.3122   -0.8316 C.3     1  UNL1        0.0904
     14 O           1.8356    0.9143   -1.2606 O.3     1  UNL1       -0.3887
     15 H           1.5626   -1.7319    0.7325 H       1  UNL1        0.0361
     16 H           3.2719   -0.5964    2.0181 H       1  UNL1        0.0561
     17 H           3.1593    0.8823    1.0262 H       1  UNL1        0.0561
     18 H           4.0363   -0.4756   -0.7468 H       1  UNL1        0.2094
     19 H          -0.1316   -0.6519    1.7860 H       1  UNL1        0.0429
     20 H           1.2263    0.3637    2.4507 H       1  UNL1        0.0429
     21 H           0.8028    1.8979    0.5912 H       1  UNL1        0.1240
     22 H          -1.0521    1.6256   -0.7811 H       1  UNL1        0.0741
     23 H          -4.7975   -1.3802    0.3074 H       1  UNL1        0.0324
     24 H          -4.4842   -0.0343    1.4845 H       1  UNL1        0.0324
     25 H          -3.5366   -1.5344    1.5475 H       1  UNL1        0.0324
     26 H          -2.8675    0.9046   -1.8160 H       1  UNL1        0.2934
     27 H          -0.5775   -1.3167   -0.8638 H       1  UNL1        0.0654
     28 H          -0.5467    0.9523   -2.4930 H       1  UNL1        0.2100
     29 H           1.7520   -1.1462   -1.4892 H       1  UNL1        0.0624
     30 H           2.4862    0.8905   -1.9834 H       1  UNL1        0.2099
@<TRIPOS>BOND
     1     1     2    1
     2     2     3    1
     3     1     4    1
     4     4     5    1
     5     5     6    1
     6     6     7    1
     7     7     8    2
     8     8     9    1
     9     8    10    1
    10     6    11    1
    11    11    12    1
    12    11    13    1
    13    13    14    1
    14    13     1    1
    15     1    15    1
    16     2    16    1
    17     2    17    1
    18     3    18    1
    19     4    19    1
    20     4    20    1
    21     5    21    1
    22     6    22    1
    23     9    23    1
    24     9    24    1
    25     9    25    1
    26    10    26    1
    27    11    27    1
    28    12    28    1
    29    13    29    1
    30    14    30    1
