
     RDKit          3D

 61 63  0  0  0  0  0  0  0  0999 V2000
    0.9023   -4.1201    0.1172 C   0  0  0  0  0  0  0  0  0  0  0  0
    0.9591   -2.9901   -0.7905 N   0  0  0  0  0  0  0  0  0  0  0  0
   -0.2403   -2.8647   -1.5157 C   0  0  0  0  0  0  0  0  0  0  0  0
   -1.2240   -1.8850   -0.9996 C   0  0  0  0  0  0  0  0  0  0  0  0
   -2.4811   -1.9638   -1.3479 C   0  0  0  0  0  0  0  0  0  0  0  0
   -3.4453   -1.0036   -0.8524 C   0  0  0  0  0  0  0  0  0  0  0  0
   -3.2806    0.3498   -1.0392 C   0  0  0  0  0  0  0  0  0  0  0  0
   -4.2414    1.2130   -0.5200 C   0  0  0  0  0  0  0  0  0  0  0  0
   -5.3467    0.7711    0.1706 C   0  0  0  0  0  0  0  0  0  0  0  0
   -6.3033    1.6908    0.6825 N   0  0  0  0  0  0  0  0  0  0  0  0
   -7.4371    1.1631    1.4043 C   0  0  0  0  0  0  0  0  0  0  0  0
   -6.1582    3.1195    0.4924 C   0  0  0  0  0  0  0  0  0  0  0  0
   -5.4855   -0.5861    0.3418 C   0  0  0  0  0  0  0  0  0  0  0  0
   -4.5631   -1.4815   -0.1520 C   0  0  0  0  0  0  0  0  0  0  0  0
   -4.6931   -2.8795    0.0199 N   0  0  0  0  0  4  0  0  0  0  0  0
   -5.8295   -3.3577    0.1531 O   0  0  0  0  0  0  0  0  0  0  0  0
   -3.6113   -3.7147    0.0454 O   0  0  0  0  0  1  0  0  0  0  0  0
   -0.7291   -0.8946   -0.0606 C   0  0  0  0  0  0  0  0  0  0  0  0
   -1.4769   -0.2685    0.7301 O   0  0  0  0  0  0  0  0  0  0  0  0
    0.7235   -0.6520   -0.0748 C   0  0  0  0  0  0  0  0  0  0  0  0
    1.1849    0.5727    0.1419 C   0  0  0  0  0  0  0  0  0  0  0  0
    2.6040    0.8655    0.1310 C   0  0  0  0  0  0  0  0  0  0  0  0
    3.2262    1.2638    1.2990 C   0  0  0  0  0  0  0  0  0  0  0  0
    4.5447    1.6003    1.3813 C   0  0  0  0  0  0  0  0  0  0  0  0
    5.3183    1.5414    0.2208 C   0  0  0  0  0  0  0  0  0  0  0  0
    6.7026    1.8790    0.2476 N   0  0  0  0  0  0  0  0  0  0  0  0
    7.2866    2.2838    1.5044 C   0  0  0  0  0  0  0  0  0  0  0  0
    7.4737    1.8093   -0.9598 C   0  0  0  0  0  0  0  0  0  0  0  0
    4.7113    1.1460   -0.9554 C   0  0  0  0  0  0  0  0  0  0  0  0
    3.3641    0.8089   -1.0126 C   0  0  0  0  0  0  0  0  0  0  0  0
    2.8099    0.4543   -2.2996 N   0  0  0  0  0  4  0  0  0  0  0  0
    1.6327    0.7099   -2.5480 O   0  0  0  0  0  0  0  0  0  0  0  0
    3.6053   -0.1623   -3.2254 O   0  0  0  0  0  1  0  0  0  0  0  0
    1.5765   -1.8336   -0.2548 C   0  0  0  0  0  0  0  0  0  0  0  0
   -0.0818   -4.1984    0.6127 H   0  0  0  0  0  0  0  0  0  0  0  0
    1.7201   -4.0760    0.8467 H   0  0  0  0  0  0  0  0  0  0  0  0
    1.0435   -5.0397   -0.4871 H   0  0  0  0  0  0  0  0  0  0  0  0
   -0.7416   -3.8770   -1.5258 H   0  0  0  0  0  0  0  0  0  0  0  0
   -0.0274   -2.6601   -2.5951 H   0  0  0  0  0  0  0  0  0  0  0  0
   -2.8270   -2.7594   -2.0210 H   0  0  0  0  0  0  0  0  0  0  0  0
   -2.4196    0.7522   -1.5921 H   0  0  0  0  0  0  0  0  0  0  0  0
   -4.1118    2.2902   -0.6684 H   0  0  0  0  0  0  0  0  0  0  0  0
   -8.1273    1.9722    1.6765 H   0  0  0  0  0  0  0  0  0  0  0  0
   -7.9641    0.4510    0.7368 H   0  0  0  0  0  0  0  0  0  0  0  0
   -7.1186    0.6517    2.3398 H   0  0  0  0  0  0  0  0  0  0  0  0
   -5.3293    3.4701    1.1386 H   0  0  0  0  0  0  0  0  0  0  0  0
   -5.9645    3.3467   -0.5856 H   0  0  0  0  0  0  0  0  0  0  0  0
   -7.1286    3.6047    0.7206 H   0  0  0  0  0  0  0  0  0  0  0  0
   -6.3592   -0.9607    0.8907 H   0  0  0  0  0  0  0  0  0  0  0  0
    0.4408    1.3590    0.3367 H   0  0  0  0  0  0  0  0  0  0  0  0
    2.6463    1.3188    2.2195 H   0  0  0  0  0  0  0  0  0  0  0  0
    5.0542    1.9143    2.2810 H   0  0  0  0  0  0  0  0  0  0  0  0
    6.8920    3.2788    1.8131 H   0  0  0  0  0  0  0  0  0  0  0  0
    8.4133    2.3083    1.4401 H   0  0  0  0  0  0  0  0  0  0  0  0
    7.0678    1.5554    2.3156 H   0  0  0  0  0  0  0  0  0  0  0  0
    8.5342    2.1012   -0.7736 H   0  0  0  0  0  0  0  0  0  0  0  0
    7.5241    0.7621   -1.3676 H   0  0  0  0  0  0  0  0  0  0  0  0
    7.0768    2.5036   -1.7324 H   0  0  0  0  0  0  0  0  0  0  0  0
    5.2904    1.0907   -1.8698 H   0  0  0  0  0  0  0  0  0  0  0  0
    1.8487   -2.1292    0.8293 H   0  0  0  0  0  0  0  0  0  0  0  0
    2.5691   -1.6150   -0.6786 H   0  0  0  0  0  0  0  0  0  0  0  0
  1  2  1  0
  2  3  1  0
  3  4  1  0
  4  5  2  0
  5  6  1  0
  6  7  2  0
  7  8  1  0
  8  9  2  0
  9 10  1  0
 10 11  1  0
 10 12  1  0
  9 13  1  0
 13 14  2  0
 14 15  1  0
 15 16  2  0
 15 17  1  0
  4 18  1  0
 18 19  2  0
 18 20  1  0
 20 21  2  0
 21 22  1  0
 22 23  2  0
 23 24  1  0
 24 25  2  0
 25 26  1  0
 26 27  1  0
 26 28  1  0
 25 29  1  0
 29 30  2  0
 30 31  1  0
 31 32  2  0
 31 33  1  0
 20 34  1  0
 34  2  1  0
 14  6  1  0
 30 22  1  0
  1 35  1  0
  1 36  1  0
  1 37  1  0
  3 38  1  0
  3 39  1  0
  5 40  1  0
  7 41  1  0
  8 42  1  0
 11 43  1  0
 11 44  1  0
 11 45  1  0
 12 46  1  0
 12 47  1  0
 12 48  1  0
 13 49  1  0
 21 50  1  0
 23 51  1  0
 24 52  1  0
 27 53  1  0
 27 54  1  0
 27 55  1  0
 28 56  1  0
 28 57  1  0
 28 58  1  0
 29 59  1  0
 34 60  1  0
 34 61  1  0
M  CHG  4  15   1  17  -1  31   1  33  -1
M  END
$$$$
