@<TRIPOS>MOLECULE
*****
 61 63 0 0 0
SMALL
GASTEIGER

@<TRIPOS>ATOM
      1 C           0.9023   -4.1201    0.1172 C.3     1  UNL1       -0.0121
      2 N           0.9591   -2.9901   -0.7905 N.3     1  UNL1       -0.2968
      3 C          -0.2403   -2.8647   -1.5157 C.3     1  UNL1        0.0277
      4 C          -1.2240   -1.8850   -0.9996 C.2     1  UNL1        0.0143
      5 C          -2.4811   -1.9638   -1.3479 C.2     1  UNL1       -0.0401
      6 C          -3.4453   -1.0036   -0.8524 C.ar    1  UNL1        0.0526
      7 C          -3.2806    0.3498   -1.0392 C.ar    1  UNL1       -0.0464
      8 C          -4.2414    1.2130   -0.5200 C.ar    1  UNL1       -0.0397
      9 C          -5.3467    0.7711    0.1706 C.ar    1  UNL1        0.0357
     10 N          -6.3033    1.6908    0.6825 N.pl3   1  UNL1       -0.3358
     11 C          -7.4371    1.1631    1.4043 C.3     1  UNL1        0.0004
     12 C          -6.1582    3.1195    0.4924 C.3     1  UNL1        0.0004
     13 C          -5.4855   -0.5861    0.3418 C.ar    1  UNL1        0.0372
     14 C          -4.5631   -1.4815   -0.1520 C.ar    1  UNL1        0.2820
     15 N          -4.6931   -2.8795    0.0199 N.pl3   1  UNL1        0.0803
     16 O          -5.8295   -3.3577    0.1531 O.2     1  UNL1        0.0415
     17 O          -3.6113   -3.7147    0.0454 O.co2   1  UNL1       -0.5760
     18 C          -0.7291   -0.8946   -0.0606 C.2     1  UNL1        0.1878
     19 O          -1.4769   -0.2685    0.7301 O.2     1  UNL1       -0.2872
     20 C           0.7235   -0.6520   -0.0748 C.2     1  UNL1        0.0143
     21 C           1.1849    0.5727    0.1419 C.2     1  UNL1       -0.0401
     22 C           2.6040    0.8655    0.1310 C.ar    1  UNL1        0.0526
     23 C           3.2262    1.2638    1.2990 C.ar    1  UNL1       -0.0464
     24 C           4.5447    1.6003    1.3813 C.ar    1  UNL1       -0.0397
     25 C           5.3183    1.5414    0.2208 C.ar    1  UNL1        0.0357
     26 N           6.7026    1.8790    0.2476 N.pl3   1  UNL1       -0.3358
     27 C           7.2866    2.2838    1.5044 C.3     1  UNL1        0.0004
     28 C           7.4737    1.8093   -0.9598 C.3     1  UNL1        0.0004
     29 C           4.7113    1.1460   -0.9554 C.ar    1  UNL1        0.0372
     30 C           3.3641    0.8089   -1.0126 C.ar    1  UNL1        0.2820
     31 N           2.8099    0.4543   -2.2996 N.pl3   1  UNL1        0.0803
     32 O           1.6327    0.7099   -2.5480 O.2     1  UNL1        0.0415
     33 O           3.6053   -0.1623   -3.2254 O.co2   1  UNL1       -0.5760
     34 C           1.5765   -1.8336   -0.2548 C.3     1  UNL1        0.0277
     35 H          -0.0818   -4.1984    0.6127 H       1  UNL1        0.0391
     36 H           1.7201   -4.0760    0.8467 H       1  UNL1        0.0391
     37 H           1.0435   -5.0397   -0.4871 H       1  UNL1        0.0391
     38 H          -0.7416   -3.8770   -1.5258 H       1  UNL1        0.0477
     39 H          -0.0274   -2.6601   -2.5951 H       1  UNL1        0.0477
     40 H          -2.8270   -2.7594   -2.0210 H       1  UNL1        0.0630
     41 H          -2.4196    0.7522   -1.5921 H       1  UNL1        0.0626
     42 H          -4.1118    2.2902   -0.6684 H       1  UNL1        0.0636
     43 H          -8.1273    1.9722    1.6765 H       1  UNL1        0.0428
     44 H          -7.9641    0.4510    0.7368 H       1  UNL1        0.0428
     45 H          -7.1186    0.6517    2.3398 H       1  UNL1        0.0428
     46 H          -5.3293    3.4701    1.1386 H       1  UNL1        0.0428
     47 H          -5.9645    3.3467   -0.5856 H       1  UNL1        0.0428
     48 H          -7.1286    3.6047    0.7206 H       1  UNL1        0.0428
     49 H          -6.3592   -0.9607    0.8907 H       1  UNL1        0.0704
     50 H           0.4408    1.3590    0.3367 H       1  UNL1        0.0630
     51 H           2.6463    1.3188    2.2195 H       1  UNL1        0.0626
     52 H           5.0542    1.9143    2.2810 H       1  UNL1        0.0636
     53 H           6.8920    3.2788    1.8131 H       1  UNL1        0.0428
     54 H           8.4133    2.3083    1.4401 H       1  UNL1        0.0428
     55 H           7.0678    1.5554    2.3156 H       1  UNL1        0.0428
     56 H           8.5342    2.1012   -0.7736 H       1  UNL1        0.0428
     57 H           7.5241    0.7621   -1.3676 H       1  UNL1        0.0428
     58 H           7.0768    2.5036   -1.7324 H       1  UNL1        0.0428
     59 H           5.2904    1.0907   -1.8698 H       1  UNL1        0.0704
     60 H           1.8487   -2.1292    0.8293 H       1  UNL1        0.0477
     61 H           2.5691   -1.6150   -0.6786 H       1  UNL1        0.0477
@<TRIPOS>UNITY_ATOM_ATTR
15 1
charge 1
17 1
charge -1
31 1
charge 1
33 1
charge -1
@<TRIPOS>BOND
     1     1     2    1
     2     2     3    1
     3     3     4    1
     4     4     5    2
     5     5     6    1
     6     6     7   ar
     7     7     8   ar
     8     8     9   ar
     9     9    10    1
    10    10    11    1
    11    10    12    1
    12     9    13   ar
    13    13    14   ar
    14    14    15    1
    15    15    16    2
    16    15    17    1
    17     4    18    1
    18    18    19    2
    19    18    20    1
    20    20    21    2
    21    21    22    1
    22    22    23   ar
    23    23    24   ar
    24    24    25   ar
    25    25    26    1
    26    26    27    1
    27    26    28    1
    28    25    29   ar
    29    29    30   ar
    30    30    31    1
    31    31    32    2
    32    31    33    1
    33    20    34    1
    34    34     2    1
    35    14     6   ar
    36    30    22   ar
    37     1    35    1
    38     1    36    1
    39     1    37    1
    40     3    38    1
    41     3    39    1
    42     5    40    1
    43     7    41    1
    44     8    42    1
    45    11    43    1
    46    11    44    1
    47    11    45    1
    48    12    46    1
    49    12    47    1
    50    12    48    1
    51    13    49    1
    52    21    50    1
    53    23    51    1
    54    24    52    1
    55    27    53    1
    56    27    54    1
    57    27    55    1
    58    28    56    1
    59    28    57    1
    60    28    58    1
    61    29    59    1
    62    34    60    1
    63    34    61    1
