@<TRIPOS>MOLECULE
*****
 64 69 0 0 0
SMALL
GASTEIGER

@<TRIPOS>ATOM
      1 O           5.3151    0.0917    0.5382 O.2     1  UNL1       -0.2522
      2 C           5.7546    0.0962   -0.6326 C.2     1  UNL1        0.3081
      3 N           7.1655    0.1235   -0.8096 N.am    1  UNL1       -0.2691
      4 C           8.0054    0.1456    0.3211 C.ar    1  UNL1        0.0376
      5 C           8.4096    1.3289    0.8898 C.ar    1  UNL1       -0.0223
      6 C           9.2442    1.3365    2.0157 C.ar    1  UNL1        0.0293
      7 N           9.6488    0.1670    2.5374 N.ar    1  UNL1       -0.2631
      8 C           9.2741   -1.0208    2.0078 C.ar    1  UNL1        0.0293
      9 C           8.4429   -1.0275    0.8869 C.ar    1  UNL1       -0.0223
     10 N           4.8391    0.0741   -1.7278 N.am    1  UNL1       -0.2692
     11 C           3.4337    0.0473   -1.4757 C.ar    1  UNL1        0.0348
     12 C           2.7012   -1.1060   -1.3438 C.ar    1  UNL1       -0.0398
     13 C           1.3447   -1.1067   -1.0991 C.ar    1  UNL1       -0.0493
     14 C           0.6617    0.0842   -0.9755 C.ar    1  UNL1        0.0194
     15 C          -0.7606    0.1579   -0.7162 C.ar    1  UNL1        0.1668
     16 N          -1.3390    1.3596   -0.6075 N.ar    1  UNL1       -0.1945
     17 C          -2.6666    1.4554   -0.3652 C.ar    1  UNL1        0.2228
     18 N          -3.2181    2.7448   -0.2610 N.pl3   1  UNL1       -0.2951
     19 C          -4.6254    2.9100    0.0099 C.3     1  UNL1        0.0384
     20 C          -4.9746    4.3902    0.0240 C.3     1  UNL1        0.0635
     21 O          -4.1247    5.1692    0.7506 O.3     1  UNL1       -0.3767
     22 C          -2.7994    4.8405    0.7519 C.3     1  UNL1        0.0635
     23 C          -2.4401    3.9459   -0.4127 C.3     1  UNL1        0.0384
     24 N          -3.3762    0.3257   -0.2389 N.ar    1  UNL1       -0.1808
     25 C          -2.8497   -0.9214   -0.3383 C.ar    1  UNL1        0.2233
     26 N          -3.6171   -2.0846   -0.2002 N.pl3   1  UNL1       -0.2890
     27 C          -5.0275   -2.1466    0.0806 C.3     1  UNL1        0.0500
     28 C          -5.4701   -3.0460   -1.0835 C.3     1  UNL1       -0.0304
     29 C          -4.3400   -4.0580   -1.1307 C.3     1  UNL1       -0.0304
     30 C          -3.1947   -3.4560   -0.3033 C.3     1  UNL1        0.0500
     31 C          -3.2962   -4.1450    1.0593 C.3     1  UNL1        0.0663
     32 O          -3.9418   -3.2705    1.9298 O.3     1  UNL1       -0.3761
     33 C          -5.1700   -2.9362    1.3682 C.3     1  UNL1        0.0663
     34 N          -1.5080   -0.9505   -0.5829 N.ar    1  UNL1       -0.1945
     35 C           1.3760    1.2511   -1.1042 C.ar    1  UNL1       -0.0493
     36 C           2.7403    1.2428   -1.3504 C.ar    1  UNL1       -0.0398
     37 H           7.5613    0.1267   -1.7903 H       1  UNL1        0.1564
     38 H           8.1179    2.2962    0.5165 H       1  UNL1        0.0651
     39 H           9.5805    2.2446    2.4874 H       1  UNL1        0.0830
     40 H           9.6204   -1.9428    2.4569 H       1  UNL1        0.0830
     41 H           8.1633   -1.9780    0.4900 H       1  UNL1        0.0651
     42 H           5.2353    0.0790   -2.6929 H       1  UNL1        0.1564
     43 H           3.2149   -2.0534   -1.4371 H       1  UNL1        0.0636
     44 H           0.7820   -2.0483   -0.9979 H       1  UNL1        0.0625
     45 H          -4.9432    2.4627    0.9628 H       1  UNL1        0.0487
     46 H          -5.2233    2.4809   -0.8355 H       1  UNL1        0.0487
     47 H          -5.0489    4.7559   -1.0378 H       1  UNL1        0.0575
     48 H          -5.9971    4.4679    0.4430 H       1  UNL1        0.0575
     49 H          -2.2079    5.7791    0.7362 H       1  UNL1        0.0575
     50 H          -2.5055    4.3239    1.7101 H       1  UNL1        0.0575
     51 H          -2.7440    4.4922   -1.3426 H       1  UNL1        0.0487
     52 H          -1.3433    3.7786   -0.3983 H       1  UNL1        0.0487
     53 H          -5.5384   -1.1887    0.0872 H       1  UNL1        0.0523
     54 H          -5.4304   -2.4684   -2.0166 H       1  UNL1        0.0284
     55 H          -6.4520   -3.5092   -0.8701 H       1  UNL1        0.0284
     56 H          -4.0058   -4.2437   -2.1794 H       1  UNL1        0.0284
     57 H          -4.7247   -4.9946   -0.6816 H       1  UNL1        0.0284
     58 H          -2.2247   -3.6107   -0.7720 H       1  UNL1        0.0523
     59 H          -3.8979   -5.0613    1.0248 H       1  UNL1        0.0578
     60 H          -2.2718   -4.3892    1.3883 H       1  UNL1        0.0578
     61 H          -5.8083   -2.3617    2.0764 H       1  UNL1        0.0578
     62 H          -5.7043   -3.8800    1.1641 H       1  UNL1        0.0578
     63 H           0.9058    2.2381   -1.0184 H       1  UNL1        0.0625
     64 H           3.2726    2.1919   -1.4461 H       1  UNL1        0.0636
@<TRIPOS>BOND
     1     1     2    2
     2     2     3   am
     3     3     4    1
     4     4     5   ar
     5     5     6   ar
     6     6     7   ar
     7     7     8   ar
     8     8     9   ar
     9     2    10   am
    10    10    11    1
    11    11    12   ar
    12    12    13   ar
    13    13    14   ar
    14    14    15    1
    15    15    16   ar
    16    16    17   ar
    17    17    18    1
    18    18    19    1
    19    19    20    1
    20    20    21    1
    21    21    22    1
    22    22    23    1
    23    17    24   ar
    24    24    25   ar
    25    25    26    1
    26    26    27    1
    27    27    28    1
    28    28    29    1
    29    29    30    1
    30    30    31    1
    31    31    32    1
    32    32    33    1
    33    25    34   ar
    34    14    35   ar
    35    35    36   ar
    36     9     4   ar
    37    36    11   ar
    38    34    15   ar
    39    23    18    1
    40    30    26    1
    41    33    27    1
    42     3    37    1
    43     5    38    1
    44     6    39    1
    45     8    40    1
    46     9    41    1
    47    10    42    1
    48    12    43    1
    49    13    44    1
    50    19    45    1
    51    19    46    1
    52    20    47    1
    53    20    48    1
    54    22    49    1
    55    22    50    1
    56    23    51    1
    57    23    52    1
    58    27    53    1
    59    28    54    1
    60    28    55    1
    61    29    56    1
    62    29    57    1
    63    30    58    1
    64    31    59    1
    65    31    60    1
    66    33    61    1
    67    33    62    1
    68    35    63    1
    69    36    64    1
