
     RDKit          3D

 64 69  0  0  0  0  0  0  0  0999 V2000
    5.3151    0.0917    0.5382 O   0  0  0  0  0  0  0  0  0  0  0  0
    5.7546    0.0962   -0.6326 C   0  0  0  0  0  0  0  0  0  0  0  0
    7.1655    0.1235   -0.8096 N   0  0  0  0  0  0  0  0  0  0  0  0
    8.0054    0.1456    0.3211 C   0  0  0  0  0  0  0  0  0  0  0  0
    8.4096    1.3289    0.8898 C   0  0  0  0  0  0  0  0  0  0  0  0
    9.2442    1.3365    2.0157 C   0  0  0  0  0  0  0  0  0  0  0  0
    9.6488    0.1670    2.5374 N   0  0  0  0  0  0  0  0  0  0  0  0
    9.2741   -1.0208    2.0078 C   0  0  0  0  0  0  0  0  0  0  0  0
    8.4429   -1.0275    0.8869 C   0  0  0  0  0  0  0  0  0  0  0  0
    4.8391    0.0741   -1.7278 N   0  0  0  0  0  0  0  0  0  0  0  0
    3.4337    0.0473   -1.4757 C   0  0  0  0  0  0  0  0  0  0  0  0
    2.7012   -1.1060   -1.3438 C   0  0  0  0  0  0  0  0  0  0  0  0
    1.3447   -1.1067   -1.0991 C   0  0  0  0  0  0  0  0  0  0  0  0
    0.6617    0.0842   -0.9755 C   0  0  0  0  0  0  0  0  0  0  0  0
   -0.7606    0.1579   -0.7162 C   0  0  0  0  0  0  0  0  0  0  0  0
   -1.3390    1.3596   -0.6075 N   0  0  0  0  0  0  0  0  0  0  0  0
   -2.6666    1.4554   -0.3652 C   0  0  0  0  0  0  0  0  0  0  0  0
   -3.2181    2.7448   -0.2610 N   0  0  0  0  0  0  0  0  0  0  0  0
   -4.6254    2.9100    0.0099 C   0  0  0  0  0  0  0  0  0  0  0  0
   -4.9746    4.3902    0.0240 C   0  0  0  0  0  0  0  0  0  0  0  0
   -4.1247    5.1692    0.7506 O   0  0  0  0  0  0  0  0  0  0  0  0
   -2.7994    4.8405    0.7519 C   0  0  0  0  0  0  0  0  0  0  0  0
   -2.4401    3.9459   -0.4127 C   0  0  0  0  0  0  0  0  0  0  0  0
   -3.3762    0.3257   -0.2389 N   0  0  0  0  0  0  0  0  0  0  0  0
   -2.8497   -0.9214   -0.3383 C   0  0  0  0  0  0  0  0  0  0  0  0
   -3.6171   -2.0846   -0.2002 N   0  0  0  0  0  0  0  0  0  0  0  0
   -5.0275   -2.1466    0.0806 C   0  0  0  0  0  0  0  0  0  0  0  0
   -5.4701   -3.0460   -1.0835 C   0  0  0  0  0  0  0  0  0  0  0  0
   -4.3400   -4.0580   -1.1307 C   0  0  0  0  0  0  0  0  0  0  0  0
   -3.1947   -3.4560   -0.3033 C   0  0  0  0  0  0  0  0  0  0  0  0
   -3.2962   -4.1450    1.0593 C   0  0  0  0  0  0  0  0  0  0  0  0
   -3.9418   -3.2705    1.9298 O   0  0  0  0  0  0  0  0  0  0  0  0
   -5.1700   -2.9362    1.3682 C   0  0  0  0  0  0  0  0  0  0  0  0
   -1.5080   -0.9505   -0.5829 N   0  0  0  0  0  0  0  0  0  0  0  0
    1.3760    1.2511   -1.1042 C   0  0  0  0  0  0  0  0  0  0  0  0
    2.7403    1.2428   -1.3504 C   0  0  0  0  0  0  0  0  0  0  0  0
    7.5613    0.1267   -1.7903 H   0  0  0  0  0  0  0  0  0  0  0  0
    8.1179    2.2962    0.5165 H   0  0  0  0  0  0  0  0  0  0  0  0
    9.5805    2.2446    2.4874 H   0  0  0  0  0  0  0  0  0  0  0  0
    9.6204   -1.9428    2.4569 H   0  0  0  0  0  0  0  0  0  0  0  0
    8.1633   -1.9780    0.4900 H   0  0  0  0  0  0  0  0  0  0  0  0
    5.2353    0.0790   -2.6929 H   0  0  0  0  0  0  0  0  0  0  0  0
    3.2149   -2.0534   -1.4371 H   0  0  0  0  0  0  0  0  0  0  0  0
    0.7820   -2.0483   -0.9979 H   0  0  0  0  0  0  0  0  0  0  0  0
   -4.9432    2.4627    0.9628 H   0  0  0  0  0  0  0  0  0  0  0  0
   -5.2233    2.4809   -0.8355 H   0  0  0  0  0  0  0  0  0  0  0  0
   -5.0489    4.7559   -1.0378 H   0  0  0  0  0  0  0  0  0  0  0  0
   -5.9971    4.4679    0.4430 H   0  0  0  0  0  0  0  0  0  0  0  0
   -2.2079    5.7791    0.7362 H   0  0  0  0  0  0  0  0  0  0  0  0
   -2.5055    4.3239    1.7101 H   0  0  0  0  0  0  0  0  0  0  0  0
   -2.7440    4.4922   -1.3426 H   0  0  0  0  0  0  0  0  0  0  0  0
   -1.3433    3.7786   -0.3983 H   0  0  0  0  0  0  0  0  0  0  0  0
   -5.5384   -1.1887    0.0872 H   0  0  0  0  0  0  0  0  0  0  0  0
   -5.4304   -2.4684   -2.0166 H   0  0  0  0  0  0  0  0  0  0  0  0
   -6.4520   -3.5092   -0.8701 H   0  0  0  0  0  0  0  0  0  0  0  0
   -4.0058   -4.2437   -2.1794 H   0  0  0  0  0  0  0  0  0  0  0  0
   -4.7247   -4.9946   -0.6816 H   0  0  0  0  0  0  0  0  0  0  0  0
   -2.2247   -3.6107   -0.7720 H   0  0  0  0  0  0  0  0  0  0  0  0
   -3.8979   -5.0613    1.0248 H   0  0  0  0  0  0  0  0  0  0  0  0
   -2.2718   -4.3892    1.3883 H   0  0  0  0  0  0  0  0  0  0  0  0
   -5.8083   -2.3617    2.0764 H   0  0  0  0  0  0  0  0  0  0  0  0
   -5.7043   -3.8800    1.1641 H   0  0  0  0  0  0  0  0  0  0  0  0
    0.9058    2.2381   -1.0184 H   0  0  0  0  0  0  0  0  0  0  0  0
    3.2726    2.1919   -1.4461 H   0  0  0  0  0  0  0  0  0  0  0  0
  1  2  2  0
  2  3  1  0
  3  4  1  0
  4  5  2  0
  5  6  1  0
  6  7  2  0
  7  8  1  0
  8  9  2  0
  2 10  1  0
 10 11  1  0
 11 12  2  0
 12 13  1  0
 13 14  2  0
 14 15  1  0
 15 16  2  0
 16 17  1  0
 17 18  1  0
 18 19  1  0
 19 20  1  0
 20 21  1  0
 21 22  1  0
 22 23  1  0
 17 24  2  0
 24 25  1  0
 25 26  1  0
 26 27  1  0
 27 28  1  0
 28 29  1  0
 29 30  1  0
 30 31  1  0
 31 32  1  0
 32 33  1  0
 25 34  2  0
 14 35  1  0
 35 36  2  0
  9  4  1  0
 36 11  1  0
 34 15  1  0
 23 18  1  0
 30 26  1  0
 33 27  1  0
  3 37  1  0
  5 38  1  0
  6 39  1  0
  8 40  1  0
  9 41  1  0
 10 42  1  0
 12 43  1  0
 13 44  1  0
 19 45  1  0
 19 46  1  0
 20 47  1  0
 20 48  1  0
 22 49  1  0
 22 50  1  0
 23 51  1  0
 23 52  1  0
 27 53  1  0
 28 54  1  0
 28 55  1  0
 29 56  1  0
 29 57  1  0
 30 58  1  0
 31 59  1  0
 31 60  1  0
 33 61  1  0
 33 62  1  0
 35 63  1  0
 36 64  1  0
M  END
$$$$
