@<TRIPOS>MOLECULE
*****
 19 20 0 0 0
SMALL
GASTEIGER

@<TRIPOS>ATOM
      1 C           4.0957   -0.5130    0.1710 C.3     1  UNL1       -0.0107
      2 S           3.0698   -0.1449   -1.2586 S.3     1  UNL1       -0.0913
      3 C           1.3429   -0.2328   -0.8033 C.ar    1  UNL1        0.1671
      4 N           0.4225   -1.2287   -0.7990 N.ar    1  UNL1       -0.2208
      5 C          -0.7471   -0.7005   -0.3429 C.ar    1  UNL1        0.1061
      6 C          -0.5529    0.6550   -0.0561 C.ar    1  UNL1        0.0832
      7 N           0.7393    0.8745   -0.3582 N.ar    1  UNL1       -0.3320
      8 C          -1.6296    1.3776    0.4231 C.ar    1  UNL1        0.0583
      9 BR         -1.3467    3.2252    0.8090 Br      1  UNL1       -0.0469
     10 C          -2.8749    0.8306    0.6299 C.ar    1  UNL1        0.0489
     11 BR         -4.3221    1.8938    1.2972 Br      1  UNL1       -0.0479
     12 C          -3.0602   -0.4960    0.3480 C.ar    1  UNL1        0.0490
     13 BR         -4.7930   -1.2784    0.6305 Br      1  UNL1       -0.0479
     14 C          -2.0024   -1.2449   -0.1326 C.ar    1  UNL1        0.0603
     15 BR         -2.3156   -3.0959   -0.5110 Br      1  UNL1       -0.0469
     16 H           3.6952   -1.3886    0.7049 H       1  UNL1        0.0345
     17 H           4.0491    0.3504    0.8935 H       1  UNL1        0.0345
     18 H           5.1420   -0.7463   -0.1092 H       1  UNL1        0.0345
     19 H           1.0879    1.8629   -0.2064 H       1  UNL1        0.1679
@<TRIPOS>BOND
     1     1     2    1
     2     2     3    1
     3     3     4   ar
     4     4     5   ar
     5     5     6   ar
     6     6     7   ar
     7     6     8   ar
     8     8     9    1
     9     8    10   ar
    10    10    11    1
    11    10    12   ar
    12    12    13    1
    13    12    14   ar
    14    14    15    1
    15     7     3   ar
    16    14     5   ar
    17     1    16    1
    18     1    17    1
    19     1    18    1
    20     7    19    1
