
     RDKit          3D

 19 20  0  0  0  0  0  0  0  0999 V2000
    4.0957   -0.5130    0.1710 C   0  0  0  0  0  0  0  0  0  0  0  0
    3.0698   -0.1449   -1.2586 S   0  0  0  0  0  0  0  0  0  0  0  0
    1.3429   -0.2328   -0.8033 C   0  0  0  0  0  0  0  0  0  0  0  0
    0.4225   -1.2287   -0.7990 N   0  0  0  0  0  0  0  0  0  0  0  0
   -0.7471   -0.7005   -0.3429 C   0  0  0  0  0  0  0  0  0  0  0  0
   -0.5529    0.6550   -0.0561 C   0  0  0  0  0  0  0  0  0  0  0  0
    0.7393    0.8745   -0.3582 N   0  0  0  0  0  0  0  0  0  0  0  0
   -1.6296    1.3776    0.4231 C   0  0  0  0  0  0  0  0  0  0  0  0
   -1.3467    3.2252    0.8090 Br  0  0  0  0  0  0  0  0  0  0  0  0
   -2.8749    0.8306    0.6299 C   0  0  0  0  0  0  0  0  0  0  0  0
   -4.3221    1.8938    1.2972 Br  0  0  0  0  0  0  0  0  0  0  0  0
   -3.0602   -0.4960    0.3480 C   0  0  0  0  0  0  0  0  0  0  0  0
   -4.7930   -1.2784    0.6305 Br  0  0  0  0  0  0  0  0  0  0  0  0
   -2.0024   -1.2449   -0.1326 C   0  0  0  0  0  0  0  0  0  0  0  0
   -2.3156   -3.0959   -0.5110 Br  0  0  0  0  0  0  0  0  0  0  0  0
    3.6952   -1.3886    0.7049 H   0  0  0  0  0  0  0  0  0  0  0  0
    4.0491    0.3504    0.8935 H   0  0  0  0  0  0  0  0  0  0  0  0
    5.1420   -0.7463   -0.1092 H   0  0  0  0  0  0  0  0  0  0  0  0
    1.0879    1.8629   -0.2064 H   0  0  0  0  0  0  0  0  0  0  0  0
  1  2  1  0
  2  3  1  0
  3  4  2  0
  4  5  1  0
  5  6  2  0
  6  7  1  0
  6  8  1  0
  8  9  1  0
  8 10  2  0
 10 11  1  0
 10 12  1  0
 12 13  1  0
 12 14  2  0
 14 15  1  0
  7  3  1  0
 14  5  1  0
  1 16  1  0
  1 17  1  0
  1 18  1  0
  7 19  1  0
M  END
$$$$
