
     RDKit          3D

 52 55  0  0  0  0  0  0  0  0999 V2000
    4.7624   -0.8029   -3.0002 O   0  0  0  0  0  0  0  0  0  0  0  0
    4.8364   -0.5874   -1.7621 C   0  0  0  0  0  0  0  0  0  0  0  0
    6.0872   -0.1876   -1.2341 N   0  0  0  0  0  0  0  0  0  0  0  0
    7.1822   -0.0361   -2.0208 O   0  0  0  0  0  0  0  0  0  0  0  0
    3.6535   -0.7570   -0.9498 C   0  0  0  0  0  0  0  0  0  0  0  0
    3.6534   -0.5420    0.4026 C   0  0  0  0  0  0  0  0  0  0  0  0
    2.4914   -0.7144    1.1642 C   0  0  0  0  0  0  0  0  0  0  0  0
    1.3273   -1.0963    0.6038 C   0  0  0  0  0  0  0  0  0  0  0  0
    0.0808   -1.2397    1.4037 C   0  0  0  0  0  0  0  0  0  0  0  0
   -0.9196   -0.2203    1.1879 N   0  0  0  0  0  0  0  0  0  0  0  0
   -0.3884    1.0938    1.4291 C   0  0  0  0  0  0  0  0  0  0  0  0
    0.4551    1.1666    2.5072 C   0  0  0  0  0  0  0  0  0  0  0  0
    1.0358    2.3540    2.8599 C   0  0  0  0  0  0  0  0  0  0  0  0
    0.7860    3.5231    2.1339 C   0  0  0  0  0  0  0  0  0  0  0  0
   -0.0793    3.4140    1.0413 C   0  0  0  0  0  0  0  0  0  0  0  0
   -0.6559    2.2185    0.6967 C   0  0  0  0  0  0  0  0  0  0  0  0
   -1.7051    2.4309   -0.6915 S   0  0  0  0  0  6  0  0  0  0  0  0
   -1.0474    1.8199   -1.8655 O   0  0  0  0  0  0  0  0  0  0  0  0
   -2.0022    3.8733   -0.9443 O   0  0  0  0  0  0  0  0  0  0  0  0
   -3.1692    1.5707   -0.1899 C   0  0  0  0  0  0  0  0  0  0  0  0
   -3.0236    0.1082   -0.1791 C   0  0  1  0  0  0  0  0  0  0  0  0
   -2.8373   -0.4965   -1.5802 C   0  0  0  0  0  0  0  0  0  0  0  0
   -3.6826   -1.7789   -1.6461 C   0  0  0  0  0  0  0  0  0  0  0  0
   -3.6822   -2.3689   -0.2712 C   0  0  0  0  0  0  0  0  0  0  0  0
   -2.3038   -2.0809    0.3777 C   0  0  0  0  0  0  0  0  0  0  0  0
   -2.2421   -0.6213    0.7958 C   0  0  1  0  0  0  0  0  0  0  0  0
    1.2905   -1.3219   -0.7536 C   0  0  0  0  0  0  0  0  0  0  0  0
    2.4391   -1.1497   -1.4913 C   0  0  0  0  0  0  0  0  0  0  0  0
    6.2197    0.0047   -0.2350 H   0  0  0  0  0  0  0  0  0  0  0  0
    7.7571    0.6838   -1.6646 H   0  0  0  0  0  0  0  0  0  0  0  0
    4.5783   -0.2297    0.8970 H   0  0  0  0  0  0  0  0  0  0  0  0
    2.6224   -0.5434    2.2152 H   0  0  0  0  0  0  0  0  0  0  0  0
   -0.3425   -2.1911    1.0149 H   0  0  0  0  0  0  0  0  0  0  0  0
    0.2690   -1.5083    2.4585 H   0  0  0  0  0  0  0  0  0  0  0  0
    0.6301    0.2862    3.0563 H   0  0  0  0  0  0  0  0  0  0  0  0
    1.7068    2.4639    3.6992 H   0  0  0  0  0  0  0  0  0  0  0  0
    1.2361    4.4709    2.3975 H   0  0  0  0  0  0  0  0  0  0  0  0
   -0.2615    4.3365    0.4882 H   0  0  0  0  0  0  0  0  0  0  0  0
   -3.4738    1.9054    0.8212 H   0  0  0  0  0  0  0  0  0  0  0  0
   -3.9674    1.8482   -0.9142 H   0  0  0  0  0  0  0  0  0  0  0  0
   -4.1163   -0.2072    0.0383 H   0  0  0  0  0  0  0  0  0  0  0  0
   -1.8059   -0.7956   -1.7759 H   0  0  0  0  0  0  0  0  0  0  0  0
   -3.2637    0.1812   -2.3416 H   0  0  0  0  0  0  0  0  0  0  0  0
   -3.2733   -2.4636   -2.4193 H   0  0  0  0  0  0  0  0  0  0  0  0
   -4.7286   -1.4700   -1.8782 H   0  0  0  0  0  0  0  0  0  0  0  0
   -4.5153   -2.1494    0.3725 H   0  0  0  0  0  0  0  0  0  0  0  0
   -3.6670   -3.4909   -0.4083 H   0  0  0  0  0  0  0  0  0  0  0  0
   -2.2726   -2.7754    1.2337 H   0  0  0  0  0  0  0  0  0  0  0  0
   -1.6305   -2.3398   -0.4584 H   0  0  0  0  0  0  0  0  0  0  0  0
   -2.8540   -0.6373    1.7679 H   0  0  0  0  0  0  0  0  0  0  0  0
    0.3745   -1.6271   -1.2386 H   0  0  0  0  0  0  0  0  0  0  0  0
    2.4358   -1.3233   -2.5746 H   0  0  0  0  0  0  0  0  0  0  0  0
  1  2  2  0
  2  3  1  0
  3  4  1  0
  2  5  1  0
  5  6  2  0
  6  7  1  0
  7  8  2  0
  8  9  1  0
  9 10  1  0
 10 11  1  0
 11 12  2  0
 12 13  1  0
 13 14  2  0
 14 15  1  0
 15 16  2  0
 16 17  1  0
 17 18  2  0
 17 19  2  0
 17 20  1  0
 20 21  1  0
 21 22  1  0
 22 23  1  0
 23 24  1  0
 24 25  1  0
 25 26  1  0
  8 27  1  0
 27 28  2  0
 28  5  1  0
 26 10  1  0
 16 11  1  0
 26 21  1  0
  3 29  1  0
  4 30  1  0
  6 31  1  0
  7 32  1  0
  9 33  1  0
  9 34  1  0
 12 35  1  0
 13 36  1  0
 14 37  1  0
 15 38  1  0
 20 39  1  0
 20 40  1  0
 21 41  1  1
 22 42  1  0
 22 43  1  0
 23 44  1  0
 23 45  1  0
 24 46  1  0
 24 47  1  0
 25 48  1  0
 25 49  1  0
 26 50  1  1
 27 51  1  0
 28 52  1  0
M  END
$$$$
