@<TRIPOS>MOLECULE
*****
 52 55 0 0 0
SMALL
GASTEIGER

@<TRIPOS>ATOM
      1 O           4.7624   -0.8029   -3.0002 O.2     1  UNL1       -0.2681
      2 C           4.8364   -0.5874   -1.7621 C.2     1  UNL1        0.2665
      3 N           6.0872   -0.1876   -1.2341 N.am    1  UNL1       -0.1935
      4 O           7.1822   -0.0361   -2.0208 O.3     1  UNL1       -0.2949
      5 C           3.6535   -0.7570   -0.9498 C.ar    1  UNL1        0.0387
      6 C           3.6534   -0.5420    0.4026 C.ar    1  UNL1       -0.0493
      7 C           2.4914   -0.7144    1.1642 C.ar    1  UNL1       -0.0564
      8 C           1.3273   -1.0963    0.6038 C.ar    1  UNL1       -0.0301
      9 C           0.0808   -1.2397    1.4037 C.3     1  UNL1        0.0376
     10 N          -0.9196   -0.2203    1.1879 N.pl3   1  UNL1       -0.3207
     11 C          -0.3884    1.0938    1.4291 C.ar    1  UNL1        0.0553
     12 C           0.4551    1.1666    2.5072 C.ar    1  UNL1       -0.0388
     13 C           1.0358    2.3540    2.8599 C.ar    1  UNL1       -0.0599
     14 C           0.7860    3.5231    2.1339 C.ar    1  UNL1       -0.0598
     15 C          -0.0793    3.4140    1.0413 C.ar    1  UNL1       -0.0351
     16 C          -0.6559    2.2185    0.6967 C.ar    1  UNL1        0.1091
     17 S          -1.7051    2.4309   -0.6915 S.O2    1  UNL1       -0.0010
     18 O          -1.0474    1.8199   -1.8655 O.2     1  UNL1       -0.1693
     19 O          -2.0022    3.8733   -0.9443 O.2     1  UNL1       -0.1693
     20 C          -3.1692    1.5707   -0.1899 C.3     1  UNL1        0.0754
     21 C          -3.0236    0.1082   -0.1791 C.3     1  UNL1       -0.0027
     22 C          -2.8373   -0.4965   -1.5802 C.3     1  UNL1       -0.0470
     23 C          -3.6826   -1.7789   -1.6461 C.3     1  UNL1       -0.0526
     24 C          -3.6822   -2.3689   -0.2712 C.3     1  UNL1       -0.0514
     25 C          -2.3038   -2.0809    0.3777 C.3     1  UNL1       -0.0341
     26 C          -2.2421   -0.6213    0.7958 C.3     1  UNL1        0.0282
     27 C           1.2905   -1.3219   -0.7536 C.ar    1  UNL1       -0.0564
     28 C           2.4391   -1.1497   -1.4913 C.ar    1  UNL1       -0.0493
     29 H           6.2197    0.0047   -0.2350 H       1  UNL1        0.1825
     30 H           7.7571    0.6838   -1.6646 H       1  UNL1        0.2414
     31 H           4.5783   -0.2297    0.8970 H       1  UNL1        0.0625
     32 H           2.6224   -0.5434    2.2152 H       1  UNL1        0.0621
     33 H          -0.3425   -2.1911    1.0149 H       1  UNL1        0.0513
     34 H           0.2690   -1.5083    2.4585 H       1  UNL1        0.0513
     35 H           0.6301    0.2862    3.0563 H       1  UNL1        0.0637
     36 H           1.7068    2.4639    3.6992 H       1  UNL1        0.0618
     37 H           1.2361    4.4709    2.3975 H       1  UNL1        0.0618
     38 H          -0.2615    4.3365    0.4882 H       1  UNL1        0.0637
     39 H          -3.4738    1.9054    0.8212 H       1  UNL1        0.0507
     40 H          -3.9674    1.8482   -0.9142 H       1  UNL1        0.0507
     41 H          -4.1163   -0.2072    0.0383 H       1  UNL1        0.0334
     42 H          -1.8059   -0.7956   -1.7759 H       1  UNL1        0.0269
     43 H          -3.2637    0.1812   -2.3416 H       1  UNL1        0.0269
     44 H          -3.2733   -2.4636   -2.4193 H       1  UNL1        0.0265
     45 H          -4.7286   -1.4700   -1.8782 H       1  UNL1        0.0265
     46 H          -4.5153   -2.1494    0.3725 H       1  UNL1        0.0266
     47 H          -3.6670   -3.4909   -0.4083 H       1  UNL1        0.0266
     48 H          -2.2726   -2.7754    1.2337 H       1  UNL1        0.0283
     49 H          -1.6305   -2.3398   -0.4584 H       1  UNL1        0.0283
     50 H          -2.8540   -0.6373    1.7679 H       1  UNL1        0.0503
     51 H           0.3745   -1.6271   -1.2386 H       1  UNL1        0.0621
     52 H           2.4358   -1.3233   -2.5746 H       1  UNL1        0.0625
@<TRIPOS>BOND
     1     1     2    2
     2     2     3   am
     3     3     4    1
     4     2     5    1
     5     5     6   ar
     6     6     7   ar
     7     7     8   ar
     8     8     9    1
     9     9    10    1
    10    10    11    1
    11    11    12   ar
    12    12    13   ar
    13    13    14   ar
    14    14    15   ar
    15    15    16   ar
    16    16    17    1
    17    17    18    2
    18    17    19    2
    19    17    20    1
    20    20    21    1
    21    21    22    1
    22    22    23    1
    23    23    24    1
    24    24    25    1
    25    25    26    1
    26     8    27   ar
    27    27    28   ar
    28    28     5   ar
    29    26    10    1
    30    16    11   ar
    31    26    21    1
    32     3    29    1
    33     4    30    1
    34     6    31    1
    35     7    32    1
    36     9    33    1
    37     9    34    1
    38    12    35    1
    39    13    36    1
    40    14    37    1
    41    15    38    1
    42    20    39    1
    43    20    40    1
    44    21    41    1
    45    22    42    1
    46    22    43    1
    47    23    44    1
    48    23    45    1
    49    24    46    1
    50    24    47    1
    51    25    48    1
    52    25    49    1
    53    26    50    1
    54    27    51    1
    55    28    52    1
