@<TRIPOS>MOLECULE
*****
 56 60 0 0 0
SMALL
GASTEIGER

@<TRIPOS>ATOM
      1 C          -2.6928   -0.9948   -3.9359 C.3     1  UNL1       -0.0375
      2 C          -2.4525   -0.7992   -2.5005 C.ar    1  UNL1       -0.0200
      3 C          -3.4552   -0.6315   -1.5457 C.ar    1  UNL1        0.0179
      4 N          -2.9113   -0.4747   -0.3188 N.ar    1  UNL1       -0.2721
      5 C          -3.5132   -0.2934    0.9403 C.2     1  UNL1        0.3208
      6 O          -2.7541   -0.1761    1.9731 O.2     1  UNL1       -0.2490
      7 N          -4.8741   -0.2262    1.1917 N.am    1  UNL1       -0.2892
      8 C          -5.9715   -0.3196    0.2706 C.3     1  UNL1        0.0045
      9 C          -5.3208   -0.0296    2.6094 C.3     1  UNL1        0.0045
     10 C          -1.5361   -0.5438   -0.5163 C.ar    1  UNL1        0.0654
     11 C          -1.2585   -0.7446   -1.8417 C.ar    1  UNL1        0.0635
     12 C           0.1948   -0.8596   -1.9414 C.2     1  UNL1        0.2538
     13 O           0.8330   -1.0455   -3.0116 O.2     1  UNL1       -0.2695
     14 N           0.7773   -0.7303   -0.6514 N.am    1  UNL1       -0.2530
     15 C           2.1809   -0.9040   -0.3548 C.ar    1  UNL1        0.0545
     16 C           2.6784   -2.1380    0.0362 C.ar    1  UNL1       -0.0324
     17 C           4.0128   -2.3509    0.3162 C.ar    1  UNL1       -0.0041
     18 C           4.5213   -3.7031    0.7383 C.3     1  UNL1       -0.0361
     19 C           4.8573   -1.2666    0.1909 C.ar    1  UNL1        0.1641
     20 N           6.1871   -1.1766    0.3950 N.ar    1  UNL1       -0.1292
     21 N           6.5719    0.0653    0.1523 N.ar    1  UNL1       -0.1340
     22 C           5.4828    0.7678   -0.2075 C.ar    1  UNL1        0.1347
     23 C           5.3846    2.2013   -0.5799 C.3     1  UNL1       -0.0041
     24 N           4.4033   -0.0526   -0.1877 N.ar    1  UNL1       -0.2846
     25 C           3.0963    0.1218   -0.4535 C.ar    1  UNL1        0.0344
     26 C          -0.2877   -0.4163    0.2591 C.3     1  UNL1        0.0977
     27 C          -0.1671    1.0111    0.7261 C.ar    1  UNL1       -0.0208
     28 C          -1.0663    1.9913    0.3657 C.ar    1  UNL1       -0.0550
     29 C          -1.0125    3.2978    0.7771 C.ar    1  UNL1       -0.0431
     30 C           0.0248    3.6548    1.6172 C.ar    1  UNL1        0.0410
     31 CL          0.1305    5.3297    2.1703 Cl      1  UNL1       -0.0835
     32 C           0.9589    2.7226    2.0160 C.ar    1  UNL1       -0.0431
     33 C           0.8610    1.4019    1.5697 C.ar    1  UNL1       -0.0550
     34 H          -1.9791   -0.4282   -4.5760 H       1  UNL1        0.0278
     35 H          -3.7477   -0.7722   -4.1930 H       1  UNL1        0.0278
     36 H          -2.5453   -2.0730   -4.2398 H       1  UNL1        0.0278
     37 H          -4.5153   -0.6272   -1.7559 H       1  UNL1        0.0817
     38 H          -5.9484    0.5429   -0.4260 H       1  UNL1        0.0429
     39 H          -6.0752   -1.2883   -0.2387 H       1  UNL1        0.0429
     40 H          -6.9692   -0.1925    0.8160 H       1  UNL1        0.0429
     41 H          -5.6006    1.0385    2.6868 H       1  UNL1        0.0429
     42 H          -6.1646   -0.7221    2.7852 H       1  UNL1        0.0429
     43 H          -4.5068   -0.3268    3.2785 H       1  UNL1        0.0429
     44 H           1.9651   -2.9433    0.1145 H       1  UNL1        0.0640
     45 H           4.1167   -4.4900    0.0555 H       1  UNL1        0.0279
     46 H           4.1745   -3.9507    1.7487 H       1  UNL1        0.0279
     47 H           5.6058   -3.6938    0.6090 H       1  UNL1        0.0279
     48 H           4.5791    2.3336   -1.3221 H       1  UNL1        0.0308
     49 H           6.3214    2.5697   -1.0569 H       1  UNL1        0.0308
     50 H           5.2159    2.8480    0.3069 H       1  UNL1        0.0308
     51 H           2.7379    1.0939   -0.7557 H       1  UNL1        0.0833
     52 H          -0.2819   -1.1039    1.1425 H       1  UNL1        0.0620
     53 H          -1.8889    1.7287   -0.3005 H       1  UNL1        0.0621
     54 H          -1.7475    4.0419    0.4664 H       1  UNL1        0.0632
     55 H           1.7752    3.0253    2.6833 H       1  UNL1        0.0632
     56 H           1.5952    0.7010    1.9030 H       1  UNL1        0.0621
@<TRIPOS>BOND
     1     1     2    1
     2     2     3   ar
     3     3     4   ar
     4     4     5   am
     5     5     6    2
     6     5     7   am
     7     7     8    1
     8     7     9    1
     9     4    10   ar
    10    10    11   ar
    11    11    12    1
    12    12    13    2
    13    12    14   am
    14    14    15    1
    15    15    16   ar
    16    16    17   ar
    17    17    18    1
    18    17    19   ar
    19    19    20   ar
    20    20    21   ar
    21    21    22   ar
    22    22    23    1
    23    22    24   ar
    24    24    25   ar
    25    14    26    1
    26    26    27    1
    27    27    28   ar
    28    28    29   ar
    29    29    30   ar
    30    30    31    1
    31    30    32   ar
    32    32    33   ar
    33    11     2   ar
    34    25    15   ar
    35    33    27   ar
    36    26    10    1
    37    24    19   ar
    38     1    34    1
    39     1    35    1
    40     1    36    1
    41     3    37    1
    42     8    38    1
    43     8    39    1
    44     8    40    1
    45     9    41    1
    46     9    42    1
    47     9    43    1
    48    16    44    1
    49    18    45    1
    50    18    46    1
    51    18    47    1
    52    23    48    1
    53    23    49    1
    54    23    50    1
    55    25    51    1
    56    26    52    1
    57    28    53    1
    58    29    54    1
    59    32    55    1
    60    33    56    1
