
     RDKit          3D

 56 60  0  0  0  0  0  0  0  0999 V2000
   -2.6928   -0.9948   -3.9359 C   0  0  0  0  0  0  0  0  0  0  0  0
   -2.4525   -0.7992   -2.5005 C   0  0  0  0  0  0  0  0  0  0  0  0
   -3.4552   -0.6315   -1.5457 C   0  0  0  0  0  0  0  0  0  0  0  0
   -2.9113   -0.4747   -0.3188 N   0  0  0  0  0  0  0  0  0  0  0  0
   -3.5132   -0.2934    0.9403 C   0  0  0  0  0  0  0  0  0  0  0  0
   -2.7541   -0.1761    1.9731 O   0  0  0  0  0  0  0  0  0  0  0  0
   -4.8741   -0.2262    1.1917 N   0  0  0  0  0  0  0  0  0  0  0  0
   -5.9715   -0.3196    0.2706 C   0  0  0  0  0  0  0  0  0  0  0  0
   -5.3208   -0.0296    2.6094 C   0  0  0  0  0  0  0  0  0  0  0  0
   -1.5361   -0.5438   -0.5163 C   0  0  0  0  0  0  0  0  0  0  0  0
   -1.2585   -0.7446   -1.8417 C   0  0  0  0  0  0  0  0  0  0  0  0
    0.1948   -0.8596   -1.9414 C   0  0  0  0  0  0  0  0  0  0  0  0
    0.8330   -1.0455   -3.0116 O   0  0  0  0  0  0  0  0  0  0  0  0
    0.7773   -0.7303   -0.6514 N   0  0  0  0  0  0  0  0  0  0  0  0
    2.1809   -0.9040   -0.3548 C   0  0  0  0  0  0  0  0  0  0  0  0
    2.6784   -2.1380    0.0362 C   0  0  0  0  0  0  0  0  0  0  0  0
    4.0128   -2.3509    0.3162 C   0  0  0  0  0  0  0  0  0  0  0  0
    4.5213   -3.7031    0.7383 C   0  0  0  0  0  0  0  0  0  0  0  0
    4.8573   -1.2666    0.1909 C   0  0  0  0  0  0  0  0  0  0  0  0
    6.1871   -1.1766    0.3950 N   0  0  0  0  0  0  0  0  0  0  0  0
    6.5719    0.0653    0.1523 N   0  0  0  0  0  0  0  0  0  0  0  0
    5.4828    0.7678   -0.2075 C   0  0  0  0  0  0  0  0  0  0  0  0
    5.3846    2.2013   -0.5799 C   0  0  0  0  0  0  0  0  0  0  0  0
    4.4033   -0.0526   -0.1877 N   0  0  0  0  0  0  0  0  0  0  0  0
    3.0963    0.1218   -0.4535 C   0  0  0  0  0  0  0  0  0  0  0  0
   -0.2877   -0.4163    0.2591 C   0  0  0  0  0  0  0  0  0  0  0  0
   -0.1671    1.0111    0.7261 C   0  0  0  0  0  0  0  0  0  0  0  0
   -1.0663    1.9913    0.3657 C   0  0  0  0  0  0  0  0  0  0  0  0
   -1.0125    3.2978    0.7771 C   0  0  0  0  0  0  0  0  0  0  0  0
    0.0248    3.6548    1.6172 C   0  0  0  0  0  0  0  0  0  0  0  0
    0.1305    5.3297    2.1703 Cl  0  0  0  0  0  0  0  0  0  0  0  0
    0.9589    2.7226    2.0160 C   0  0  0  0  0  0  0  0  0  0  0  0
    0.8610    1.4019    1.5697 C   0  0  0  0  0  0  0  0  0  0  0  0
   -1.9791   -0.4282   -4.5760 H   0  0  0  0  0  0  0  0  0  0  0  0
   -3.7477   -0.7722   -4.1930 H   0  0  0  0  0  0  0  0  0  0  0  0
   -2.5453   -2.0730   -4.2398 H   0  0  0  0  0  0  0  0  0  0  0  0
   -4.5153   -0.6272   -1.7559 H   0  0  0  0  0  0  0  0  0  0  0  0
   -5.9484    0.5429   -0.4260 H   0  0  0  0  0  0  0  0  0  0  0  0
   -6.0752   -1.2883   -0.2387 H   0  0  0  0  0  0  0  0  0  0  0  0
   -6.9692   -0.1925    0.8160 H   0  0  0  0  0  0  0  0  0  0  0  0
   -5.6006    1.0385    2.6868 H   0  0  0  0  0  0  0  0  0  0  0  0
   -6.1646   -0.7221    2.7852 H   0  0  0  0  0  0  0  0  0  0  0  0
   -4.5068   -0.3268    3.2785 H   0  0  0  0  0  0  0  0  0  0  0  0
    1.9651   -2.9433    0.1145 H   0  0  0  0  0  0  0  0  0  0  0  0
    4.1167   -4.4900    0.0555 H   0  0  0  0  0  0  0  0  0  0  0  0
    4.1745   -3.9507    1.7487 H   0  0  0  0  0  0  0  0  0  0  0  0
    5.6058   -3.6938    0.6090 H   0  0  0  0  0  0  0  0  0  0  0  0
    4.5791    2.3336   -1.3221 H   0  0  0  0  0  0  0  0  0  0  0  0
    6.3214    2.5697   -1.0569 H   0  0  0  0  0  0  0  0  0  0  0  0
    5.2159    2.8480    0.3069 H   0  0  0  0  0  0  0  0  0  0  0  0
    2.7379    1.0939   -0.7557 H   0  0  0  0  0  0  0  0  0  0  0  0
   -0.2819   -1.1039    1.1425 H   0  0  0  0  0  0  0  0  0  0  0  0
   -1.8889    1.7287   -0.3005 H   0  0  0  0  0  0  0  0  0  0  0  0
   -1.7475    4.0419    0.4664 H   0  0  0  0  0  0  0  0  0  0  0  0
    1.7752    3.0253    2.6833 H   0  0  0  0  0  0  0  0  0  0  0  0
    1.5952    0.7010    1.9030 H   0  0  0  0  0  0  0  0  0  0  0  0
  1  2  1  0
  2  3  2  0
  3  4  1  0
  4  5  1  0
  5  6  2  0
  5  7  1  0
  7  8  1  0
  7  9  1  0
  4 10  1  0
 10 11  2  0
 11 12  1  0
 12 13  2  0
 12 14  1  0
 14 15  1  0
 15 16  1  0
 16 17  2  0
 17 18  1  0
 17 19  1  0
 19 20  2  0
 20 21  1  0
 21 22  2  0
 22 23  1  0
 22 24  1  0
 24 25  1  0
 14 26  1  0
 26 27  1  0
 27 28  2  0
 28 29  1  0
 29 30  2  0
 30 31  1  0
 30 32  1  0
 32 33  2  0
 11  2  1  0
 25 15  2  0
 33 27  1  0
 26 10  1  0
 24 19  1  0
  1 34  1  0
  1 35  1  0
  1 36  1  0
  3 37  1  0
  8 38  1  0
  8 39  1  0
  8 40  1  0
  9 41  1  0
  9 42  1  0
  9 43  1  0
 16 44  1  0
 18 45  1  0
 18 46  1  0
 18 47  1  0
 23 48  1  0
 23 49  1  0
 23 50  1  0
 25 51  1  0
 26 52  1  0
 28 53  1  0
 29 54  1  0
 32 55  1  0
 33 56  1  0
M  END
$$$$
