@<TRIPOS>MOLECULE
*****
 54 58 0 0 0
SMALL
GASTEIGER

@<TRIPOS>ATOM
      1 C           2.9625    0.2887    2.7671 C.3     1  UNL1       -0.0377
      2 C           3.9650    0.0048    1.6917 C.ar    1  UNL1       -0.0249
      3 C           5.1424   -0.6520    1.9850 C.ar    1  UNL1       -0.0568
      4 C           6.0668   -0.9144    0.9943 C.ar    1  UNL1       -0.0614
      5 C           5.7680   -0.4986   -0.2810 C.ar    1  UNL1       -0.0597
      6 C           4.5917    0.1565   -0.5690 C.ar    1  UNL1       -0.0359
      7 C           3.6502    0.4283    0.4183 C.ar    1  UNL1        0.0721
      8 N           2.4267    1.0996    0.1586 N.ar    1  UNL1       -0.1960
      9 N           1.2767    0.5040    0.0745 N.ar    1  UNL1       -0.1631
     10 C           0.0921    1.1395   -0.1748 C.ar    1  UNL1        0.0974
     11 C          -1.1399    0.3893   -0.2546 C.ar    1  UNL1        0.0690
     12 C          -2.4187    0.8034   -0.4889 C.ar    1  UNL1        0.1038
     13 C          -2.9403    2.1329   -0.7225 C.ar    1  UNL1        0.0030
     14 C          -3.3466    2.9257    0.3266 C.ar    1  UNL1       -0.0498
     15 C          -3.8699    4.1958    0.1145 C.ar    1  UNL1       -0.0258
     16 C          -3.9849    4.6718   -1.1664 C.ar    1  UNL1        0.1234
     17 F          -4.4996    5.9197   -1.3669 F       1  UNL1       -0.2055
     18 C          -3.5863    3.9007   -2.2368 C.ar    1  UNL1       -0.0258
     19 C          -3.0623    2.6244   -1.9980 C.ar    1  UNL1       -0.0498
     20 N          -3.1972   -0.3316   -0.4579 N.ar    1  UNL1       -0.1689
     21 N          -2.4994   -1.3922   -0.2252 N.ar    1  UNL1       -0.2492
     22 C          -1.2133   -0.9976   -0.0909 C.ar    1  UNL1        0.1269
     23 N          -0.2468   -2.0024    0.1765 N.pl3   1  UNL1       -0.3283
     24 C          -0.4197   -3.3872   -0.2071 C.3     1  UNL1        0.0170
     25 C          -1.7517   -3.6013   -0.8393 C.3     1  UNL1        0.0173
     26 C          -2.1251   -5.0709   -0.7765 C.3     1  UNL1        0.0501
     27 O          -3.3492   -5.3324   -1.3466 O.3     1  UNL1       -0.3946
     28 C          -2.8332   -2.8202   -0.0976 C.3     1  UNL1        0.0499
     29 C           0.1765    2.4949   -0.3397 C.ar    1  UNL1       -0.0287
     30 C           1.3906    3.1873   -0.2591 C.ar    1  UNL1        0.0068
     31 C           2.4982    2.4417   -0.0062 C.ar    1  UNL1        0.2719
     32 O           3.6087    3.0602    0.0694 O.2     1  UNL1       -0.2658
     33 H           2.4403    1.2308    2.5125 H       1  UNL1        0.0278
     34 H           2.2307   -0.5453    2.7825 H       1  UNL1        0.0278
     35 H           3.4539    0.4527    3.7462 H       1  UNL1        0.0278
     36 H           5.3480   -0.9705    3.0180 H       1  UNL1        0.0621
     37 H           6.9969   -1.4361    1.2390 H       1  UNL1        0.0618
     38 H           6.4712   -0.6912   -1.0681 H       1  UNL1        0.0618
     39 H           4.3379    0.4949   -1.5807 H       1  UNL1        0.0639
     40 H          -3.2646    2.5707    1.3389 H       1  UNL1        0.0625
     41 H          -4.1859    4.8125    0.9301 H       1  UNL1        0.0646
     42 H          -3.6828    4.2880   -3.2373 H       1  UNL1        0.0646
     43 H          -2.7703    2.0722   -2.8616 H       1  UNL1        0.0625
     44 H           0.6327   -1.6882    0.6853 H       1  UNL1        0.1475
     45 H           0.3880   -3.6320   -0.9277 H       1  UNL1        0.0466
     46 H          -0.3274   -4.0687    0.6762 H       1  UNL1        0.0466
     47 H          -1.7405   -3.2946   -1.9031 H       1  UNL1        0.0356
     48 H          -2.0978   -5.3953    0.2653 H       1  UNL1        0.0561
     49 H          -1.3607   -5.6461   -1.3473 H       1  UNL1        0.0561
     50 H          -4.0950   -5.0786   -0.7165 H       1  UNL1        0.2094
     51 H          -3.7854   -3.0488   -0.6030 H       1  UNL1        0.0513
     52 H          -2.8359   -3.1394    0.9494 H       1  UNL1        0.0513
     53 H          -0.6920    3.0843   -0.5410 H       1  UNL1        0.0641
     54 H           1.4067    4.2603   -0.3968 H       1  UNL1        0.0673
@<TRIPOS>BOND
     1     1     2    1
     2     2     3   ar
     3     3     4   ar
     4     4     5   ar
     5     5     6   ar
     6     6     7   ar
     7     7     8    1
     8     8     9   ar
     9     9    10   ar
    10    10    11    1
    11    11    12   ar
    12    12    13    1
    13    13    14   ar
    14    14    15   ar
    15    15    16   ar
    16    16    17    1
    17    16    18   ar
    18    18    19   ar
    19    12    20   ar
    20    20    21   ar
    21    21    22   ar
    22    22    23    1
    23    23    24    1
    24    24    25    1
    25    25    26    1
    26    26    27    1
    27    25    28    1
    28    10    29   ar
    29    29    30   ar
    30    30    31   ar
    31    31    32    2
    32     7     2   ar
    33    31     8   ar
    34    22    11   ar
    35    19    13   ar
    36    28    21    1
    37     1    33    1
    38     1    34    1
    39     1    35    1
    40     3    36    1
    41     4    37    1
    42     5    38    1
    43     6    39    1
    44    14    40    1
    45    15    41    1
    46    18    42    1
    47    19    43    1
    48    23    44    1
    49    24    45    1
    50    24    46    1
    51    25    47    1
    52    26    48    1
    53    26    49    1
    54    27    50    1
    55    28    51    1
    56    28    52    1
    57    29    53    1
    58    30    54    1
