
     RDKit          3D

 26 25  0  0  0  0  0  0  0  0999 V2000
    3.9405    0.9816   -0.3447 N   0  0  0  0  0  0  0  0  0  0  0  0
    3.0702   -0.1628   -0.3422 C   0  0  0  0  0  0  0  0  0  0  0  0
    2.1065   -0.0275    0.8369 C   0  0  0  0  0  0  0  0  0  0  0  0
    1.1653   -1.2374    0.8657 C   0  0  0  0  0  0  0  0  0  0  0  0
    0.1925   -1.3649   -0.6555 S   0  0  0  0  0  0  0  0  0  0  0  0
   -0.9620    0.0193   -0.8210 C   0  0  0  0  0  0  0  0  0  0  0  0
   -2.0329   -0.0218    0.2574 C   0  0  2  0  0  0  0  0  0  0  0  0
   -2.8242   -1.2026    0.2355 N   0  0  0  0  0  0  0  0  0  0  0  0
   -2.8600    1.2341    0.1616 C   0  0  0  0  0  0  0  0  0  0  0  0
   -3.6051    1.3068   -0.9897 O   0  0  0  0  0  0  0  0  0  0  0  0
    3.4700    1.8004   -0.7878 H   0  0  0  0  0  0  0  0  0  0  0  0
    4.8188    0.7037   -0.8424 H   0  0  0  0  0  0  0  0  0  0  0  0
    3.6938   -1.0849   -0.1720 H   0  0  0  0  0  0  0  0  0  0  0  0
    2.4880   -0.2583   -1.2716 H   0  0  0  0  0  0  0  0  0  0  0  0
    2.7055   -0.0686    1.7535 H   0  0  0  0  0  0  0  0  0  0  0  0
    1.5088    0.8874    0.7066 H   0  0  0  0  0  0  0  0  0  0  0  0
    0.4653   -1.0846    1.7069 H   0  0  0  0  0  0  0  0  0  0  0  0
    1.7448   -2.1702    0.9686 H   0  0  0  0  0  0  0  0  0  0  0  0
   -1.3787    0.0404   -1.8335 H   0  0  0  0  0  0  0  0  0  0  0  0
   -0.3846    0.9524   -0.6521 H   0  0  0  0  0  0  0  0  0  0  0  0
   -1.4686    0.0005    1.2230 H   0  0  0  0  0  0  0  0  0  0  0  0
   -3.1866   -1.4755   -0.6961 H   0  0  0  0  0  0  0  0  0  0  0  0
   -2.4380   -1.9981    0.7838 H   0  0  0  0  0  0  0  0  0  0  0  0
   -3.5692    1.2960    1.0285 H   0  0  0  0  0  0  0  0  0  0  0  0
   -2.1994    2.1224    0.2363 H   0  0  0  0  0  0  0  0  0  0  0  0
   -4.4608    0.8121   -0.9493 H   0  0  0  0  0  0  0  0  0  0  0  0
  1  2  1  0
  2  3  1  0
  3  4  1  0
  4  5  1  0
  5  6  1  0
  6  7  1  0
  7  8  1  0
  7  9  1  0
  9 10  1  0
  1 11  1  0
  1 12  1  0
  2 13  1  0
  2 14  1  0
  3 15  1  0
  3 16  1  0
  4 17  1  0
  4 18  1  0
  6 19  1  0
  6 20  1  0
  7 21  1  1
  8 22  1  0
  8 23  1  0
  9 24  1  0
  9 25  1  0
 10 26  1  0
M  END
$$$$
