
     RDKit          3D

 65 70  0  0  0  0  0  0  0  0999 V2000
   -8.6963   -2.1404    0.4898 C   0  0  0  0  0  0  0  0  0  0  0  0
   -7.3597   -1.6537    0.6810 N   0  0  0  0  0  0  0  0  0  0  0  0
   -7.0554   -0.9195    1.8826 C   0  0  0  0  0  0  0  0  0  0  0  0
   -6.3683   -1.8946   -0.2844 C   0  0  0  0  0  0  0  0  0  0  0  0
   -6.7239   -2.5649   -1.3208 O   0  0  0  0  0  0  0  0  0  0  0  0
   -4.9772   -1.4289   -0.1751 C   0  0  0  0  0  0  0  0  0  0  0  0
   -3.8423   -2.2235   -0.0860 C   0  0  0  0  0  0  0  0  0  0  0  0
   -2.7368   -1.4357   -0.0121 C   0  0  0  0  0  0  0  0  0  0  0  0
   -1.3703   -1.6337    0.0818 C   0  0  0  0  0  0  0  0  0  0  0  0
   -0.5128   -0.6005    0.1262 N   0  0  0  0  0  0  0  0  0  0  0  0
   -0.9602    0.6882    0.0807 C   0  0  0  0  0  0  0  0  0  0  0  0
   -0.0359    1.7722    0.0823 N   0  0  0  0  0  0  0  0  0  0  0  0
    1.3558    1.5166    0.0857 C   0  0  0  0  0  0  0  0  0  0  0  0
    2.2521    2.5725    0.0128 C   0  0  0  0  0  0  0  0  0  0  0  0
    3.6097    2.2849   -0.0023 C   0  0  0  0  0  0  0  0  0  0  0  0
    4.0275    0.9628    0.0574 C   0  0  0  0  0  0  0  0  0  0  0  0
    5.3971    0.6027   -0.0072 N   0  0  0  0  0  0  0  0  0  0  0  0
    5.8716    0.2432   -1.3309 C   0  0  0  0  0  0  0  0  0  0  0  0
    6.9275   -0.8235   -1.2879 C   0  0  2  0  0  0  0  0  0  0  0  0
    6.7039   -1.8600   -0.2133 C   0  0  0  0  0  0  0  0  0  0  0  0
    7.8884   -1.7477    0.7306 C   0  0  0  0  0  0  0  0  0  0  0  0
    8.3593   -0.3432    0.4189 C   0  0  2  0  0  0  0  0  0  0  0  0
    7.6432    0.6510    1.2883 C   0  0  0  0  0  0  0  0  0  0  0  0
    6.1858    0.6049    1.1551 C   0  0  0  0  0  0  0  0  0  0  0  0
    5.5521    0.5618    2.2359 O   0  0  0  0  0  0  0  0  0  0  0  0
    8.1764   -0.1501   -0.9913 N   0  0  0  0  0  0  0  0  0  0  0  0
    3.0923   -0.0482    0.1307 C   0  0  0  0  0  0  0  0  0  0  0  0
    1.7773    0.2394    0.1432 N   0  0  0  0  0  0  0  0  0  0  0  0
   -2.2758    0.8555   -0.0069 N   0  0  0  0  0  0  0  0  0  0  0  0
   -3.1801   -0.1355   -0.0551 C   0  0  0  0  0  0  0  0  0  0  0  0
   -4.5370   -0.1670   -0.1526 N   0  0  0  0  0  0  0  0  0  0  0  0
   -5.3414    1.0499   -0.2183 C   0  0  0  0  0  0  0  0  0  0  0  0
   -6.2559    1.1844   -1.3889 C   0  0  0  0  0  0  0  0  0  0  0  0
   -5.7961    2.6440   -1.5112 C   0  0  0  0  0  0  0  0  0  0  0  0
   -4.5195    2.1999   -0.8206 C   0  0  0  0  0  0  0  0  0  0  0  0
   -9.4329   -1.3000    0.5885 H   0  0  0  0  0  0  0  0  0  0  0  0
   -8.8393   -2.6825   -0.4677 H   0  0  0  0  0  0  0  0  0  0  0  0
   -8.9423   -2.8081    1.3573 H   0  0  0  0  0  0  0  0  0  0  0  0
   -5.9841   -0.7786    2.0800 H   0  0  0  0  0  0  0  0  0  0  0  0
   -7.5130   -1.3598    2.7911 H   0  0  0  0  0  0  0  0  0  0  0  0
   -7.4825    0.1119    1.7091 H   0  0  0  0  0  0  0  0  0  0  0  0
   -3.8147   -3.3070   -0.0736 H   0  0  0  0  0  0  0  0  0  0  0  0
   -1.0299   -2.6443    0.1176 H   0  0  0  0  0  0  0  0  0  0  0  0
   -0.3774    2.7522    0.0796 H   0  0  0  0  0  0  0  0  0  0  0  0
    1.8851    3.5739   -0.0304 H   0  0  0  0  0  0  0  0  0  0  0  0
    4.3506    3.0533   -0.0627 H   0  0  0  0  0  0  0  0  0  0  0  0
    6.2646    1.0951   -1.9061 H   0  0  0  0  0  0  0  0  0  0  0  0
    4.9902   -0.1809   -1.8787 H   0  0  0  0  0  0  0  0  0  0  0  0
    7.0032   -1.2947   -2.2667 H   0  0  0  0  0  0  0  0  0  0  0  0
    5.7686   -1.6752    0.3374 H   0  0  0  0  0  0  0  0  0  0  0  0
    6.7036   -2.8780   -0.6588 H   0  0  0  0  0  0  0  0  0  0  0  0
    8.6383   -2.5226    0.4811 H   0  0  0  0  0  0  0  0  0  0  0  0
    7.5219   -1.8460    1.7737 H   0  0  0  0  0  0  0  0  0  0  0  0
    9.4379   -0.2915    0.6457 H   0  0  0  0  0  0  0  0  0  0  0  0
    7.9228    0.4611    2.3398 H   0  0  0  0  0  0  0  0  0  0  0  0
    7.9595    1.7031    1.0570 H   0  0  0  0  0  0  0  0  0  0  0  0
    8.1434    0.8565   -1.2134 H   0  0  0  0  0  0  0  0  0  0  0  0
    3.4497   -1.0787    0.1794 H   0  0  0  0  0  0  0  0  0  0  0  0
   -5.7061    1.4068    0.7605 H   0  0  0  0  0  0  0  0  0  0  0  0
   -7.3406    1.1320   -1.1872 H   0  0  0  0  0  0  0  0  0  0  0  0
   -5.9018    0.5928   -2.2521 H   0  0  0  0  0  0  0  0  0  0  0  0
   -6.3769    3.3657   -0.9057 H   0  0  0  0  0  0  0  0  0  0  0  0
   -5.6667    2.9993   -2.5462 H   0  0  0  0  0  0  0  0  0  0  0  0
   -4.0849    2.8976   -0.1058 H   0  0  0  0  0  0  0  0  0  0  0  0
   -3.8216    1.7832   -1.5968 H   0  0  0  0  0  0  0  0  0  0  0  0
  1  2  1  0
  2  3  1  0
  2  4  1  0
  4  5  2  0
  4  6  1  0
  6  7  2  0
  7  8  1  0
  8  9  2  0
  9 10  1  0
 10 11  2  0
 11 12  1  0
 12 13  1  0
 13 14  2  0
 14 15  1  0
 15 16  2  0
 16 17  1  0
 17 18  1  0
 18 19  1  0
 19 20  1  0
 20 21  1  0
 21 22  1  0
 22 23  1  0
 23 24  1  0
 24 25  2  0
 22 26  1  0
 16 27  1  0
 27 28  2  0
 11 29  1  0
 29 30  2  0
 30 31  1  0
 31 32  1  0
 32 33  1  0
 33 34  1  0
 34 35  1  0
 31  6  1  0
 35 32  1  0
 30  8  1  0
 28 13  1  0
 24 17  1  0
 26 19  1  0
  1 36  1  0
  1 37  1  0
  1 38  1  0
  3 39  1  0
  3 40  1  0
  3 41  1  0
  7 42  1  0
  9 43  1  0
 12 44  1  0
 14 45  1  0
 15 46  1  0
 18 47  1  0
 18 48  1  0
 19 49  1  6
 20 50  1  0
 20 51  1  0
 21 52  1  0
 21 53  1  0
 22 54  1  6
 23 55  1  0
 23 56  1  0
 26 57  1  0
 27 58  1  0
 32 59  1  0
 33 60  1  0
 33 61  1  0
 34 62  1  0
 34 63  1  0
 35 64  1  0
 35 65  1  0
M  END
$$$$
