@<TRIPOS>MOLECULE
*****
 65 70 0 0 0
SMALL
GASTEIGER

@<TRIPOS>ATOM
      1 C          -8.6963   -2.1404    0.4898 C.3     1  UNL1        0.0032
      2 N          -7.3597   -1.6537    0.6810 N.am    1  UNL1       -0.3024
      3 C          -7.0554   -0.9195    1.8826 C.3     1  UNL1        0.0032
      4 C          -6.3683   -1.8946   -0.2844 C.2     1  UNL1        0.2627
      5 O          -6.7239   -2.5649   -1.3208 O.2     1  UNL1       -0.2684
      6 C          -4.9772   -1.4289   -0.1751 C.ar    1  UNL1        0.1070
      7 C          -3.8423   -2.2235   -0.0860 C.ar    1  UNL1       -0.0209
      8 C          -2.7368   -1.4357   -0.0121 C.ar    1  UNL1        0.0378
      9 C          -1.3703   -1.6337    0.0818 C.ar    1  UNL1        0.0419
     10 N          -0.5128   -0.6005    0.1262 N.ar    1  UNL1       -0.2219
     11 C          -0.9602    0.6882    0.0807 C.ar    1  UNL1        0.2224
     12 N          -0.0359    1.7722    0.0823 N.pl3   1  UNL1       -0.2684
     13 C           1.3558    1.5166    0.0857 C.ar    1  UNL1        0.1251
     14 C           2.2521    2.5725    0.0128 C.ar    1  UNL1       -0.0197
     15 C           3.6097    2.2849   -0.0023 C.ar    1  UNL1       -0.0355
     16 C           4.0275    0.9628    0.0574 C.ar    1  UNL1        0.0545
     17 N           5.3971    0.6027   -0.0072 N.am    1  UNL1       -0.2685
     18 C           5.8716    0.2432   -1.3309 C.3     1  UNL1        0.0352
     19 C           6.9275   -0.8235   -1.2879 C.3     1  UNL1        0.0241
     20 C           6.7039   -1.8600   -0.2133 C.3     1  UNL1       -0.0347
     21 C           7.8884   -1.7477    0.7306 C.3     1  UNL1       -0.0356
     22 C           8.3593   -0.3432    0.4189 C.3     1  UNL1        0.0162
     23 C           7.6432    0.6510    1.2883 C.3     1  UNL1        0.0399
     24 C           6.1858    0.6049    1.1551 C.2     1  UNL1        0.2213
     25 O           5.5521    0.5618    2.2359 O.2     1  UNL1       -0.2752
     26 N           8.1764   -0.1501   -0.9913 N.3     1  UNL1       -0.3086
     27 C           3.0923   -0.0482    0.1307 C.ar    1  UNL1        0.0511
     28 N           1.7773    0.2394    0.1432 N.ar    1  UNL1       -0.2383
     29 N          -2.2758    0.8555   -0.0069 N.ar    1  UNL1       -0.1962
     30 C          -3.1801   -0.1355   -0.0551 C.ar    1  UNL1        0.1466
     31 N          -4.5370   -0.1670   -0.1526 N.ar    1  UNL1       -0.3180
     32 C          -5.3414    1.0499   -0.2183 C.3     1  UNL1        0.0366
     33 C          -6.2559    1.1844   -1.3889 C.3     1  UNL1       -0.0320
     34 C          -5.7961    2.6440   -1.5112 C.3     1  UNL1       -0.0493
     35 C          -4.5195    2.1999   -0.8206 C.3     1  UNL1       -0.0320
     36 H          -9.4329   -1.3000    0.5885 H       1  UNL1        0.0428
     37 H          -8.8393   -2.6825   -0.4677 H       1  UNL1        0.0428
     38 H          -8.9423   -2.8081    1.3573 H       1  UNL1        0.0428
     39 H          -5.9841   -0.7786    2.0800 H       1  UNL1        0.0428
     40 H          -7.5130   -1.3598    2.7911 H       1  UNL1        0.0428
     41 H          -7.4825    0.1119    1.7091 H       1  UNL1        0.0428
     42 H          -3.8147   -3.3070   -0.0736 H       1  UNL1        0.0647
     43 H          -1.0299   -2.6443    0.1176 H       1  UNL1        0.0838
     44 H          -0.3774    2.7522    0.0796 H       1  UNL1        0.1564
     45 H           1.8851    3.5739   -0.0304 H       1  UNL1        0.0652
     46 H           4.3506    3.0533   -0.0627 H       1  UNL1        0.0638
     47 H           6.2646    1.0951   -1.9061 H       1  UNL1        0.0484
     48 H           4.9902   -0.1809   -1.8787 H       1  UNL1        0.0484
     49 H           7.0032   -1.2947   -2.2667 H       1  UNL1        0.0476
     50 H           5.7686   -1.6752    0.3374 H       1  UNL1        0.0281
     51 H           6.7036   -2.8780   -0.6588 H       1  UNL1        0.0281
     52 H           8.6383   -2.5226    0.4811 H       1  UNL1        0.0281
     53 H           7.5219   -1.8460    1.7737 H       1  UNL1        0.0281
     54 H           9.4379   -0.2915    0.6457 H       1  UNL1        0.0465
     55 H           7.9228    0.4611    2.3398 H       1  UNL1        0.0374
     56 H           7.9595    1.7031    1.0570 H       1  UNL1        0.0374
     57 H           8.1434    0.8565   -1.2134 H       1  UNL1        0.1225
     58 H           3.4497   -1.0787    0.1794 H       1  UNL1        0.0849
     59 H          -5.7061    1.4068    0.7605 H       1  UNL1        0.0528
     60 H          -7.3406    1.1320   -1.1872 H       1  UNL1        0.0285
     61 H          -5.9018    0.5928   -2.2521 H       1  UNL1        0.0285
     62 H          -6.3769    3.3657   -0.9057 H       1  UNL1        0.0267
     63 H          -5.6667    2.9993   -2.5462 H       1  UNL1        0.0267
     64 H          -4.0849    2.8976   -0.1058 H       1  UNL1        0.0285
     65 H          -3.8216    1.7832   -1.5968 H       1  UNL1        0.0285
@<TRIPOS>BOND
     1     1     2    1
     2     2     3    1
     3     2     4   am
     4     4     5    2
     5     4     6    1
     6     6     7   ar
     7     7     8   ar
     8     8     9   ar
     9     9    10   ar
    10    10    11   ar
    11    11    12    1
    12    12    13    1
    13    13    14   ar
    14    14    15   ar
    15    15    16   ar
    16    16    17    1
    17    17    18    1
    18    18    19    1
    19    19    20    1
    20    20    21    1
    21    21    22    1
    22    22    23    1
    23    23    24    1
    24    24    25    2
    25    22    26    1
    26    16    27   ar
    27    27    28   ar
    28    11    29   ar
    29    29    30   ar
    30    30    31   ar
    31    31    32    1
    32    32    33    1
    33    33    34    1
    34    34    35    1
    35    31     6   ar
    36    35    32    1
    37    30     8   ar
    38    28    13   ar
    39    24    17   am
    40    26    19    1
    41     1    36    1
    42     1    37    1
    43     1    38    1
    44     3    39    1
    45     3    40    1
    46     3    41    1
    47     7    42    1
    48     9    43    1
    49    12    44    1
    50    14    45    1
    51    15    46    1
    52    18    47    1
    53    18    48    1
    54    19    49    1
    55    20    50    1
    56    20    51    1
    57    21    52    1
    58    21    53    1
    59    22    54    1
    60    23    55    1
    61    23    56    1
    62    26    57    1
    63    27    58    1
    64    32    59    1
    65    33    60    1
    66    33    61    1
    67    34    62    1
    68    34    63    1
    69    35    64    1
    70    35    65    1
