@<TRIPOS>MOLECULE
*****
 38 41 0 0 0
SMALL
GASTEIGER

@<TRIPOS>ATOM
      1 C          -2.3578    1.5713   -1.1361 C.3     1  UNL1        0.0038
      2 N          -2.4972    0.4908   -0.1650 N.am    1  UNL1       -0.2962
      3 C          -1.4442    0.1529    0.7084 C.2     1  UNL1        0.2671
      4 O          -1.4763   -0.7465    1.5600 O.2     1  UNL1       -0.2682
      5 C          -0.1881    0.9130    0.6271 C.ar    1  UNL1        0.1538
      6 N          -0.0256    2.2246    0.8685 N.ar    1  UNL1       -0.2211
      7 C           1.2823    2.5360    0.6852 C.ar    1  UNL1        0.1556
      8 C           1.9832    3.7253    0.7994 C.ar    1  UNL1       -0.0159
      9 C           3.3397    3.7809    0.5541 C.ar    1  UNL1       -0.0384
     10 C           3.9435    2.5943    0.1935 C.ar    1  UNL1        0.0485
     11 N           3.2130    1.4735    0.0990 N.ar    1  UNL1       -0.1729
     12 N           1.9055    1.4105    0.3335 N.ar    1  UNL1       -0.2119
     13 C           1.0141    0.3760    0.2879 C.ar    1  UNL1        0.1053
     14 C           1.3915   -0.9874   -0.0666 C.ar    1  UNL1        0.0055
     15 C           2.5170   -1.5920    0.4537 C.ar    1  UNL1       -0.0509
     16 C           2.8608   -2.8843    0.1080 C.ar    1  UNL1       -0.0400
     17 C           2.0889   -3.6215   -0.7737 C.ar    1  UNL1        0.0761
     18 CL          2.4952   -5.2563   -1.2308 Cl      1  UNL1       -0.0806
     19 C           0.9714   -3.0310   -1.2948 C.ar    1  UNL1        0.1422
     20 F           0.1975   -3.7436   -2.1657 F       1  UNL1       -0.2039
     21 C           0.6294   -1.7333   -0.9453 C.ar    1  UNL1       -0.0157
     22 C          -3.7358   -0.2377   -0.1050 C.3     1  UNL1        0.0262
     23 C          -3.5510   -1.7594   -0.0353 C.3     1  UNL1       -0.0326
     24 C          -4.1981   -0.9717    1.0792 C.3     1  UNL1       -0.0326
     25 H          -3.3072    1.7303   -1.6712 H       1  UNL1        0.0429
     26 H          -1.5911    1.3405   -1.9031 H       1  UNL1        0.0429
     27 H          -2.0755    2.5269   -0.6624 H       1  UNL1        0.0429
     28 H           1.4653    4.6177    1.0829 H       1  UNL1        0.0655
     29 H           3.8735    4.7220    0.6483 H       1  UNL1        0.0634
     30 H           5.0164    2.6048   -0.0079 H       1  UNL1        0.0847
     31 H           3.1117   -1.0030    1.1422 H       1  UNL1        0.0625
     32 H           3.7481   -3.3489    0.5235 H       1  UNL1        0.0633
     33 H          -0.2689   -1.3337   -1.3988 H       1  UNL1        0.0653
     34 H          -4.5223    0.1011   -0.8363 H       1  UNL1        0.0500
     35 H          -2.5580   -2.1865    0.1125 H       1  UNL1        0.0284
     36 H          -4.2266   -2.3614   -0.6940 H       1  UNL1        0.0284
     37 H          -5.3067   -1.1228    1.1662 H       1  UNL1        0.0284
     38 H          -3.7178   -0.9713    2.0587 H       1  UNL1        0.0284
@<TRIPOS>BOND
     1     1     2    1
     2     2     3   am
     3     3     4    2
     4     3     5    1
     5     5     6   ar
     6     6     7   ar
     7     7     8   ar
     8     8     9   ar
     9     9    10   ar
    10    10    11   ar
    11    11    12   ar
    12    12    13   ar
    13    13    14    1
    14    14    15   ar
    15    15    16   ar
    16    16    17   ar
    17    17    18    1
    18    17    19   ar
    19    19    20    1
    20    19    21   ar
    21     2    22    1
    22    22    23    1
    23    23    24    1
    24    13     5   ar
    25    21    14   ar
    26    24    22    1
    27    12     7   ar
    28     1    25    1
    29     1    26    1
    30     1    27    1
    31     8    28    1
    32     9    29    1
    33    10    30    1
    34    15    31    1
    35    16    32    1
    36    21    33    1
    37    22    34    1
    38    23    35    1
    39    23    36    1
    40    24    37    1
    41    24    38    1
