
     RDKit          3D

 38 41  0  0  0  0  0  0  0  0999 V2000
   -2.3578    1.5713   -1.1361 C   0  0  0  0  0  0  0  0  0  0  0  0
   -2.4972    0.4908   -0.1650 N   0  0  0  0  0  0  0  0  0  0  0  0
   -1.4442    0.1529    0.7084 C   0  0  0  0  0  0  0  0  0  0  0  0
   -1.4763   -0.7465    1.5600 O   0  0  0  0  0  0  0  0  0  0  0  0
   -0.1881    0.9130    0.6271 C   0  0  0  0  0  0  0  0  0  0  0  0
   -0.0256    2.2246    0.8685 N   0  0  0  0  0  0  0  0  0  0  0  0
    1.2823    2.5360    0.6852 C   0  0  0  0  0  0  0  0  0  0  0  0
    1.9832    3.7253    0.7994 C   0  0  0  0  0  0  0  0  0  0  0  0
    3.3397    3.7809    0.5541 C   0  0  0  0  0  0  0  0  0  0  0  0
    3.9435    2.5943    0.1935 C   0  0  0  0  0  0  0  0  0  0  0  0
    3.2130    1.4735    0.0990 N   0  0  0  0  0  0  0  0  0  0  0  0
    1.9055    1.4105    0.3335 N   0  0  0  0  0  0  0  0  0  0  0  0
    1.0141    0.3760    0.2879 C   0  0  0  0  0  0  0  0  0  0  0  0
    1.3915   -0.9874   -0.0666 C   0  0  0  0  0  0  0  0  0  0  0  0
    2.5170   -1.5920    0.4537 C   0  0  0  0  0  0  0  0  0  0  0  0
    2.8608   -2.8843    0.1080 C   0  0  0  0  0  0  0  0  0  0  0  0
    2.0889   -3.6215   -0.7737 C   0  0  0  0  0  0  0  0  0  0  0  0
    2.4952   -5.2563   -1.2308 Cl  0  0  0  0  0  0  0  0  0  0  0  0
    0.9714   -3.0310   -1.2948 C   0  0  0  0  0  0  0  0  0  0  0  0
    0.1975   -3.7436   -2.1657 F   0  0  0  0  0  0  0  0  0  0  0  0
    0.6294   -1.7333   -0.9453 C   0  0  0  0  0  0  0  0  0  0  0  0
   -3.7358   -0.2377   -0.1050 C   0  0  0  0  0  0  0  0  0  0  0  0
   -3.5510   -1.7594   -0.0353 C   0  0  0  0  0  0  0  0  0  0  0  0
   -4.1981   -0.9717    1.0792 C   0  0  0  0  0  0  0  0  0  0  0  0
   -3.3072    1.7303   -1.6712 H   0  0  0  0  0  0  0  0  0  0  0  0
   -1.5911    1.3405   -1.9031 H   0  0  0  0  0  0  0  0  0  0  0  0
   -2.0755    2.5269   -0.6624 H   0  0  0  0  0  0  0  0  0  0  0  0
    1.4653    4.6177    1.0829 H   0  0  0  0  0  0  0  0  0  0  0  0
    3.8735    4.7220    0.6483 H   0  0  0  0  0  0  0  0  0  0  0  0
    5.0164    2.6048   -0.0079 H   0  0  0  0  0  0  0  0  0  0  0  0
    3.1117   -1.0030    1.1422 H   0  0  0  0  0  0  0  0  0  0  0  0
    3.7481   -3.3489    0.5235 H   0  0  0  0  0  0  0  0  0  0  0  0
   -0.2689   -1.3337   -1.3988 H   0  0  0  0  0  0  0  0  0  0  0  0
   -4.5223    0.1011   -0.8363 H   0  0  0  0  0  0  0  0  0  0  0  0
   -2.5580   -2.1865    0.1125 H   0  0  0  0  0  0  0  0  0  0  0  0
   -4.2266   -2.3614   -0.6940 H   0  0  0  0  0  0  0  0  0  0  0  0
   -5.3067   -1.1228    1.1662 H   0  0  0  0  0  0  0  0  0  0  0  0
   -3.7178   -0.9713    2.0587 H   0  0  0  0  0  0  0  0  0  0  0  0
  1  2  1  0
  2  3  1  0
  3  4  2  0
  3  5  1  0
  5  6  1  0
  6  7  2  0
  7  8  1  0
  8  9  2  0
  9 10  1  0
 10 11  2  0
 11 12  1  0
 12 13  1  0
 13 14  1  0
 14 15  2  0
 15 16  1  0
 16 17  2  0
 17 18  1  0
 17 19  1  0
 19 20  1  0
 19 21  2  0
  2 22  1  0
 22 23  1  0
 23 24  1  0
 13  5  2  0
 21 14  1  0
 24 22  1  0
 12  7  1  0
  1 25  1  0
  1 26  1  0
  1 27  1  0
  8 28  1  0
  9 29  1  0
 10 30  1  0
 15 31  1  0
 16 32  1  0
 21 33  1  0
 22 34  1  0
 23 35  1  0
 23 36  1  0
 24 37  1  0
 24 38  1  0
M  END
$$$$
