@<TRIPOS>MOLECULE
*****
 49 53 0 0 0
SMALL
GASTEIGER

@<TRIPOS>ATOM
      1 O           3.6906   -4.0284    0.0340 O.2     1  UNL1       -0.2677
      2 C           3.1344   -2.9589    0.3985 C.ar    1  UNL1        0.2533
      3 C           3.6596   -1.7564   -0.0251 C.ar    1  UNL1        0.0427
      4 C           3.0289   -0.5912    0.3900 C.ar    1  UNL1        0.1285
      5 N           3.5263    0.6705   -0.0158 N.pl3   1  UNL1       -0.3106
      6 C           2.8467    1.8610    0.4352 C.3     1  UNL1        0.0370
      7 C           3.7255    3.0614    0.5323 C.3     1  UNL1        0.0634
      8 O           4.6472    3.2006   -0.4713 O.3     1  UNL1       -0.3767
      9 C           4.6288    2.2291   -1.4369 C.3     1  UNL1        0.0634
     10 C           4.6853    0.8217   -0.8624 C.3     1  UNL1        0.0370
     11 N           1.9512   -0.7077    1.1748 N.ar    1  UNL1       -0.2186
     12 C           1.4450   -1.8811    1.5836 C.ar    1  UNL1        0.1207
     13 C           0.2540   -1.9147    2.4475 C.3     1  UNL1        0.0821
     14 C          -0.9555   -1.9655    1.5593 C.ar    1  UNL1        0.2041
     15 N          -1.6185   -0.8946    1.0909 N.ar    1  UNL1       -0.2122
     16 C          -2.6452   -1.3465    0.3300 C.ar    1  UNL1        0.1199
     17 C          -3.6386   -0.7318   -0.3885 C.ar    1  UNL1        0.0464
     18 C          -3.7112    0.7151   -0.4172 C.ar    1  UNL1       -0.0130
     19 C          -4.4348    1.4465    0.5030 C.ar    1  UNL1       -0.0539
     20 C          -4.4975    2.8238    0.4669 C.ar    1  UNL1       -0.0612
     21 C          -3.8155    3.5246   -0.5227 C.ar    1  UNL1       -0.0617
     22 C          -3.0892    2.8238   -1.4492 C.ar    1  UNL1       -0.0612
     23 C          -3.0418    1.4584   -1.3935 C.ar    1  UNL1       -0.0539
     24 C          -4.5433   -1.4988   -1.0652 C.ar    1  UNL1        0.1333
     25 F          -5.5200   -0.9113   -1.7719 F       1  UNL1       -0.2048
     26 C          -4.5012   -2.8872   -1.0577 C.ar    1  UNL1       -0.0222
     27 C          -3.5042   -3.5052   -0.3366 C.ar    1  UNL1       -0.0144
     28 C          -2.5844   -2.7435    0.3511 C.ar    1  UNL1        0.1561
     29 O          -1.5611   -3.0324    1.0969 O.2     1  UNL1       -0.4393
     30 N           2.0392   -3.0001    1.1933 N.ar    1  UNL1       -0.3104
     31 H           4.5221   -1.6927   -0.6521 H       1  UNL1        0.0706
     32 H           1.9941    2.0225   -0.2718 H       1  UNL1        0.0487
     33 H           2.4245    1.6589    1.4396 H       1  UNL1        0.0487
     34 H           4.1991    3.0764    1.5413 H       1  UNL1        0.0575
     35 H           3.0534    3.9648    0.4943 H       1  UNL1        0.0575
     36 H           3.8066    2.3018   -2.1601 H       1  UNL1        0.0575
     37 H           5.5740    2.3403   -2.0373 H       1  UNL1        0.0575
     38 H           4.6239    0.1271   -1.7376 H       1  UNL1        0.0487
     39 H           5.6354    0.6548   -0.3274 H       1  UNL1        0.0487
     40 H           0.1824   -1.0821    3.1549 H       1  UNL1        0.0439
     41 H           0.3062   -2.8733    3.0345 H       1  UNL1        0.0439
     42 H          -4.9689    0.9412    1.2741 H       1  UNL1        0.0624
     43 H          -5.0682    3.4011    1.1926 H       1  UNL1        0.0618
     44 H          -3.8776    4.6160   -0.5344 H       1  UNL1        0.0618
     45 H          -2.5621    3.3569   -2.2134 H       1  UNL1        0.0618
     46 H          -2.4744    0.8972   -2.1160 H       1  UNL1        0.0624
     47 H          -5.2293   -3.4729   -1.6018 H       1  UNL1        0.0647
     48 H          -3.4383   -4.5773   -0.3063 H       1  UNL1        0.0656
     49 H           1.6962   -3.9421    1.4755 H       1  UNL1        0.1700
@<TRIPOS>BOND
     1     1     2    2
     2     2     3   ar
     3     3     4   ar
     4     4     5    1
     5     5     6    1
     6     6     7    1
     7     7     8    1
     8     8     9    1
     9     9    10    1
    10     4    11   ar
    11    11    12   ar
    12    12    13    1
    13    13    14    1
    14    14    15   ar
    15    15    16   ar
    16    16    17   ar
    17    17    18    1
    18    18    19   ar
    19    19    20   ar
    20    20    21   ar
    21    21    22   ar
    22    22    23   ar
    23    17    24   ar
    24    24    25    1
    25    24    26   ar
    26    26    27   ar
    27    27    28   ar
    28    28    29   ar
    29    12    30   ar
    30    30     2   ar
    31    10     5    1
    32    29    14   ar
    33    28    16   ar
    34    23    18   ar
    35     3    31    1
    36     6    32    1
    37     6    33    1
    38     7    34    1
    39     7    35    1
    40     9    36    1
    41     9    37    1
    42    10    38    1
    43    10    39    1
    44    13    40    1
    45    13    41    1
    46    19    42    1
    47    20    43    1
    48    21    44    1
    49    22    45    1
    50    23    46    1
    51    26    47    1
    52    27    48    1
    53    30    49    1
