
     RDKit          3D

 49 53  0  0  0  0  0  0  0  0999 V2000
    3.6906   -4.0284    0.0340 O   0  0  0  0  0  0  0  0  0  0  0  0
    3.1344   -2.9589    0.3985 C   0  0  0  0  0  0  0  0  0  0  0  0
    3.6596   -1.7564   -0.0251 C   0  0  0  0  0  0  0  0  0  0  0  0
    3.0289   -0.5912    0.3900 C   0  0  0  0  0  0  0  0  0  0  0  0
    3.5263    0.6705   -0.0158 N   0  0  0  0  0  0  0  0  0  0  0  0
    2.8467    1.8610    0.4352 C   0  0  0  0  0  0  0  0  0  0  0  0
    3.7255    3.0614    0.5323 C   0  0  0  0  0  0  0  0  0  0  0  0
    4.6472    3.2006   -0.4713 O   0  0  0  0  0  0  0  0  0  0  0  0
    4.6288    2.2291   -1.4369 C   0  0  0  0  0  0  0  0  0  0  0  0
    4.6853    0.8217   -0.8624 C   0  0  0  0  0  0  0  0  0  0  0  0
    1.9512   -0.7077    1.1748 N   0  0  0  0  0  0  0  0  0  0  0  0
    1.4450   -1.8811    1.5836 C   0  0  0  0  0  0  0  0  0  0  0  0
    0.2540   -1.9147    2.4475 C   0  0  0  0  0  0  0  0  0  0  0  0
   -0.9555   -1.9655    1.5593 C   0  0  0  0  0  0  0  0  0  0  0  0
   -1.6185   -0.8946    1.0909 N   0  0  0  0  0  0  0  0  0  0  0  0
   -2.6452   -1.3465    0.3300 C   0  0  0  0  0  0  0  0  0  0  0  0
   -3.6386   -0.7318   -0.3885 C   0  0  0  0  0  0  0  0  0  0  0  0
   -3.7112    0.7151   -0.4172 C   0  0  0  0  0  0  0  0  0  0  0  0
   -4.4348    1.4465    0.5030 C   0  0  0  0  0  0  0  0  0  0  0  0
   -4.4975    2.8238    0.4669 C   0  0  0  0  0  0  0  0  0  0  0  0
   -3.8155    3.5246   -0.5227 C   0  0  0  0  0  0  0  0  0  0  0  0
   -3.0892    2.8238   -1.4492 C   0  0  0  0  0  0  0  0  0  0  0  0
   -3.0418    1.4584   -1.3935 C   0  0  0  0  0  0  0  0  0  0  0  0
   -4.5433   -1.4988   -1.0652 C   0  0  0  0  0  0  0  0  0  0  0  0
   -5.5200   -0.9113   -1.7719 F   0  0  0  0  0  0  0  0  0  0  0  0
   -4.5012   -2.8872   -1.0577 C   0  0  0  0  0  0  0  0  0  0  0  0
   -3.5042   -3.5052   -0.3366 C   0  0  0  0  0  0  0  0  0  0  0  0
   -2.5844   -2.7435    0.3511 C   0  0  0  0  0  0  0  0  0  0  0  0
   -1.5611   -3.0324    1.0969 O   0  0  0  0  0  0  0  0  0  0  0  0
    2.0392   -3.0001    1.1933 N   0  0  0  0  0  0  0  0  0  0  0  0
    4.5221   -1.6927   -0.6521 H   0  0  0  0  0  0  0  0  0  0  0  0
    1.9941    2.0225   -0.2718 H   0  0  0  0  0  0  0  0  0  0  0  0
    2.4245    1.6589    1.4396 H   0  0  0  0  0  0  0  0  0  0  0  0
    4.1991    3.0764    1.5413 H   0  0  0  0  0  0  0  0  0  0  0  0
    3.0534    3.9648    0.4943 H   0  0  0  0  0  0  0  0  0  0  0  0
    3.8066    2.3018   -2.1601 H   0  0  0  0  0  0  0  0  0  0  0  0
    5.5740    2.3403   -2.0373 H   0  0  0  0  0  0  0  0  0  0  0  0
    4.6239    0.1271   -1.7376 H   0  0  0  0  0  0  0  0  0  0  0  0
    5.6354    0.6548   -0.3274 H   0  0  0  0  0  0  0  0  0  0  0  0
    0.1824   -1.0821    3.1549 H   0  0  0  0  0  0  0  0  0  0  0  0
    0.3062   -2.8733    3.0345 H   0  0  0  0  0  0  0  0  0  0  0  0
   -4.9689    0.9412    1.2741 H   0  0  0  0  0  0  0  0  0  0  0  0
   -5.0682    3.4011    1.1926 H   0  0  0  0  0  0  0  0  0  0  0  0
   -3.8776    4.6160   -0.5344 H   0  0  0  0  0  0  0  0  0  0  0  0
   -2.5621    3.3569   -2.2134 H   0  0  0  0  0  0  0  0  0  0  0  0
   -2.4744    0.8972   -2.1160 H   0  0  0  0  0  0  0  0  0  0  0  0
   -5.2293   -3.4729   -1.6018 H   0  0  0  0  0  0  0  0  0  0  0  0
   -3.4383   -4.5773   -0.3063 H   0  0  0  0  0  0  0  0  0  0  0  0
    1.6962   -3.9421    1.4755 H   0  0  0  0  0  0  0  0  0  0  0  0
  1  2  2  0
  2  3  1  0
  3  4  2  0
  4  5  1  0
  5  6  1  0
  6  7  1  0
  7  8  1  0
  8  9  1  0
  9 10  1  0
  4 11  1  0
 11 12  2  0
 12 13  1  0
 13 14  1  0
 14 15  2  0
 15 16  1  0
 16 17  2  0
 17 18  1  0
 18 19  2  0
 19 20  1  0
 20 21  2  0
 21 22  1  0
 22 23  2  0
 17 24  1  0
 24 25  1  0
 24 26  2  0
 26 27  1  0
 27 28  2  0
 28 29  1  0
 12 30  1  0
 30  2  1  0
 10  5  1  0
 29 14  1  0
 28 16  1  0
 23 18  1  0
  3 31  1  0
  6 32  1  0
  6 33  1  0
  7 34  1  0
  7 35  1  0
  9 36  1  0
  9 37  1  0
 10 38  1  0
 10 39  1  0
 13 40  1  0
 13 41  1  0
 19 42  1  0
 20 43  1  0
 21 44  1  0
 22 45  1  0
 23 46  1  0
 26 47  1  0
 27 48  1  0
 30 49  1  0
M  END
$$$$
