
     RDKit          3D

 26 28  0  0  0  0  0  0  0  0999 V2000
   -2.9179    2.5129   -1.5541 N   0  0  0  0  0  0  0  0  0  0  0  0
   -2.4844    1.1599   -1.5689 C   0  0  0  0  0  0  0  0  0  0  0  0
   -3.1669    0.2530   -2.3064 N   0  0  0  0  0  0  0  0  0  0  0  0
   -2.7988   -1.0529   -2.3583 C   0  0  0  0  0  0  0  0  0  0  0  0
   -1.6994   -1.4526   -1.6363 C   0  0  0  0  0  0  0  0  0  0  0  0
   -0.9932   -0.5477   -0.8816 C   0  0  0  0  0  0  0  0  0  0  0  0
    0.1854   -0.9651   -0.1050 C   0  0  0  0  0  0  0  0  0  0  0  0
    0.7402   -2.2038   -0.0004 C   0  0  0  0  0  0  0  0  0  0  0  0
    1.8084   -2.1254    0.8179 N   0  0  0  0  0  0  0  0  0  0  0  0
    1.9596   -0.8797    1.2430 C   0  0  0  0  0  0  0  0  0  0  0  0
    2.8734   -0.2547    2.0828 C   0  0  0  0  0  0  0  0  0  0  0  0
    4.2470   -1.3209    2.8427 Br  0  0  0  0  0  0  0  0  0  0  0  0
    2.8002    1.0922    2.3654 C   0  0  0  0  0  0  0  0  0  0  0  0
    1.8009    1.8462    1.8071 C   0  0  0  0  0  0  0  0  0  0  0  0
    0.8945    1.2088    0.9698 C   0  0  0  0  0  0  0  0  0  0  0  0
    0.9538   -0.1311    0.6785 C   0  0  0  0  0  0  0  0  0  0  0  0
   -1.4207    0.7229   -0.8830 N   0  0  0  0  0  0  0  0  0  0  0  0
   -2.8180    3.0492   -0.6662 H   0  0  0  0  0  0  0  0  0  0  0  0
   -3.3313    3.0149   -2.3685 H   0  0  0  0  0  0  0  0  0  0  0  0
   -3.3871   -1.7286   -2.9674 H   0  0  0  0  0  0  0  0  0  0  0  0
   -1.4065   -2.4822   -1.6752 H   0  0  0  0  0  0  0  0  0  0  0  0
    0.3787   -3.0989   -0.4949 H   0  0  0  0  0  0  0  0  0  0  0  0
    2.3981   -2.9436    1.0539 H   0  0  0  0  0  0  0  0  0  0  0  0
    3.5153    1.5960    3.0263 H   0  0  0  0  0  0  0  0  0  0  0  0
    1.7428    2.9067    2.0293 H   0  0  0  0  0  0  0  0  0  0  0  0
    0.1261    1.8244    0.5494 H   0  0  0  0  0  0  0  0  0  0  0  0
  1  2  1  0
  2  3  2  0
  3  4  1  0
  4  5  2  0
  5  6  1  0
  6  7  1  0
  7  8  2  0
  8  9  1  0
  9 10  1  0
 10 11  2  0
 11 12  1  0
 11 13  1  0
 13 14  2  0
 14 15  1  0
 15 16  2  0
  6 17  2  0
 17  2  1  0
 16  7  1  0
 16 10  1  0
  1 18  1  0
  1 19  1  0
  4 20  1  0
  5 21  1  0
  8 22  1  0
  9 23  1  0
 13 24  1  0
 14 25  1  0
 15 26  1  0
M  END
$$$$
