@<TRIPOS>MOLECULE
*****
 26 28 0 0 0
SMALL
GASTEIGER

@<TRIPOS>ATOM
      1 N          -2.9179    2.5129   -1.5541 N.pl3   1  UNL1       -0.3275
      2 C          -2.4844    1.1599   -1.5689 C.ar    1  UNL1        0.2130
      3 N          -3.1669    0.2530   -2.3064 N.ar    1  UNL1       -0.2231
      4 C          -2.7988   -1.0529   -2.3583 C.ar    1  UNL1        0.0332
      5 C          -1.6994   -1.4526   -1.6363 C.ar    1  UNL1       -0.0173
      6 C          -0.9932   -0.5477   -0.8816 C.ar    1  UNL1        0.0780
      7 C           0.1854   -0.9651   -0.1050 C.ar    1  UNL1        0.0255
      8 C           0.7402   -2.2038   -0.0004 C.ar    1  UNL1        0.0120
      9 N           1.8084   -2.1254    0.8179 N.ar    1  UNL1       -0.3591
     10 C           1.9596   -0.8797    1.2430 C.ar    1  UNL1        0.0613
     11 C           2.8734   -0.2547    2.0828 C.ar    1  UNL1        0.0417
     12 BR          4.2470   -1.3209    2.8427 Br      1  UNL1       -0.0482
     13 C           2.8002    1.0922    2.3654 C.ar    1  UNL1       -0.0457
     14 C           1.8009    1.8462    1.8071 C.ar    1  UNL1       -0.0600
     15 C           0.8945    1.2088    0.9698 C.ar    1  UNL1       -0.0519
     16 C           0.9538   -0.1311    0.6785 C.ar    1  UNL1        0.0099
     17 N          -1.4207    0.7229   -0.8830 N.ar    1  UNL1       -0.2146
     18 H          -2.8180    3.0492   -0.6662 H       1  UNL1        0.1452
     19 H          -3.3313    3.0149   -2.3685 H       1  UNL1        0.1452
     20 H          -3.3871   -1.7286   -2.9674 H       1  UNL1        0.0831
     21 H          -1.4065   -2.4822   -1.6752 H       1  UNL1        0.0654
     22 H           0.3787   -3.0989   -0.4949 H       1  UNL1        0.0814
     23 H           2.3981   -2.9436    1.0539 H       1  UNL1        0.1654
     24 H           3.5153    1.5960    3.0263 H       1  UNL1        0.0629
     25 H           1.7428    2.9067    2.0293 H       1  UNL1        0.0618
     26 H           0.1261    1.8244    0.5494 H       1  UNL1        0.0624
@<TRIPOS>BOND
     1     1     2    1
     2     2     3   ar
     3     3     4   ar
     4     4     5   ar
     5     5     6   ar
     6     6     7    1
     7     7     8   ar
     8     8     9   ar
     9     9    10   ar
    10    10    11   ar
    11    11    12    1
    12    11    13   ar
    13    13    14   ar
    14    14    15   ar
    15    15    16   ar
    16     6    17   ar
    17    17     2   ar
    18    16     7   ar
    19    16    10   ar
    20     1    18    1
    21     1    19    1
    22     4    20    1
    23     5    21    1
    24     8    22    1
    25     9    23    1
    26    13    24    1
    27    14    25    1
    28    15    26    1
