@<TRIPOS>MOLECULE
*****
 52 56 0 0 0
SMALL
GASTEIGER

@<TRIPOS>ATOM
      1 C          -1.4153    1.1232   -3.7888 C.3     1  UNL1        0.0790
      2 O          -2.4688    0.9612   -2.8605 O.3     1  UNL1       -0.4913
      3 C          -2.2424    0.3436   -1.6427 C.ar    1  UNL1        0.1654
      4 C          -0.9666   -0.1201   -1.3334 C.ar    1  UNL1       -0.0123
      5 C          -0.7230   -0.7337   -0.1336 C.ar    1  UNL1       -0.0320
      6 C           0.5942   -1.2621    0.2989 C.3     1  UNL1        0.0233
      7 C           1.4191   -0.2086    0.9480 C.ar    1  UNL1       -0.0299
      8 C           0.7665    0.7148    1.7592 C.ar    1  UNL1       -0.0120
      9 C           1.5013    1.6958    2.3771 C.ar    1  UNL1        0.1665
     10 C           2.8672    1.7750    2.2038 C.ar    1  UNL1        0.1666
     11 C           3.4926    0.8292    1.3801 C.ar    1  UNL1       -0.0102
     12 C           2.7748   -0.1589    0.7538 C.ar    1  UNL1       -0.0113
     13 C           3.4233   -1.1563   -0.1210 C.3     1  UNL1        0.0872
     14 O           4.7000   -0.7994   -0.5149 O.3     1  UNL1       -0.3868
     15 C           2.4582   -1.2959   -1.2653 C.3     1  UNL1        0.0372
     16 C           2.8787   -2.1877   -2.3698 C.3     1  UNL1        0.0987
     17 O           1.5983   -2.5752   -2.8973 O.3     1  UNL1       -0.4640
     18 C           0.6188   -2.4804   -1.9098 C.2     1  UNL1        0.3116
     19 O          -0.6054   -2.7075   -2.1514 O.2     1  UNL1       -0.2505
     20 C           1.3070   -2.0979   -0.6825 C.3     1  UNL1        0.0757
     21 O           3.3507    2.8503    2.9363 O.3     1  UNL1       -0.4526
     22 C           2.2179    3.5686    3.3861 C.3     1  UNL1        0.2332
     23 O           1.1043    2.7152    3.2174 O.3     1  UNL1       -0.4526
     24 C          -1.8064   -0.8583    0.7296 C.ar    1  UNL1       -0.0123
     25 C          -3.0727   -0.4188    0.4677 C.ar    1  UNL1        0.1654
     26 O          -4.1300   -0.5665    1.3668 O.3     1  UNL1       -0.4913
     27 C          -3.8411   -1.2078    2.6020 C.3     1  UNL1        0.0790
     28 C          -3.2801    0.1999   -0.7630 C.ar    1  UNL1        0.2035
     29 O          -4.5705    0.6406   -1.0146 O.3     1  UNL1       -0.4885
     30 C          -4.9861    1.9478   -0.6542 C.3     1  UNL1        0.0791
     31 H          -0.6425    1.7871   -3.3952 H       1  UNL1        0.0660
     32 H          -1.7842    1.3921   -4.7963 H       1  UNL1        0.0660
     33 H          -0.9223    0.1153   -3.9196 H       1  UNL1        0.0660
     34 H          -0.1456   -0.0034   -2.0373 H       1  UNL1        0.0658
     35 H           0.3767   -1.9671    1.1735 H       1  UNL1        0.0405
     36 H          -0.2973    0.6807    1.9152 H       1  UNL1        0.0658
     37 H           4.5618    0.8572    1.2187 H       1  UNL1        0.0659
     38 H           3.5028   -2.1130    0.4376 H       1  UNL1        0.0648
     39 H           5.3057   -1.0092    0.2588 H       1  UNL1        0.2102
     40 H           2.1517   -0.3125   -1.6019 H       1  UNL1        0.0370
     41 H           3.4573   -3.0550   -2.0408 H       1  UNL1        0.0701
     42 H           3.3839   -1.5801   -3.1456 H       1  UNL1        0.0701
     43 H           1.7241   -3.0444   -0.2447 H       1  UNL1        0.0427
     44 H           2.3742    3.8468    4.4510 H       1  UNL1        0.1166
     45 H           2.0317    4.4785    2.7708 H       1  UNL1        0.1166
     46 H          -1.6614   -1.3444    1.7065 H       1  UNL1        0.0658
     47 H          -3.0365   -0.6067    3.0851 H       1  UNL1        0.0660
     48 H          -3.4009   -2.1896    2.3552 H       1  UNL1        0.0660
     49 H          -4.7225   -1.2718    3.2526 H       1  UNL1        0.0660
     50 H          -4.8295    2.5951   -1.5329 H       1  UNL1        0.0660
     51 H          -6.0579    1.9337   -0.3969 H       1  UNL1        0.0660
     52 H          -4.3335    2.2805    0.1622 H       1  UNL1        0.0660
@<TRIPOS>BOND
     1     1     2    1
     2     2     3    1
     3     3     4   ar
     4     4     5   ar
     5     5     6    1
     6     6     7    1
     7     7     8   ar
     8     8     9   ar
     9     9    10   ar
    10    10    11   ar
    11    11    12   ar
    12    12    13    1
    13    13    14    1
    14    13    15    1
    15    15    16    1
    16    16    17    1
    17    17    18    1
    18    18    19    2
    19    18    20    1
    20    10    21    1
    21    21    22    1
    22    22    23    1
    23     5    24   ar
    24    24    25   ar
    25    25    26    1
    26    26    27    1
    27    25    28   ar
    28    28    29    1
    29    29    30    1
    30    28     3   ar
    31    20     6    1
    32    12     7   ar
    33    20    15    1
    34    23     9    1
    35     1    31    1
    36     1    32    1
    37     1    33    1
    38     4    34    1
    39     6    35    1
    40     8    36    1
    41    11    37    1
    42    13    38    1
    43    14    39    1
    44    15    40    1
    45    16    41    1
    46    16    42    1
    47    20    43    1
    48    22    44    1
    49    22    45    1
    50    24    46    1
    51    27    47    1
    52    27    48    1
    53    27    49    1
    54    30    50    1
    55    30    51    1
    56    30    52    1
