
     RDKit          3D

 62 64  0  0  0  0  0  0  0  0999 V2000
    5.5055    1.4921    0.1905 C   0  0  0  0  0  0  0  0  0  0  0  0
    4.3679    1.9260   -0.6852 C   0  0  0  0  0  0  0  0  0  0  0  0
    3.7281    3.2032   -0.2334 C   0  0  0  0  0  0  0  0  0  0  0  0
    3.0626    3.0652    1.4176 S   0  0  0  0  0  6  0  0  0  0  0  0
    2.4647    4.3968    1.7800 O   0  0  0  0  0  0  0  0  0  0  0  0
    4.2037    2.8159    2.3616 O   0  0  0  0  0  0  0  0  0  0  0  0
    1.8892    1.8710    1.5424 N   0  0  0  0  0  0  0  0  0  0  0  0
    0.7326    2.0075    0.7717 C   0  0  0  0  0  0  0  0  0  0  0  0
   -0.3064    0.9673    0.8996 C   0  0  0  0  0  0  0  0  0  0  0  0
    0.2349   -0.4223    1.2109 C   0  0  0  0  0  0  0  0  0  0  0  0
    0.9815   -0.9759    0.0818 C   0  0  0  0  0  0  0  0  0  0  0  0
    1.6607   -2.1656    0.1348 C   0  0  0  0  0  0  0  0  0  0  0  0
    2.3484   -2.6642   -0.9518 C   0  0  0  0  0  0  0  0  0  0  0  0
    2.3373   -1.9248   -2.1137 C   0  0  0  0  0  0  0  0  0  0  0  0
    1.6548   -0.7257   -2.1716 C   0  0  0  0  0  0  0  0  0  0  0  0
    1.0028   -0.2934   -1.0771 N   0  0  0  0  0  0  0  0  0  0  0  0
   -1.0145   -1.2315    1.5716 C   0  0  2  0  0  0  0  0  0  0  0  0
   -0.7362   -2.6492    1.9266 C   0  0  0  0  0  0  0  0  0  0  0  0
   -1.9878   -1.1282    0.4725 N   0  0  0  0  0  0  0  0  0  0  0  0
   -3.2409   -0.5103    0.6410 C   0  0  0  0  0  0  0  0  0  0  0  0
   -3.4623   -0.0508    1.8160 O   0  0  0  0  0  0  0  0  0  0  0  0
   -4.2774   -0.3485   -0.3615 C   0  0  0  0  0  0  0  0  0  0  0  0
   -5.4519    0.3046    0.0372 C   0  0  0  0  0  0  0  0  0  0  0  0
   -6.5136    0.5318   -0.7899 C   0  0  0  0  0  0  0  0  0  0  0  0
   -6.4417    0.1010   -2.0917 C   0  0  0  0  0  0  0  0  0  0  0  0
   -5.3008   -0.5439   -2.5131 C   0  0  0  0  0  0  0  0  0  0  0  0
   -4.2225   -0.7687   -1.6542 C   0  0  0  0  0  0  0  0  0  0  0  0
   -3.1099   -1.4157   -2.1233 O   0  0  0  0  0  0  0  0  0  0  0  0
   -3.0362   -1.8470   -3.4577 C   0  0  0  0  0  0  0  0  0  0  0  0
   -3.1479   -0.7503   -4.2870 F   0  0  0  0  0  0  0  0  0  0  0  0
   -4.0015   -2.8004   -3.7565 F   0  0  0  0  0  0  0  0  0  0  0  0
   -1.8032   -2.4566   -3.6227 F   0  0  0  0  0  0  0  0  0  0  0  0
    1.1137   -0.2802    2.4321 C   0  0  0  0  0  0  0  0  0  0  0  0
    2.2632    0.6171    2.0451 C   0  0  0  0  0  0  0  0  0  0  0  0
    6.0398    2.3728    0.5889 H   0  0  0  0  0  0  0  0  0  0  0  0
    5.1260    0.8061    0.9653 H   0  0  0  0  0  0  0  0  0  0  0  0
    6.2688    0.9015   -0.3899 H   0  0  0  0  0  0  0  0  0  0  0  0
    3.5688    1.1612   -0.7667 H   0  0  0  0  0  0  0  0  0  0  0  0
    4.7595    2.0838   -1.6989 H   0  0  0  0  0  0  0  0  0  0  0  0
    4.4747    4.0423   -0.1842 H   0  0  0  0  0  0  0  0  0  0  0  0
    2.9240    3.4635   -0.9406 H   0  0  0  0  0  0  0  0  0  0  0  0
    0.2593    3.0075    1.0004 H   0  0  0  0  0  0  0  0  0  0  0  0
    1.0216    2.0999   -0.3160 H   0  0  0  0  0  0  0  0  0  0  0  0
   -0.9381    0.9501   -0.0051 H   0  0  0  0  0  0  0  0  0  0  0  0
   -0.9747    1.2310    1.7516 H   0  0  0  0  0  0  0  0  0  0  0  0
    1.6969   -2.7648    1.0253 H   0  0  0  0  0  0  0  0  0  0  0  0
    2.8883   -3.6225   -0.8908 H   0  0  0  0  0  0  0  0  0  0  0  0
    2.8816   -2.3194   -2.9739 H   0  0  0  0  0  0  0  0  0  0  0  0
    1.6577   -0.1516   -3.1050 H   0  0  0  0  0  0  0  0  0  0  0  0
   -1.4872   -0.7463    2.4460 H   0  0  0  0  0  0  0  0  0  0  0  0
   -1.6815   -3.0268    2.4312 H   0  0  0  0  0  0  0  0  0  0  0  0
    0.0351   -2.7329    2.7170 H   0  0  0  0  0  0  0  0  0  0  0  0
   -0.6071   -3.3333    1.0742 H   0  0  0  0  0  0  0  0  0  0  0  0
   -1.7478   -1.5209   -0.4563 H   0  0  0  0  0  0  0  0  0  0  0  0
   -5.5582    0.6655    1.0602 H   0  0  0  0  0  0  0  0  0  0  0  0
   -7.4102    1.0368   -0.4643 H   0  0  0  0  0  0  0  0  0  0  0  0
   -7.2726    0.2747   -2.7528 H   0  0  0  0  0  0  0  0  0  0  0  0
   -5.2935   -0.8643   -3.5415 H   0  0  0  0  0  0  0  0  0  0  0  0
    0.5507    0.0947    3.2980 H   0  0  0  0  0  0  0  0  0  0  0  0
    1.5566   -1.2608    2.7412 H   0  0  0  0  0  0  0  0  0  0  0  0
    2.8956    0.7441    2.9497 H   0  0  0  0  0  0  0  0  0  0  0  0
    2.8691    0.0618    1.3031 H   0  0  0  0  0  0  0  0  0  0  0  0
  1  2  1  0
  2  3  1  0
  3  4  1  0
  4  5  2  0
  4  6  2  0
  4  7  1  0
  7  8  1  0
  8  9  1  0
  9 10  1  0
 10 11  1  0
 11 12  2  0
 12 13  1  0
 13 14  2  0
 14 15  1  0
 15 16  2  0
 10 17  1  0
 17 18  1  0
 17 19  1  0
 19 20  1  0
 20 21  2  0
 20 22  1  0
 22 23  2  0
 23 24  1  0
 24 25  2  0
 25 26  1  0
 26 27  2  0
 27 28  1  0
 28 29  1  0
 29 30  1  0
 29 31  1  0
 29 32  1  0
 10 33  1  0
 33 34  1  0
 34  7  1  0
 16 11  1  0
 27 22  1  0
  1 35  1  0
  1 36  1  0
  1 37  1  0
  2 38  1  0
  2 39  1  0
  3 40  1  0
  3 41  1  0
  8 42  1  0
  8 43  1  0
  9 44  1  0
  9 45  1  0
 12 46  1  0
 13 47  1  0
 14 48  1  0
 15 49  1  0
 17 50  1  1
 18 51  1  0
 18 52  1  0
 18 53  1  0
 19 54  1  0
 23 55  1  0
 24 56  1  0
 25 57  1  0
 26 58  1  0
 33 59  1  0
 33 60  1  0
 34 61  1  0
 34 62  1  0
M  END
$$$$
