@<TRIPOS>MOLECULE
*****
 62 64 0 0 0
SMALL
GASTEIGER

@<TRIPOS>ATOM
      1 C           5.5055    1.4921    0.1905 C.3     1  UNL1       -0.0638
      2 C           4.3679    1.9260   -0.6852 C.3     1  UNL1       -0.0350
      3 C           3.7281    3.2032   -0.2334 C.3     1  UNL1        0.0817
      4 S           3.0626    3.0652    1.4176 S.O2    1  UNL1        0.0318
      5 O           2.4647    4.3968    1.7800 O.2     1  UNL1       -0.1580
      6 O           4.2037    2.8159    2.3616 O.2     1  UNL1       -0.1580
      7 N           1.8892    1.8710    1.5424 N.3     1  UNL1       -0.1811
      8 C           0.7326    2.0075    0.7717 C.3     1  UNL1        0.0210
      9 C          -0.3064    0.9673    0.8996 C.3     1  UNL1       -0.0257
     10 C           0.2349   -0.4223    1.2109 C.3     1  UNL1        0.0334
     11 C           0.9815   -0.9759    0.0818 C.ar    1  UNL1        0.0492
     12 C           1.6607   -2.1656    0.1348 C.ar    1  UNL1       -0.0398
     13 C           2.3484   -2.6642   -0.9518 C.ar    1  UNL1       -0.0586
     14 C           2.3373   -1.9248   -2.1137 C.ar    1  UNL1       -0.0436
     15 C           1.6548   -0.7257   -2.1716 C.ar    1  UNL1        0.0279
     16 N           1.0028   -0.2934   -1.0771 N.ar    1  UNL1       -0.2593
     17 C          -1.0145   -1.2315    1.5716 C.3     1  UNL1        0.0317
     18 C          -0.7362   -2.6492    1.9266 C.3     1  UNL1       -0.0457
     19 N          -1.9878   -1.1282    0.4725 N.am    1  UNL1       -0.3078
     20 C          -3.2409   -0.5103    0.6410 C.2     1  UNL1        0.2478
     21 O          -3.4623   -0.0508    1.8160 O.2     1  UNL1       -0.2701
     22 C          -4.2774   -0.3485   -0.3615 C.ar    1  UNL1        0.0786
     23 C          -5.4519    0.3046    0.0372 C.ar    1  UNL1       -0.0461
     24 C          -6.5136    0.5318   -0.7899 C.ar    1  UNL1       -0.0608
     25 C          -6.4417    0.1010   -2.0917 C.ar    1  UNL1       -0.0583
     26 C          -5.3008   -0.5439   -2.5131 C.ar    1  UNL1       -0.0189
     27 C          -4.2225   -0.7687   -1.6542 C.ar    1  UNL1        0.1421
     28 O          -3.1099   -1.4157   -2.1233 O.3     1  UNL1       -0.4050
     29 C          -3.0362   -1.8470   -3.4577 C.3     1  UNL1        0.5753
     30 F          -3.1479   -0.7503   -4.2870 F       1  UNL1       -0.1328
     31 F          -4.0015   -2.8004   -3.7565 F       1  UNL1       -0.1328
     32 F          -1.8032   -2.4566   -3.6227 F       1  UNL1       -0.1328
     33 C           1.1137   -0.2802    2.4321 C.3     1  UNL1       -0.0257
     34 C           2.2632    0.6171    2.0451 C.3     1  UNL1        0.0210
     35 H           6.0398    2.3728    0.5889 H       1  UNL1        0.0230
     36 H           5.1260    0.8061    0.9653 H       1  UNL1        0.0230
     37 H           6.2688    0.9015   -0.3899 H       1  UNL1        0.0230
     38 H           3.5688    1.1612   -0.7667 H       1  UNL1        0.0279
     39 H           4.7595    2.0838   -1.6989 H       1  UNL1        0.0279
     40 H           4.4747    4.0423   -0.1842 H       1  UNL1        0.0515
     41 H           2.9240    3.4635   -0.9406 H       1  UNL1        0.0515
     42 H           0.2593    3.0075    1.0004 H       1  UNL1        0.0444
     43 H           1.0216    2.0999   -0.3160 H       1  UNL1        0.0444
     44 H          -0.9381    0.9501   -0.0051 H       1  UNL1        0.0288
     45 H          -0.9747    1.2310    1.7516 H       1  UNL1        0.0288
     46 H           1.6969   -2.7648    1.0253 H       1  UNL1        0.0636
     47 H           2.8883   -3.6225   -0.8908 H       1  UNL1        0.0619
     48 H           2.8816   -2.3194   -2.9739 H       1  UNL1        0.0633
     49 H           1.6577   -0.1516   -3.1050 H       1  UNL1        0.0829
     50 H          -1.4872   -0.7463    2.4460 H       1  UNL1        0.0505
     51 H          -1.6815   -3.0268    2.4312 H       1  UNL1        0.0248
     52 H           0.0351   -2.7329    2.7170 H       1  UNL1        0.0248
     53 H          -0.6071   -3.3333    1.0742 H       1  UNL1        0.0248
     54 H          -1.7478   -1.5209   -0.4563 H       1  UNL1        0.1493
     55 H          -5.5582    0.6655    1.0602 H       1  UNL1        0.0626
     56 H          -7.4102    1.0368   -0.4643 H       1  UNL1        0.0618
     57 H          -7.2726    0.2747   -2.7528 H       1  UNL1        0.0619
     58 H          -5.2935   -0.8643   -3.5415 H       1  UNL1        0.0654
     59 H           0.5507    0.0947    3.2980 H       1  UNL1        0.0288
     60 H           1.5566   -1.2608    2.7412 H       1  UNL1        0.0288
     61 H           2.8956    0.7441    2.9497 H       1  UNL1        0.0444
     62 H           2.8691    0.0618    1.3031 H       1  UNL1        0.0444
@<TRIPOS>BOND
     1     1     2    1
     2     2     3    1
     3     3     4    1
     4     4     5    2
     5     4     6    2
     6     4     7    1
     7     7     8    1
     8     8     9    1
     9     9    10    1
    10    10    11    1
    11    11    12   ar
    12    12    13   ar
    13    13    14   ar
    14    14    15   ar
    15    15    16   ar
    16    10    17    1
    17    17    18    1
    18    17    19    1
    19    19    20   am
    20    20    21    2
    21    20    22    1
    22    22    23   ar
    23    23    24   ar
    24    24    25   ar
    25    25    26   ar
    26    26    27   ar
    27    27    28    1
    28    28    29    1
    29    29    30    1
    30    29    31    1
    31    29    32    1
    32    10    33    1
    33    33    34    1
    34    34     7    1
    35    16    11   ar
    36    27    22   ar
    37     1    35    1
    38     1    36    1
    39     1    37    1
    40     2    38    1
    41     2    39    1
    42     3    40    1
    43     3    41    1
    44     8    42    1
    45     8    43    1
    46     9    44    1
    47     9    45    1
    48    12    46    1
    49    13    47    1
    50    14    48    1
    51    15    49    1
    52    17    50    1
    53    18    51    1
    54    18    52    1
    55    18    53    1
    56    19    54    1
    57    23    55    1
    58    24    56    1
    59    25    57    1
    60    26    58    1
    61    33    59    1
    62    33    60    1
    63    34    61    1
    64    34    62    1
