@<TRIPOS>MOLECULE
*****
 30 31 0 0 0
SMALL
GASTEIGER

@<TRIPOS>ATOM
      1 C          -3.2967   -1.0101   -1.5036 C.3     1  UNL1       -0.0200
      2 C          -3.4226    0.0695   -0.4914 C.ar    1  UNL1        0.0674
      3 N          -4.5314    0.7564   -0.1509 N.ar    1  UNL1       -0.1786
      4 N          -4.2370    1.6376    0.7925 N.ar    1  UNL1       -0.2839
      5 C          -2.9191    1.5748    1.1203 C.ar    1  UNL1        0.0303
      6 C          -2.3871    0.5743    0.3047 C.ar    1  UNL1        0.0222
      7 C          -0.9858    0.1378    0.2939 C.ar    1  UNL1       -0.0147
      8 C          -0.2399   -0.1041    1.4369 C.ar    1  UNL1       -0.0537
      9 C           1.0843   -0.5157    1.3213 C.ar    1  UNL1       -0.0580
     10 C           1.7001   -0.6972    0.0789 C.ar    1  UNL1       -0.0461
     11 C           3.1013   -1.1334    0.0381 C.3     1  UNL1       -0.0153
     12 C           4.1026   -0.0183    0.0319 C.3     1  UNL1       -0.0029
     13 N           4.0129    0.8884   -1.0620 N.3     1  UNL1       -0.3297
     14 C           0.9381   -0.4504   -1.0449 C.ar    1  UNL1       -0.0580
     15 C          -0.3663   -0.0450   -0.9365 C.ar    1  UNL1       -0.0537
     16 H          -3.1455   -0.5770   -2.5064 H       1  UNL1        0.0293
     17 H          -4.2418   -1.5991   -1.5150 H       1  UNL1        0.0293
     18 H          -2.4933   -1.7241   -1.2532 H       1  UNL1        0.0293
     19 H          -4.9028    2.3151    1.2547 H       1  UNL1        0.1882
     20 H          -2.3778    2.1576    1.8465 H       1  UNL1        0.0830
     21 H          -0.7191    0.0372    2.3954 H       1  UNL1        0.0624
     22 H           1.6339   -0.6947    2.2547 H       1  UNL1        0.0620
     23 H           3.3039   -1.7223    0.9664 H       1  UNL1        0.0325
     24 H           3.2937   -1.8363   -0.7955 H       1  UNL1        0.0325
     25 H           4.0995    0.5187    1.0071 H       1  UNL1        0.0425
     26 H           5.1080   -0.5179   -0.0116 H       1  UNL1        0.0425
     27 H           3.9478    1.8869   -0.8475 H       1  UNL1        0.1182
     28 H           3.4987    0.5304   -1.8688 H       1  UNL1        0.1182
     29 H           1.3762   -0.5788   -2.0251 H       1  UNL1        0.0620
     30 H          -0.9349    0.1397   -1.8453 H       1  UNL1        0.0624
@<TRIPOS>BOND
     1     1     2    1
     2     2     3   ar
     3     3     4   ar
     4     4     5   ar
     5     5     6   ar
     6     6     7    1
     7     7     8   ar
     8     8     9   ar
     9     9    10   ar
    10    10    11    1
    11    11    12    1
    12    12    13    1
    13    10    14   ar
    14    14    15   ar
    15     6     2   ar
    16    15     7   ar
    17     1    16    1
    18     1    17    1
    19     1    18    1
    20     4    19    1
    21     5    20    1
    22     8    21    1
    23     9    22    1
    24    11    23    1
    25    11    24    1
    26    12    25    1
    27    12    26    1
    28    13    27    1
    29    13    28    1
    30    14    29    1
    31    15    30    1
