
     RDKit          3D

 66 69  0  0  0  0  0  0  0  0999 V2000
   -1.1211   -6.1417    0.6537 C   0  0  0  0  0  0  0  0  0  0  0  0
   -0.1046   -5.1188    0.3228 C   0  0  0  0  0  0  0  0  0  0  0  0
    1.0945   -5.0863    1.2886 C   0  0  0  0  0  0  0  0  0  0  0  0
   -0.6076   -3.8074   -0.0085 N   0  0  0  0  0  0  0  0  0  0  0  0
    0.0976   -2.6200    0.1404 C   0  0  0  0  0  0  0  0  0  0  0  0
    1.2699   -2.6113    0.6646 O   0  0  0  0  0  0  0  0  0  0  0  0
   -0.3460   -1.3161   -0.2615 N   0  0  0  0  0  0  0  0  0  0  0  0
   -1.5992   -1.1940   -0.9628 C   0  0  0  0  0  0  0  0  0  0  0  0
   -2.3133    0.0847   -0.8761 C   0  0  0  0  0  0  0  0  0  0  0  0
   -1.8641    1.1374   -1.6461 C   0  0  0  0  0  0  0  0  0  0  0  0
   -2.5768    2.3110   -1.6862 C   0  0  0  0  0  0  0  0  0  0  0  0
   -3.7124    2.4017   -0.9599 C   0  0  0  0  0  0  0  0  0  0  0  0
   -4.2230    1.3500   -0.1487 C   0  0  0  0  0  0  0  0  0  0  0  0
   -5.4823    1.5594    0.4695 C   0  0  0  0  0  0  0  0  0  0  0  0
   -6.5989    1.7273    1.0309 C   0  0  0  0  0  0  0  0  0  0  0  0
   -7.8343    1.9304    1.6622 C   0  0  0  0  0  0  0  0  0  0  0  0
   -8.3676    0.9457    2.4913 C   0  0  0  0  0  0  0  0  0  0  0  0
   -9.5783    1.1116    3.1330 C   0  0  0  0  0  0  0  0  0  0  0  0
  -10.2712    2.2592    2.9569 N   0  0  0  0  0  0  0  0  0  0  0  0
   -9.8110    3.2375    2.1785 C   0  0  0  0  0  0  0  0  0  0  0  0
   -8.5870    3.0732    1.5287 C   0  0  0  0  0  0  0  0  0  0  0  0
   -3.4760    0.2105   -0.1448 C   0  0  0  0  0  0  0  0  0  0  0  0
    0.4217   -0.1447    0.0523 C   0  0  0  0  0  0  0  0  0  0  0  0
    1.5983    0.0185   -0.8650 C   0  0  0  0  0  0  0  0  0  0  0  0
    1.4745   -0.2096   -2.2176 C   0  0  0  0  0  0  0  0  0  0  0  0
    2.4965    0.0449   -3.0747 C   0  0  0  0  0  0  0  0  0  0  0  0
    3.6740    0.5399   -2.5655 C   0  0  0  0  0  0  0  0  0  0  0  0
    3.8479    0.7887   -1.1680 C   0  0  0  0  0  0  0  0  0  0  0  0
    5.1664    1.2763   -0.8144 C   0  0  0  0  0  0  0  0  0  0  0  0
    6.2813    1.7099   -0.5119 C   0  0  0  0  0  0  0  0  0  0  0  0
    7.5593    2.2007   -0.1493 C   0  0  0  0  0  0  0  0  0  0  0  0
    8.7393    1.8147   -0.7368 C   0  0  0  0  0  0  0  0  0  0  0  0
    9.9761    2.2885   -0.3543 C   0  0  0  0  0  0  0  0  0  0  0  0
   10.0618    3.2036    0.6720 C   0  0  0  0  0  0  0  0  0  0  0  0
   11.5729    3.8755    1.2398 Cl  0  0  0  0  0  0  0  0  0  0  0  0
    8.8811    3.6123    1.2856 C   0  0  0  0  0  0  0  0  0  0  0  0
    7.6539    3.1314    0.8928 C   0  0  0  0  0  0  0  0  0  0  0  0
    2.8033    0.5140   -0.3734 C   0  0  0  0  0  0  0  0  0  0  0  0
   -2.1219   -5.7653    0.2975 H   0  0  0  0  0  0  0  0  0  0  0  0
   -1.1523   -6.4406    1.7270 H   0  0  0  0  0  0  0  0  0  0  0  0
   -0.9175   -7.0770    0.0610 H   0  0  0  0  0  0  0  0  0  0  0  0
    0.4311   -5.4688   -0.6516 H   0  0  0  0  0  0  0  0  0  0  0  0
    1.9626   -4.6925    0.7484 H   0  0  0  0  0  0  0  0  0  0  0  0
    0.8940   -4.5932    2.2392 H   0  0  0  0  0  0  0  0  0  0  0  0
    1.3825   -6.1768    1.4921 H   0  0  0  0  0  0  0  0  0  0  0  0
   -1.5955   -3.7440   -0.4167 H   0  0  0  0  0  0  0  0  0  0  0  0
   -1.4997   -1.5758   -2.0029 H   0  0  0  0  0  0  0  0  0  0  0  0
   -2.2440   -1.9915   -0.4531 H   0  0  0  0  0  0  0  0  0  0  0  0
   -0.9561    1.0760   -2.2454 H   0  0  0  0  0  0  0  0  0  0  0  0
   -2.2453    3.1618   -2.2945 H   0  0  0  0  0  0  0  0  0  0  0  0
   -4.3050    3.3296   -0.9770 H   0  0  0  0  0  0  0  0  0  0  0  0
   -7.8174    0.0143    2.6452 H   0  0  0  0  0  0  0  0  0  0  0  0
   -9.9685    0.3328    3.7765 H   0  0  0  0  0  0  0  0  0  0  0  0
  -10.3185    4.1761    2.0190 H   0  0  0  0  0  0  0  0  0  0  0  0
   -8.1627    3.8193    0.9084 H   0  0  0  0  0  0  0  0  0  0  0  0
   -3.8710   -0.5877    0.4889 H   0  0  0  0  0  0  0  0  0  0  0  0
   -0.2224    0.7734    0.0700 H   0  0  0  0  0  0  0  0  0  0  0  0
    0.8585   -0.2101    1.0895 H   0  0  0  0  0  0  0  0  0  0  0  0
    0.5353   -0.6168   -2.5915 H   0  0  0  0  0  0  0  0  0  0  0  0
    2.4154   -0.1528   -4.1607 H   0  0  0  0  0  0  0  0  0  0  0  0
    4.5187    0.7552   -3.1833 H   0  0  0  0  0  0  0  0  0  0  0  0
    8.6780    1.1051   -1.5494 H   0  0  0  0  0  0  0  0  0  0  0  0
   10.8884    1.9883   -0.8370 H   0  0  0  0  0  0  0  0  0  0  0  0
    8.9610    4.3325    2.0931 H   0  0  0  0  0  0  0  0  0  0  0  0
    6.7393    3.4284    1.3392 H   0  0  0  0  0  0  0  0  0  0  0  0
    2.9373    0.6915    0.7126 H   0  0  0  0  0  0  0  0  0  0  0  0
  1  2  1  0
  2  3  1  0
  2  4  1  0
  4  5  1  0
  5  6  2  0
  5  7  1  0
  7  8  1  0
  8  9  1  0
  9 10  2  0
 10 11  1  0
 11 12  2  0
 12 13  1  0
 13 14  1  0
 14 15  3  0
 15 16  1  0
 16 17  2  0
 17 18  1  0
 18 19  2  0
 19 20  1  0
 20 21  2  0
 13 22  2  0
  7 23  1  0
 23 24  1  0
 24 25  2  0
 25 26  1  0
 26 27  2  0
 27 28  1  0
 28 29  1  0
 29 30  3  0
 30 31  1  0
 31 32  2  0
 32 33  1  0
 33 34  2  0
 34 35  1  0
 34 36  1  0
 36 37  2  0
 28 38  2  0
 22  9  1  0
 38 24  1  0
 21 16  1  0
 37 31  1  0
  1 39  1  0
  1 40  1  0
  1 41  1  0
  2 42  1  0
  3 43  1  0
  3 44  1  0
  3 45  1  0
  4 46  1  0
  8 47  1  0
  8 48  1  0
 10 49  1  0
 11 50  1  0
 12 51  1  0
 17 52  1  0
 18 53  1  0
 20 54  1  0
 21 55  1  0
 22 56  1  0
 23 57  1  0
 23 58  1  0
 25 59  1  0
 26 60  1  0
 27 61  1  0
 32 62  1  0
 33 63  1  0
 36 64  1  0
 37 65  1  0
 38 66  1  0
M  END
$$$$
