@<TRIPOS>MOLECULE
*****
 66 69 0 0 0
SMALL
GASTEIGER

@<TRIPOS>ATOM
      1 C          -1.1211   -6.1417    0.6537 C.3     1  UNL1       -0.0468
      2 C          -0.1046   -5.1188    0.3228 C.3     1  UNL1        0.0189
      3 C           1.0945   -5.0863    1.2886 C.3     1  UNL1       -0.0468
      4 N          -0.6076   -3.8074   -0.0085 N.am    1  UNL1       -0.2969
      5 C           0.0976   -2.6200    0.1404 C.2     1  UNL1        0.3030
      6 O           1.2699   -2.6113    0.6646 O.2     1  UNL1       -0.2526
      7 N          -0.3460   -1.3161   -0.2615 N.am    1  UNL1       -0.2770
      8 C          -1.5992   -1.1940   -0.9628 C.3     1  UNL1        0.0416
      9 C          -2.3133    0.0847   -0.8761 C.ar    1  UNL1       -0.0289
     10 C          -1.8641    1.1374   -1.6461 C.ar    1  UNL1       -0.0570
     11 C          -2.5768    2.3110   -1.6862 C.ar    1  UNL1       -0.0603
     12 C          -3.7124    2.4017   -0.9599 C.ar    1  UNL1       -0.0463
     13 C          -4.2230    1.3500   -0.1487 C.ar    1  UNL1        0.0256
     14 C          -5.4823    1.5594    0.4695 C.1     1  UNL1       -0.0610
     15 C          -6.5989    1.7273    1.0309 C.1     1  UNL1       -0.0609
     16 C          -7.8343    1.9304    1.6622 C.ar    1  UNL1        0.0281
     17 C          -8.3676    0.9457    2.4913 C.ar    1  UNL1       -0.0282
     18 C          -9.5783    1.1116    3.1330 C.ar    1  UNL1        0.0287
     19 N         -10.2712    2.2592    2.9569 N.ar    1  UNL1       -0.2632
     20 C          -9.8110    3.2375    2.1785 C.ar    1  UNL1        0.0287
     21 C          -8.5870    3.0732    1.5287 C.ar    1  UNL1       -0.0282
     22 C          -3.4760    0.2105   -0.1448 C.ar    1  UNL1       -0.0416
     23 C           0.4217   -0.1447    0.0523 C.3     1  UNL1        0.0416
     24 C           1.5983    0.0185   -0.8650 C.ar    1  UNL1       -0.0289
     25 C           1.4745   -0.2096   -2.2176 C.ar    1  UNL1       -0.0570
     26 C           2.4965    0.0449   -3.0747 C.ar    1  UNL1       -0.0603
     27 C           3.6740    0.5399   -2.5655 C.ar    1  UNL1       -0.0463
     28 C           3.8479    0.7887   -1.1680 C.ar    1  UNL1        0.0256
     29 C           5.1664    1.2763   -0.8144 C.1     1  UNL1       -0.0610
     30 C           6.2813    1.7099   -0.5119 C.1     1  UNL1       -0.0610
     31 C           7.5593    2.2007   -0.1493 C.ar    1  UNL1        0.0254
     32 C           8.7393    1.8147   -0.7368 C.ar    1  UNL1       -0.0449
     33 C           9.9761    2.2885   -0.3543 C.ar    1  UNL1       -0.0422
     34 C          10.0618    3.2036    0.6720 C.ar    1  UNL1        0.0410
     35 CL         11.5729    3.8755    1.2398 Cl      1  UNL1       -0.0835
     36 C           8.8811    3.6123    1.2856 C.ar    1  UNL1       -0.0422
     37 C           7.6539    3.1314    0.8928 C.ar    1  UNL1       -0.0449
     38 C           2.8033    0.5140   -0.3734 C.ar    1  UNL1       -0.0416
     39 H          -2.1219   -5.7653    0.2975 H       1  UNL1        0.0247
     40 H          -1.1523   -6.4406    1.7270 H       1  UNL1        0.0247
     41 H          -0.9175   -7.0770    0.0610 H       1  UNL1        0.0247
     42 H           0.4311   -5.4688   -0.6516 H       1  UNL1        0.0493
     43 H           1.9626   -4.6925    0.7484 H       1  UNL1        0.0247
     44 H           0.8940   -4.5932    2.2392 H       1  UNL1        0.0247
     45 H           1.3825   -6.1768    1.4921 H       1  UNL1        0.0247
     46 H          -1.5955   -3.7440   -0.4167 H       1  UNL1        0.1505
     47 H          -1.4997   -1.5758   -2.0029 H       1  UNL1        0.0514
     48 H          -2.2440   -1.9915   -0.4531 H       1  UNL1        0.0514
     49 H          -0.9561    1.0760   -2.2454 H       1  UNL1        0.0621
     50 H          -2.2453    3.1618   -2.2945 H       1  UNL1        0.0618
     51 H          -4.3050    3.3296   -0.9770 H       1  UNL1        0.0630
     52 H          -7.8174    0.0143    2.6452 H       1  UNL1        0.0645
     53 H          -9.9685    0.3328    3.7765 H       1  UNL1        0.0830
     54 H         -10.3185    4.1761    2.0190 H       1  UNL1        0.0830
     55 H          -8.1627    3.8193    0.9084 H       1  UNL1        0.0645
     56 H          -3.8710   -0.5877    0.4889 H       1  UNL1        0.0633
     57 H          -0.2224    0.7734    0.0700 H       1  UNL1        0.0514
     58 H           0.8585   -0.2101    1.0895 H       1  UNL1        0.0514
     59 H           0.5353   -0.6168   -2.5915 H       1  UNL1        0.0621
     60 H           2.4154   -0.1528   -4.1607 H       1  UNL1        0.0618
     61 H           4.5187    0.7552   -3.1833 H       1  UNL1        0.0630
     62 H           8.6780    1.1051   -1.5494 H       1  UNL1        0.0630
     63 H          10.8884    1.9883   -0.8370 H       1  UNL1        0.0632
     64 H           8.9610    4.3325    2.0931 H       1  UNL1        0.0632
     65 H           6.7393    3.4284    1.3392 H       1  UNL1        0.0630
     66 H           2.9373    0.6915    0.7126 H       1  UNL1        0.0633
@<TRIPOS>BOND
     1     1     2    1
     2     2     3    1
     3     2     4    1
     4     4     5   am
     5     5     6    2
     6     5     7   am
     7     7     8    1
     8     8     9    1
     9     9    10   ar
    10    10    11   ar
    11    11    12   ar
    12    12    13   ar
    13    13    14    1
    14    14    15    3
    15    15    16    1
    16    16    17   ar
    17    17    18   ar
    18    18    19   ar
    19    19    20   ar
    20    20    21   ar
    21    13    22   ar
    22     7    23    1
    23    23    24    1
    24    24    25   ar
    25    25    26   ar
    26    26    27   ar
    27    27    28   ar
    28    28    29    1
    29    29    30    3
    30    30    31    1
    31    31    32   ar
    32    32    33   ar
    33    33    34   ar
    34    34    35    1
    35    34    36   ar
    36    36    37   ar
    37    28    38   ar
    38    22     9   ar
    39    38    24   ar
    40    21    16   ar
    41    37    31   ar
    42     1    39    1
    43     1    40    1
    44     1    41    1
    45     2    42    1
    46     3    43    1
    47     3    44    1
    48     3    45    1
    49     4    46    1
    50     8    47    1
    51     8    48    1
    52    10    49    1
    53    11    50    1
    54    12    51    1
    55    17    52    1
    56    18    53    1
    57    20    54    1
    58    21    55    1
    59    22    56    1
    60    23    57    1
    61    23    58    1
    62    25    59    1
    63    26    60    1
    64    27    61    1
    65    32    62    1
    66    33    63    1
    67    36    64    1
    68    37    65    1
    69    38    66    1
