@<TRIPOS>MOLECULE
*****
 65 70 0 0 0
SMALL
GASTEIGER

@<TRIPOS>ATOM
      1 C          -6.4905    0.4283    2.0529 C.3     1  UNL1        0.0032
      2 N          -6.9977   -0.8057    1.4821 N.am    1  UNL1       -0.3024
      3 C          -8.4278   -1.0417    1.6003 C.3     1  UNL1        0.0032
      4 C          -6.1308   -1.7276    0.8413 C.2     1  UNL1        0.2627
      5 O          -6.5985   -2.7848    0.3591 O.2     1  UNL1       -0.2684
      6 C          -4.7047   -1.4589    0.7376 C.ar    1  UNL1        0.1070
      7 C          -3.6486   -2.0347    1.4147 C.ar    1  UNL1       -0.0209
      8 C          -2.4383   -1.5044    1.0156 C.ar    1  UNL1        0.0378
      9 C          -1.1154   -1.7045    1.3452 C.ar    1  UNL1        0.0419
     10 N          -0.1690   -0.9634    0.7048 N.ar    1  UNL1       -0.2219
     11 C          -0.5045   -0.0566   -0.2263 C.ar    1  UNL1        0.2224
     12 N           0.4554    0.7136   -0.9225 N.pl3   1  UNL1       -0.2684
     13 C           1.8435    0.4581   -0.6184 C.ar    1  UNL1        0.1251
     14 C           2.8340    1.1596   -1.2644 C.ar    1  UNL1       -0.0197
     15 C           4.1513    0.8934   -0.9641 C.ar    1  UNL1       -0.0355
     16 C           4.5222   -0.0548   -0.0346 C.ar    1  UNL1        0.0545
     17 N           5.9009   -0.3409    0.2772 N.am    1  UNL1       -0.2694
     18 C           6.6727   -1.3576   -0.3924 C.3     1  UNL1        0.0246
     19 C           8.0558   -1.2311    0.1793 C.3     1  UNL1       -0.0000
     20 C           8.9594   -0.3368   -0.6058 C.3     1  UNL1        0.0009
     21 N           9.2356    0.8466    0.1813 N.3     1  UNL1       -0.3149
     22 C           9.1226    0.4141    1.5559 C.3     1  UNL1        0.0074
     23 C           7.9046   -0.4935    1.4953 C.3     1  UNL1        0.0539
     24 C           6.6854    0.3090    1.2622 C.2     1  UNL1        0.2245
     25 O           6.4251    1.3914    1.8641 O.2     1  UNL1       -0.2749
     26 C           3.4833   -0.7243    0.5813 C.ar    1  UNL1        0.0511
     27 N           2.1990   -0.4649    0.2879 N.ar    1  UNL1       -0.2383
     28 N          -1.7984    0.1202   -0.5302 N.ar    1  UNL1       -0.1962
     29 C          -2.7989   -0.5587    0.0440 C.ar    1  UNL1        0.1466
     30 N          -4.1357   -0.5499   -0.1012 N.ar    1  UNL1       -0.3180
     31 C          -4.8805    0.2814   -0.9972 C.3     1  UNL1        0.0366
     32 C          -4.4972    1.7541   -0.8919 C.3     1  UNL1       -0.0320
     33 C          -5.2138    2.3224   -2.1200 C.3     1  UNL1       -0.0511
     34 C          -5.1449    1.2326   -3.1550 C.3     1  UNL1       -0.0511
     35 C          -4.5785   -0.0002   -2.4535 C.3     1  UNL1       -0.0320
     36 H          -5.4184    0.4051    2.2501 H       1  UNL1        0.0428
     37 H          -7.0837    0.6198    2.9968 H       1  UNL1        0.0428
     38 H          -6.6870    1.2988    1.3930 H       1  UNL1        0.0428
     39 H          -8.6649   -1.0768    2.6762 H       1  UNL1        0.0428
     40 H          -9.0255   -0.2510    1.1124 H       1  UNL1        0.0428
     41 H          -8.6200   -2.0494    1.1792 H       1  UNL1        0.0428
     42 H          -3.7619   -2.8080    2.1671 H       1  UNL1        0.0647
     43 H          -0.8913   -2.4430    2.0973 H       1  UNL1        0.0838
     44 H           0.1946    1.4315   -1.6178 H       1  UNL1        0.1564
     45 H           2.5486    1.9104   -2.0051 H       1  UNL1        0.0652
     46 H           4.9325    1.4556   -1.4801 H       1  UNL1        0.0638
     47 H           6.6659   -1.3063   -1.4898 H       1  UNL1        0.0472
     48 H           6.2443   -2.3723   -0.1344 H       1  UNL1        0.0472
     49 H           8.4791   -2.2347    0.3941 H       1  UNL1        0.0336
     50 H           9.9081   -0.8886   -0.8512 H       1  UNL1        0.0427
     51 H           8.4721    0.0311   -1.5526 H       1  UNL1        0.0427
     52 H           8.5047    1.5510    0.0015 H       1  UNL1        0.1220
     53 H           8.8863    1.2525    2.2504 H       1  UNL1        0.0431
     54 H          10.0182   -0.1421    1.8974 H       1  UNL1        0.0431
     55 H           7.8436   -1.1730    2.3465 H       1  UNL1        0.0410
     56 H           3.7828   -1.4718    1.3215 H       1  UNL1        0.0849
     57 H          -5.9652    0.1677   -0.8688 H       1  UNL1        0.0528
     58 H          -3.4261    1.8906   -1.0529 H       1  UNL1        0.0285
     59 H          -4.8772    2.2092    0.0398 H       1  UNL1        0.0285
     60 H          -4.7117    3.2447   -2.4356 H       1  UNL1        0.0266
     61 H          -6.2639    2.5314   -1.7829 H       1  UNL1        0.0266
     62 H          -4.5154    1.5474   -4.0008 H       1  UNL1        0.0266
     63 H          -6.1922    1.0046   -3.4712 H       1  UNL1        0.0266
     64 H          -5.0668   -0.9229   -2.8171 H       1  UNL1        0.0285
     65 H          -3.4871    0.0038   -2.5676 H       1  UNL1        0.0285
@<TRIPOS>BOND
     1     1     2    1
     2     2     3    1
     3     2     4   am
     4     4     5    2
     5     4     6    1
     6     6     7   ar
     7     7     8   ar
     8     8     9   ar
     9     9    10   ar
    10    10    11   ar
    11    11    12    1
    12    12    13    1
    13    13    14   ar
    14    14    15   ar
    15    15    16   ar
    16    16    17    1
    17    17    18    1
    18    18    19    1
    19    19    20    1
    20    20    21    1
    21    21    22    1
    22    22    23    1
    23    23    24    1
    24    24    25    2
    25    16    26   ar
    26    26    27   ar
    27    11    28   ar
    28    28    29   ar
    29    29    30   ar
    30    30    31    1
    31    31    32    1
    32    32    33    1
    33    33    34    1
    34    34    35    1
    35    30     6   ar
    36    35    31    1
    37    29     8   ar
    38    27    13   ar
    39    24    17   am
    40    23    19    1
    41     1    36    1
    42     1    37    1
    43     1    38    1
    44     3    39    1
    45     3    40    1
    46     3    41    1
    47     7    42    1
    48     9    43    1
    49    12    44    1
    50    14    45    1
    51    15    46    1
    52    18    47    1
    53    18    48    1
    54    19    49    1
    55    20    50    1
    56    20    51    1
    57    21    52    1
    58    22    53    1
    59    22    54    1
    60    23    55    1
    61    26    56    1
    62    31    57    1
    63    32    58    1
    64    32    59    1
    65    33    60    1
    66    33    61    1
    67    34    62    1
    68    34    63    1
    69    35    64    1
    70    35    65    1
