
     RDKit          3D

 65 70  0  0  0  0  0  0  0  0999 V2000
   -6.4905    0.4283    2.0529 C   0  0  0  0  0  0  0  0  0  0  0  0
   -6.9977   -0.8057    1.4821 N   0  0  0  0  0  0  0  0  0  0  0  0
   -8.4278   -1.0417    1.6003 C   0  0  0  0  0  0  0  0  0  0  0  0
   -6.1308   -1.7276    0.8413 C   0  0  0  0  0  0  0  0  0  0  0  0
   -6.5985   -2.7848    0.3591 O   0  0  0  0  0  0  0  0  0  0  0  0
   -4.7047   -1.4589    0.7376 C   0  0  0  0  0  0  0  0  0  0  0  0
   -3.6486   -2.0347    1.4147 C   0  0  0  0  0  0  0  0  0  0  0  0
   -2.4383   -1.5044    1.0156 C   0  0  0  0  0  0  0  0  0  0  0  0
   -1.1154   -1.7045    1.3452 C   0  0  0  0  0  0  0  0  0  0  0  0
   -0.1690   -0.9634    0.7048 N   0  0  0  0  0  0  0  0  0  0  0  0
   -0.5045   -0.0566   -0.2263 C   0  0  0  0  0  0  0  0  0  0  0  0
    0.4554    0.7136   -0.9225 N   0  0  0  0  0  0  0  0  0  0  0  0
    1.8435    0.4581   -0.6184 C   0  0  0  0  0  0  0  0  0  0  0  0
    2.8340    1.1596   -1.2644 C   0  0  0  0  0  0  0  0  0  0  0  0
    4.1513    0.8934   -0.9641 C   0  0  0  0  0  0  0  0  0  0  0  0
    4.5222   -0.0548   -0.0346 C   0  0  0  0  0  0  0  0  0  0  0  0
    5.9009   -0.3409    0.2772 N   0  0  0  0  0  0  0  0  0  0  0  0
    6.6727   -1.3576   -0.3924 C   0  0  0  0  0  0  0  0  0  0  0  0
    8.0558   -1.2311    0.1793 C   0  0  1  0  0  0  0  0  0  0  0  0
    8.9594   -0.3368   -0.6058 C   0  0  0  0  0  0  0  0  0  0  0  0
    9.2356    0.8466    0.1813 N   0  0  0  0  0  0  0  0  0  0  0  0
    9.1226    0.4141    1.5559 C   0  0  0  0  0  0  0  0  0  0  0  0
    7.9046   -0.4935    1.4953 C   0  0  1  0  0  0  0  0  0  0  0  0
    6.6854    0.3090    1.2622 C   0  0  0  0  0  0  0  0  0  0  0  0
    6.4251    1.3914    1.8641 O   0  0  0  0  0  0  0  0  0  0  0  0
    3.4833   -0.7243    0.5813 C   0  0  0  0  0  0  0  0  0  0  0  0
    2.1990   -0.4649    0.2879 N   0  0  0  0  0  0  0  0  0  0  0  0
   -1.7984    0.1202   -0.5302 N   0  0  0  0  0  0  0  0  0  0  0  0
   -2.7989   -0.5587    0.0440 C   0  0  0  0  0  0  0  0  0  0  0  0
   -4.1357   -0.5499   -0.1012 N   0  0  0  0  0  0  0  0  0  0  0  0
   -4.8805    0.2814   -0.9972 C   0  0  0  0  0  0  0  0  0  0  0  0
   -4.4972    1.7541   -0.8919 C   0  0  0  0  0  0  0  0  0  0  0  0
   -5.2138    2.3224   -2.1200 C   0  0  0  0  0  0  0  0  0  0  0  0
   -5.1449    1.2326   -3.1550 C   0  0  0  0  0  0  0  0  0  0  0  0
   -4.5785   -0.0002   -2.4535 C   0  0  0  0  0  0  0  0  0  0  0  0
   -5.4184    0.4051    2.2501 H   0  0  0  0  0  0  0  0  0  0  0  0
   -7.0837    0.6198    2.9968 H   0  0  0  0  0  0  0  0  0  0  0  0
   -6.6870    1.2988    1.3930 H   0  0  0  0  0  0  0  0  0  0  0  0
   -8.6649   -1.0768    2.6762 H   0  0  0  0  0  0  0  0  0  0  0  0
   -9.0255   -0.2510    1.1124 H   0  0  0  0  0  0  0  0  0  0  0  0
   -8.6200   -2.0494    1.1792 H   0  0  0  0  0  0  0  0  0  0  0  0
   -3.7619   -2.8080    2.1671 H   0  0  0  0  0  0  0  0  0  0  0  0
   -0.8913   -2.4430    2.0973 H   0  0  0  0  0  0  0  0  0  0  0  0
    0.1946    1.4315   -1.6178 H   0  0  0  0  0  0  0  0  0  0  0  0
    2.5486    1.9104   -2.0051 H   0  0  0  0  0  0  0  0  0  0  0  0
    4.9325    1.4556   -1.4801 H   0  0  0  0  0  0  0  0  0  0  0  0
    6.6659   -1.3063   -1.4898 H   0  0  0  0  0  0  0  0  0  0  0  0
    6.2443   -2.3723   -0.1344 H   0  0  0  0  0  0  0  0  0  0  0  0
    8.4791   -2.2347    0.3941 H   0  0  0  0  0  0  0  0  0  0  0  0
    9.9081   -0.8886   -0.8512 H   0  0  0  0  0  0  0  0  0  0  0  0
    8.4721    0.0311   -1.5526 H   0  0  0  0  0  0  0  0  0  0  0  0
    8.5047    1.5510    0.0015 H   0  0  0  0  0  0  0  0  0  0  0  0
    8.8863    1.2525    2.2504 H   0  0  0  0  0  0  0  0  0  0  0  0
   10.0182   -0.1421    1.8974 H   0  0  0  0  0  0  0  0  0  0  0  0
    7.8436   -1.1730    2.3465 H   0  0  0  0  0  0  0  0  0  0  0  0
    3.7828   -1.4718    1.3215 H   0  0  0  0  0  0  0  0  0  0  0  0
   -5.9652    0.1677   -0.8688 H   0  0  0  0  0  0  0  0  0  0  0  0
   -3.4261    1.8906   -1.0529 H   0  0  0  0  0  0  0  0  0  0  0  0
   -4.8772    2.2092    0.0398 H   0  0  0  0  0  0  0  0  0  0  0  0
   -4.7117    3.2447   -2.4356 H   0  0  0  0  0  0  0  0  0  0  0  0
   -6.2639    2.5314   -1.7829 H   0  0  0  0  0  0  0  0  0  0  0  0
   -4.5154    1.5474   -4.0008 H   0  0  0  0  0  0  0  0  0  0  0  0
   -6.1922    1.0046   -3.4712 H   0  0  0  0  0  0  0  0  0  0  0  0
   -5.0668   -0.9229   -2.8171 H   0  0  0  0  0  0  0  0  0  0  0  0
   -3.4871    0.0038   -2.5676 H   0  0  0  0  0  0  0  0  0  0  0  0
  1  2  1  0
  2  3  1  0
  2  4  1  0
  4  5  2  0
  4  6  1  0
  6  7  2  0
  7  8  1  0
  8  9  2  0
  9 10  1  0
 10 11  2  0
 11 12  1  0
 12 13  1  0
 13 14  2  0
 14 15  1  0
 15 16  2  0
 16 17  1  0
 17 18  1  0
 18 19  1  0
 19 20  1  0
 20 21  1  0
 21 22  1  0
 22 23  1  0
 23 24  1  0
 24 25  2  0
 16 26  1  0
 26 27  2  0
 11 28  1  0
 28 29  2  0
 29 30  1  0
 30 31  1  0
 31 32  1  0
 32 33  1  0
 33 34  1  0
 34 35  1  0
 30  6  1  0
 35 31  1  0
 29  8  1  0
 27 13  1  0
 24 17  1  0
 23 19  1  0
  1 36  1  0
  1 37  1  0
  1 38  1  0
  3 39  1  0
  3 40  1  0
  3 41  1  0
  7 42  1  0
  9 43  1  0
 12 44  1  0
 14 45  1  0
 15 46  1  0
 18 47  1  0
 18 48  1  0
 19 49  1  1
 20 50  1  0
 20 51  1  0
 21 52  1  0
 22 53  1  0
 22 54  1  0
 23 55  1  1
 26 56  1  0
 31 57  1  0
 32 58  1  0
 32 59  1  0
 33 60  1  0
 33 61  1  0
 34 62  1  0
 34 63  1  0
 35 64  1  0
 35 65  1  0
M  END
$$$$
