@<TRIPOS>MOLECULE
*****
 80 86 0 0 0
SMALL
GASTEIGER

@<TRIPOS>ATOM
      1 C          -7.3496   -0.8037   -0.0917 C.3     1  UNL1       -0.0380
      2 C          -7.7960    0.6023   -0.0143 C.ar    1  UNL1       -0.0279
      3 C          -9.1192    0.8676   -0.3840 C.ar    1  UNL1       -0.0557
      4 C          -9.6707    2.1258   -0.3089 C.ar    1  UNL1       -0.0433
      5 C          -8.8577    3.1477    0.1550 C.ar    1  UNL1        0.0279
      6 N          -7.6082    2.8835    0.5005 N.ar    1  UNL1       -0.2583
      7 C          -7.0360    1.6426    0.4344 C.ar    1  UNL1        0.0581
      8 C          -5.6096    1.4763    0.7936 C.3     1  UNL1        0.0415
      9 N          -4.7044    1.6144   -0.2616 N.3     1  UNL1       -0.2965
     10 C          -4.7386    0.8481   -1.4259 C.3     1  UNL1        0.0017
     11 C          -4.0001   -0.4693   -1.3912 C.3     1  UNL1       -0.0095
     12 C          -2.8240   -0.5048   -0.4911 C.3     1  UNL1        0.1240
     13 C          -2.7712    0.5345    0.5734 C.3     1  UNL1       -0.0095
     14 C          -3.3488    1.8620    0.1365 C.3     1  UNL1        0.0017
     15 C          -1.5098   -0.4776   -1.2320 C.2     1  UNL1        0.2516
     16 O          -1.3096   -0.1094   -2.4160 O.2     1  UNL1       -0.2724
     17 N          -0.5229   -0.9612   -0.3062 N.am    1  UNL1       -0.1920
     18 C           0.8620   -0.6630   -0.2830 C.ar    1  UNL1        0.0455
     19 C           1.7315   -1.1753    0.6489 C.ar    1  UNL1       -0.0392
     20 C           3.0811   -0.8647    0.6549 C.ar    1  UNL1       -0.0523
     21 C           3.5853   -0.0238   -0.2875 C.ar    1  UNL1       -0.0178
     22 C           5.0310    0.2745   -0.2209 C.ar    1  UNL1       -0.0178
     23 C           5.6457    0.3039    1.0108 C.ar    1  UNL1       -0.0523
     24 C           6.9855    0.5759    1.1433 C.ar    1  UNL1       -0.0401
     25 C           7.7570    0.8310    0.0116 C.ar    1  UNL1        0.0298
     26 N           9.1369    1.1201    0.1156 N.pl3   1  UNL1       -0.3255
     27 C           9.8039    1.2686    1.4058 C.3     1  UNL1        0.0357
     28 C          10.9922    2.1904    1.1324 C.3     1  UNL1        0.0634
     29 O          11.9354    1.5543    0.3316 O.3     1  UNL1       -0.3767
     30 C          11.3711    0.8048   -0.6706 C.3     1  UNL1        0.0634
     31 C           9.9658    1.2815   -1.0594 C.3     1  UNL1        0.0357
     32 C           7.1143    0.7942   -1.2047 C.ar    1  UNL1       -0.0401
     33 C           5.7712    0.5217   -1.3382 C.ar    1  UNL1       -0.0523
     34 C           2.7540    0.5013   -1.2250 C.ar    1  UNL1       -0.0523
     35 C           1.3905    0.1866   -1.2296 C.ar    1  UNL1       -0.0392
     36 C          -1.2767   -1.8053    0.5812 C.2     1  UNL1        0.3219
     37 O          -0.8434   -2.4586    1.5659 O.2     1  UNL1       -0.2512
     38 N          -2.6597   -1.8082    0.1793 N.am    1  UNL1       -0.2240
     39 C          -3.6336   -2.8155    0.3751 C.ar    1  UNL1        0.1364
     40 C          -3.8943   -3.8447   -0.5043 C.ar    1  UNL1        0.0432
     41 C          -4.8716   -4.7907   -0.2293 C.ar    1  UNL1        0.2531
     42 O          -5.1158   -5.7335   -1.0271 O.2     1  UNL1       -0.2678
     43 N          -5.5903   -4.7219    0.9099 N.ar    1  UNL1       -0.3133
     44 C          -5.3199   -3.7111    1.7524 C.ar    1  UNL1        0.0981
     45 N          -4.3751   -2.7909    1.4939 N.ar    1  UNL1       -0.2220
     46 H          -8.1982   -1.4848    0.2196 H       1  UNL1        0.0278
     47 H          -7.1651   -1.0723   -1.1471 H       1  UNL1        0.0278
     48 H          -6.4411   -1.0051    0.4824 H       1  UNL1        0.0278
     49 H          -9.7379    0.0519   -0.7443 H       1  UNL1        0.0621
     50 H         -10.6975    2.2765   -0.6072 H       1  UNL1        0.0633
     51 H          -9.3109    4.1299    0.2071 H       1  UNL1        0.0829
     52 H          -5.4605    0.5444    1.4085 H       1  UNL1        0.0491
     53 H          -5.4117    2.2952    1.5586 H       1  UNL1        0.0491
     54 H          -5.7344    0.6594   -1.8816 H       1  UNL1        0.0427
     55 H          -4.2219    1.4661   -2.2358 H       1  UNL1        0.0427
     56 H          -4.6983   -1.2541   -1.1041 H       1  UNL1        0.0303
     57 H          -3.6082   -0.6416   -2.4393 H       1  UNL1        0.0303
     58 H          -1.7077    0.7288    0.8400 H       1  UNL1        0.0303
     59 H          -3.2645    0.1922    1.5000 H       1  UNL1        0.0303
     60 H          -2.7929    2.2752   -0.7124 H       1  UNL1        0.0427
     61 H          -3.3628    2.5113    1.0318 H       1  UNL1        0.0427
     62 H           1.3704   -1.8374    1.4017 H       1  UNL1        0.0636
     63 H           3.7168   -1.3008    1.4160 H       1  UNL1        0.0624
     64 H           5.0862    0.1111    1.9392 H       1  UNL1        0.0624
     65 H           7.4864    0.6025    2.1091 H       1  UNL1        0.0636
     66 H          10.1033    0.3117    1.8493 H       1  UNL1        0.0486
     67 H           9.1075    1.8302    2.0651 H       1  UNL1        0.0486
     68 H          11.4813    2.4650    2.0807 H       1  UNL1        0.0575
     69 H          10.5995    3.1117    0.6658 H       1  UNL1        0.0575
     70 H          11.9964    0.7497   -1.5891 H       1  UNL1        0.0575
     71 H          11.2206   -0.2333   -0.2558 H       1  UNL1        0.0575
     72 H           9.6532    0.5907   -1.8763 H       1  UNL1        0.0486
     73 H          10.0264    2.3367   -1.3967 H       1  UNL1        0.0486
     74 H           7.6783    0.9895   -2.1292 H       1  UNL1        0.0636
     75 H           5.3130    0.5045   -2.3079 H       1  UNL1        0.0624
     76 H           3.1655    1.1671   -1.9671 H       1  UNL1        0.0624
     77 H           0.8284    0.6557   -2.0101 H       1  UNL1        0.0636
     78 H          -3.3214   -3.9001   -1.4141 H       1  UNL1        0.0706
     79 H          -6.3414   -5.4402    1.1321 H       1  UNL1        0.1698
     80 H          -5.9141   -3.6674    2.6779 H       1  UNL1        0.1028
@<TRIPOS>BOND
     1     1     2    1
     2     2     3   ar
     3     3     4   ar
     4     4     5   ar
     5     5     6   ar
     6     6     7   ar
     7     7     8    1
     8     8     9    1
     9     9    10    1
    10    10    11    1
    11    11    12    1
    12    12    13    1
    13    13    14    1
    14    12    15    1
    15    15    16    2
    16    15    17   am
    17    17    18    1
    18    18    19   ar
    19    19    20   ar
    20    20    21   ar
    21    21    22    1
    22    22    23   ar
    23    23    24   ar
    24    24    25   ar
    25    25    26    1
    26    26    27    1
    27    27    28    1
    28    28    29    1
    29    29    30    1
    30    30    31    1
    31    25    32   ar
    32    32    33   ar
    33    21    34   ar
    34    34    35   ar
    35    17    36   am
    36    36    37    2
    37    36    38   am
    38    38    39    1
    39    39    40   ar
    40    40    41   ar
    41    41    42    2
    42    41    43   ar
    43    43    44   ar
    44    44    45   ar
    45     7     2   ar
    46    14     9    1
    47    35    18   ar
    48    45    39   ar
    49    38    12    1
    50    33    22   ar
    51    31    26    1
    52     1    46    1
    53     1    47    1
    54     1    48    1
    55     3    49    1
    56     4    50    1
    57     5    51    1
    58     8    52    1
    59     8    53    1
    60    10    54    1
    61    10    55    1
    62    11    56    1
    63    11    57    1
    64    13    58    1
    65    13    59    1
    66    14    60    1
    67    14    61    1
    68    19    62    1
    69    20    63    1
    70    23    64    1
    71    24    65    1
    72    27    66    1
    73    27    67    1
    74    28    68    1
    75    28    69    1
    76    30    70    1
    77    30    71    1
    78    31    72    1
    79    31    73    1
    80    32    74    1
    81    33    75    1
    82    34    76    1
    83    35    77    1
    84    40    78    1
    85    43    79    1
    86    44    80    1
