
     RDKit          3D

 80 86  0  0  0  0  0  0  0  0999 V2000
   -7.3496   -0.8037   -0.0917 C   0  0  0  0  0  0  0  0  0  0  0  0
   -7.7960    0.6023   -0.0143 C   0  0  0  0  0  0  0  0  0  0  0  0
   -9.1192    0.8676   -0.3840 C   0  0  0  0  0  0  0  0  0  0  0  0
   -9.6707    2.1258   -0.3089 C   0  0  0  0  0  0  0  0  0  0  0  0
   -8.8577    3.1477    0.1550 C   0  0  0  0  0  0  0  0  0  0  0  0
   -7.6082    2.8835    0.5005 N   0  0  0  0  0  0  0  0  0  0  0  0
   -7.0360    1.6426    0.4344 C   0  0  0  0  0  0  0  0  0  0  0  0
   -5.6096    1.4763    0.7936 C   0  0  0  0  0  0  0  0  0  0  0  0
   -4.7044    1.6144   -0.2616 N   0  0  0  0  0  0  0  0  0  0  0  0
   -4.7386    0.8481   -1.4259 C   0  0  0  0  0  0  0  0  0  0  0  0
   -4.0001   -0.4693   -1.3912 C   0  0  0  0  0  0  0  0  0  0  0  0
   -2.8240   -0.5048   -0.4911 C   0  0  0  0  0  0  0  0  0  0  0  0
   -2.7712    0.5345    0.5734 C   0  0  0  0  0  0  0  0  0  0  0  0
   -3.3488    1.8620    0.1365 C   0  0  0  0  0  0  0  0  0  0  0  0
   -1.5098   -0.4776   -1.2320 C   0  0  0  0  0  0  0  0  0  0  0  0
   -1.3096   -0.1094   -2.4160 O   0  0  0  0  0  0  0  0  0  0  0  0
   -0.5229   -0.9612   -0.3062 N   0  0  0  0  0  0  0  0  0  0  0  0
    0.8620   -0.6630   -0.2830 C   0  0  0  0  0  0  0  0  0  0  0  0
    1.7315   -1.1753    0.6489 C   0  0  0  0  0  0  0  0  0  0  0  0
    3.0811   -0.8647    0.6549 C   0  0  0  0  0  0  0  0  0  0  0  0
    3.5853   -0.0238   -0.2875 C   0  0  0  0  0  0  0  0  0  0  0  0
    5.0310    0.2745   -0.2209 C   0  0  0  0  0  0  0  0  0  0  0  0
    5.6457    0.3039    1.0108 C   0  0  0  0  0  0  0  0  0  0  0  0
    6.9855    0.5759    1.1433 C   0  0  0  0  0  0  0  0  0  0  0  0
    7.7570    0.8310    0.0116 C   0  0  0  0  0  0  0  0  0  0  0  0
    9.1369    1.1201    0.1156 N   0  0  0  0  0  0  0  0  0  0  0  0
    9.8039    1.2686    1.4058 C   0  0  0  0  0  0  0  0  0  0  0  0
   10.9922    2.1904    1.1324 C   0  0  0  0  0  0  0  0  0  0  0  0
   11.9354    1.5543    0.3316 O   0  0  0  0  0  0  0  0  0  0  0  0
   11.3711    0.8048   -0.6706 C   0  0  0  0  0  0  0  0  0  0  0  0
    9.9658    1.2815   -1.0594 C   0  0  0  0  0  0  0  0  0  0  0  0
    7.1143    0.7942   -1.2047 C   0  0  0  0  0  0  0  0  0  0  0  0
    5.7712    0.5217   -1.3382 C   0  0  0  0  0  0  0  0  0  0  0  0
    2.7540    0.5013   -1.2250 C   0  0  0  0  0  0  0  0  0  0  0  0
    1.3905    0.1866   -1.2296 C   0  0  0  0  0  0  0  0  0  0  0  0
   -1.2767   -1.8053    0.5812 C   0  0  0  0  0  0  0  0  0  0  0  0
   -0.8434   -2.4586    1.5659 O   0  0  0  0  0  0  0  0  0  0  0  0
   -2.6597   -1.8082    0.1793 N   0  0  0  0  0  0  0  0  0  0  0  0
   -3.6336   -2.8155    0.3751 C   0  0  0  0  0  0  0  0  0  0  0  0
   -3.8943   -3.8447   -0.5043 C   0  0  0  0  0  0  0  0  0  0  0  0
   -4.8716   -4.7907   -0.2293 C   0  0  0  0  0  0  0  0  0  0  0  0
   -5.1158   -5.7335   -1.0271 O   0  0  0  0  0  0  0  0  0  0  0  0
   -5.5903   -4.7219    0.9099 N   0  0  0  0  0  0  0  0  0  0  0  0
   -5.3199   -3.7111    1.7524 C   0  0  0  0  0  0  0  0  0  0  0  0
   -4.3751   -2.7909    1.4939 N   0  0  0  0  0  0  0  0  0  0  0  0
   -8.1982   -1.4848    0.2196 H   0  0  0  0  0  0  0  0  0  0  0  0
   -7.1651   -1.0723   -1.1471 H   0  0  0  0  0  0  0  0  0  0  0  0
   -6.4411   -1.0051    0.4824 H   0  0  0  0  0  0  0  0  0  0  0  0
   -9.7379    0.0519   -0.7443 H   0  0  0  0  0  0  0  0  0  0  0  0
  -10.6975    2.2765   -0.6072 H   0  0  0  0  0  0  0  0  0  0  0  0
   -9.3109    4.1299    0.2071 H   0  0  0  0  0  0  0  0  0  0  0  0
   -5.4605    0.5444    1.4085 H   0  0  0  0  0  0  0  0  0  0  0  0
   -5.4117    2.2952    1.5586 H   0  0  0  0  0  0  0  0  0  0  0  0
   -5.7344    0.6594   -1.8816 H   0  0  0  0  0  0  0  0  0  0  0  0
   -4.2219    1.4661   -2.2358 H   0  0  0  0  0  0  0  0  0  0  0  0
   -4.6983   -1.2541   -1.1041 H   0  0  0  0  0  0  0  0  0  0  0  0
   -3.6082   -0.6416   -2.4393 H   0  0  0  0  0  0  0  0  0  0  0  0
   -1.7077    0.7288    0.8400 H   0  0  0  0  0  0  0  0  0  0  0  0
   -3.2645    0.1922    1.5000 H   0  0  0  0  0  0  0  0  0  0  0  0
   -2.7929    2.2752   -0.7124 H   0  0  0  0  0  0  0  0  0  0  0  0
   -3.3628    2.5113    1.0318 H   0  0  0  0  0  0  0  0  0  0  0  0
    1.3704   -1.8374    1.4017 H   0  0  0  0  0  0  0  0  0  0  0  0
    3.7168   -1.3008    1.4160 H   0  0  0  0  0  0  0  0  0  0  0  0
    5.0862    0.1111    1.9392 H   0  0  0  0  0  0  0  0  0  0  0  0
    7.4864    0.6025    2.1091 H   0  0  0  0  0  0  0  0  0  0  0  0
   10.1033    0.3117    1.8493 H   0  0  0  0  0  0  0  0  0  0  0  0
    9.1075    1.8302    2.0651 H   0  0  0  0  0  0  0  0  0  0  0  0
   11.4813    2.4650    2.0807 H   0  0  0  0  0  0  0  0  0  0  0  0
   10.5995    3.1117    0.6658 H   0  0  0  0  0  0  0  0  0  0  0  0
   11.9964    0.7497   -1.5891 H   0  0  0  0  0  0  0  0  0  0  0  0
   11.2206   -0.2333   -0.2558 H   0  0  0  0  0  0  0  0  0  0  0  0
    9.6532    0.5907   -1.8763 H   0  0  0  0  0  0  0  0  0  0  0  0
   10.0264    2.3367   -1.3967 H   0  0  0  0  0  0  0  0  0  0  0  0
    7.6783    0.9895   -2.1292 H   0  0  0  0  0  0  0  0  0  0  0  0
    5.3130    0.5045   -2.3079 H   0  0  0  0  0  0  0  0  0  0  0  0
    3.1655    1.1671   -1.9671 H   0  0  0  0  0  0  0  0  0  0  0  0
    0.8284    0.6557   -2.0101 H   0  0  0  0  0  0  0  0  0  0  0  0
   -3.3214   -3.9001   -1.4141 H   0  0  0  0  0  0  0  0  0  0  0  0
   -6.3414   -5.4402    1.1321 H   0  0  0  0  0  0  0  0  0  0  0  0
   -5.9141   -3.6674    2.6779 H   0  0  0  0  0  0  0  0  0  0  0  0
  1  2  1  0
  2  3  2  0
  3  4  1  0
  4  5  2  0
  5  6  1  0
  6  7  2  0
  7  8  1  0
  8  9  1  0
  9 10  1  0
 10 11  1  0
 11 12  1  0
 12 13  1  0
 13 14  1  0
 12 15  1  0
 15 16  2  0
 15 17  1  0
 17 18  1  0
 18 19  2  0
 19 20  1  0
 20 21  2  0
 21 22  1  0
 22 23  2  0
 23 24  1  0
 24 25  2  0
 25 26  1  0
 26 27  1  0
 27 28  1  0
 28 29  1  0
 29 30  1  0
 30 31  1  0
 25 32  1  0
 32 33  2  0
 21 34  1  0
 34 35  2  0
 17 36  1  0
 36 37  2  0
 36 38  1  0
 38 39  1  0
 39 40  2  0
 40 41  1  0
 41 42  2  0
 41 43  1  0
 43 44  1  0
 44 45  2  0
  7  2  1  0
 14  9  1  0
 35 18  1  0
 45 39  1  0
 38 12  1  0
 33 22  1  0
 31 26  1  0
  1 46  1  0
  1 47  1  0
  1 48  1  0
  3 49  1  0
  4 50  1  0
  5 51  1  0
  8 52  1  0
  8 53  1  0
 10 54  1  0
 10 55  1  0
 11 56  1  0
 11 57  1  0
 13 58  1  0
 13 59  1  0
 14 60  1  0
 14 61  1  0
 19 62  1  0
 20 63  1  0
 23 64  1  0
 24 65  1  0
 27 66  1  0
 27 67  1  0
 28 68  1  0
 28 69  1  0
 30 70  1  0
 30 71  1  0
 31 72  1  0
 31 73  1  0
 32 74  1  0
 33 75  1  0
 34 76  1  0
 35 77  1  0
 40 78  1  0
 43 79  1  0
 44 80  1  0
M  END
$$$$
