
     RDKit          3D

 59 61  0  0  0  0  0  0  0  0999 V2000
    0.3325    2.5300   -1.7680 O   0  0  0  0  0  0  0  0  0  0  0  0
    0.0343    1.6981   -2.6756 C   0  0  0  0  0  0  0  0  0  0  0  0
   -0.6968    0.4869   -2.2454 C   0  0  0  0  0  0  0  0  0  0  0  0
   -0.9570    0.4613   -0.7618 C   0  0  1  0  0  0  0  0  0  0  0  0
   -1.7095   -0.8365   -0.4932 C   0  0  0  0  0  0  0  0  0  0  0  0
   -2.0615   -1.0354    0.9202 C   0  0  0  0  0  0  0  0  0  0  0  0
   -2.9498   -0.0675    1.5894 C   0  0  0  0  0  0  0  0  0  0  0  0
   -4.3348    0.0829    1.1114 C   0  0  0  0  0  0  0  0  0  0  0  0
   -4.5771    0.5000   -0.2870 C   0  0  0  0  0  0  0  0  0  0  0  0
   -5.9519    1.1694   -0.3325 C   0  0  0  0  0  0  0  0  0  0  0  0
   -6.8284    0.7033    0.7832 C   0  0  0  0  0  0  0  0  0  0  0  0
   -6.6374   -0.7241    1.1640 C   0  0  0  0  0  0  0  0  0  0  0  0
   -5.2019   -1.1414    1.3684 C   0  0  0  0  0  0  0  0  0  0  0  0
    0.3545    0.4258   -0.0093 C   0  0  0  0  0  0  0  0  0  0  0  0
    1.3113   -0.4993   -0.0790 N   0  0  0  0  0  0  0  0  0  0  0  0
    2.3309   -0.1618    0.7571 C   0  0  0  0  0  0  0  0  0  0  0  0
    3.5644   -0.8830    0.9916 C   0  0  0  0  0  0  0  0  0  0  0  0
    3.8267   -1.9604    0.4058 O   0  0  0  0  0  0  0  0  0  0  0  0
    4.5098   -0.3648    1.9082 N   0  0  0  0  0  0  0  0  0  0  0  0
    5.7762   -1.0314    2.1998 C   0  0  0  0  0  0  0  0  0  0  0  0
    6.6948   -0.7973    1.0763 C   0  0  0  0  0  0  0  0  0  0  0  0
    7.5199    0.3174    1.1114 C   0  0  0  0  0  0  0  0  0  0  0  0
    8.3737    0.5181    0.0479 C   0  0  0  0  0  0  0  0  0  0  0  0
    8.3929   -0.3760   -1.0138 C   0  0  0  0  0  0  0  0  0  0  0  0
    7.5615   -1.4733   -1.0192 C   0  0  0  0  0  0  0  0  0  0  0  0
    6.7441   -1.6438    0.0242 N   0  0  0  0  0  0  0  0  0  0  0  0
    1.9541    0.9939    1.3294 N   0  0  0  0  0  0  0  0  0  0  0  0
    0.7976    1.3027    0.8568 O   0  0  0  0  0  0  0  0  0  0  0  0
    0.4060    1.9674   -4.0032 N   0  0  0  0  0  0  0  0  0  0  0  0
    1.0726    3.0965   -4.3153 O   0  0  0  0  0  0  0  0  0  0  0  0
   -1.6885    0.5009   -2.7430 H   0  0  0  0  0  0  0  0  0  0  0  0
   -0.2022   -0.4480   -2.5721 H   0  0  0  0  0  0  0  0  0  0  0  0
   -1.4855    1.3608   -0.4718 H   0  0  0  0  0  0  0  0  0  0  0  0
   -0.9469   -1.6420   -0.7525 H   0  0  0  0  0  0  0  0  0  0  0  0
   -2.4747   -0.9382   -1.2513 H   0  0  0  0  0  0  0  0  0  0  0  0
   -2.5767   -2.0451    0.9876 H   0  0  0  0  0  0  0  0  0  0  0  0
   -1.1046   -1.2170    1.4816 H   0  0  0  0  0  0  0  0  0  0  0  0
   -3.0221   -0.4069    2.6731 H   0  0  0  0  0  0  0  0  0  0  0  0
   -2.5063    0.9553    1.6899 H   0  0  0  0  0  0  0  0  0  0  0  0
   -4.8037    0.8923    1.7620 H   0  0  0  0  0  0  0  0  0  0  0  0
   -3.8117    1.1780   -0.6427 H   0  0  0  0  0  0  0  0  0  0  0  0
   -4.7248   -0.4191   -0.9308 H   0  0  0  0  0  0  0  0  0  0  0  0
   -5.7906    2.2452   -0.2609 H   0  0  0  0  0  0  0  0  0  0  0  0
   -6.4642    0.9620   -1.2913 H   0  0  0  0  0  0  0  0  0  0  0  0
   -7.8889    0.8113    0.4319 H   0  0  0  0  0  0  0  0  0  0  0  0
   -6.7602    1.4072    1.6454 H   0  0  0  0  0  0  0  0  0  0  0  0
   -7.1616   -0.8642    2.1469 H   0  0  0  0  0  0  0  0  0  0  0  0
   -7.1697   -1.3811    0.4301 H   0  0  0  0  0  0  0  0  0  0  0  0
   -5.0231   -1.5769    2.3591 H   0  0  0  0  0  0  0  0  0  0  0  0
   -4.9753   -1.8802    0.5515 H   0  0  0  0  0  0  0  0  0  0  0  0
    4.2678    0.5490    2.3932 H   0  0  0  0  0  0  0  0  0  0  0  0
    6.1820   -0.6229    3.1470 H   0  0  0  0  0  0  0  0  0  0  0  0
    5.5385   -2.1197    2.3049 H   0  0  0  0  0  0  0  0  0  0  0  0
    7.4981    1.0055    1.9386 H   0  0  0  0  0  0  0  0  0  0  0  0
    9.0470    1.3505   -0.0113 H   0  0  0  0  0  0  0  0  0  0  0  0
    9.0666   -0.2261   -1.8624 H   0  0  0  0  0  0  0  0  0  0  0  0
    7.6120   -2.1427   -1.8678 H   0  0  0  0  0  0  0  0  0  0  0  0
    0.1549    1.2768   -4.7370 H   0  0  0  0  0  0  0  0  0  0  0  0
    1.5626    2.9971   -5.1895 H   0  0  0  0  0  0  0  0  0  0  0  0
  1  2  2  0
  2  3  1  0
  3  4  1  0
  4  5  1  0
  5  6  1  0
  6  7  1  0
  7  8  1  0
  8  9  1  0
  9 10  1  0
 10 11  1  0
 11 12  1  0
 12 13  1  0
  4 14  1  0
 14 15  2  0
 15 16  1  0
 16 17  1  0
 17 18  2  0
 17 19  1  0
 19 20  1  0
 20 21  1  0
 21 22  2  0
 22 23  1  0
 23 24  2  0
 24 25  1  0
 25 26  2  0
 16 27  2  0
 27 28  1  0
  2 29  1  0
 29 30  1  0
 13  8  1  0
 28 14  1  0
 26 21  1  0
  3 31  1  0
  3 32  1  0
  4 33  1  1
  5 34  1  0
  5 35  1  0
  6 36  1  0
  6 37  1  0
  7 38  1  0
  7 39  1  0
  8 40  1  0
  9 41  1  0
  9 42  1  0
 10 43  1  0
 10 44  1  0
 11 45  1  0
 11 46  1  0
 12 47  1  0
 12 48  1  0
 13 49  1  0
 13 50  1  0
 19 51  1  0
 20 52  1  0
 20 53  1  0
 22 54  1  0
 23 55  1  0
 24 56  1  0
 25 57  1  0
 29 58  1  0
 30 59  1  0
M  END
$$$$
