@<TRIPOS>MOLECULE
*****
 59 61 0 0 0
SMALL
GASTEIGER

@<TRIPOS>ATOM
      1 O           0.3325    2.5300   -1.7680 O.2     1  UNL1       -0.2737
      2 C           0.0343    1.6981   -2.6756 C.2     1  UNL1        0.2362
      3 C          -0.6968    0.4869   -2.2454 C.3     1  UNL1        0.0372
      4 C          -0.9570    0.4613   -0.7618 C.3     1  UNL1        0.0464
      5 C          -1.7095   -0.8365   -0.4932 C.3     1  UNL1       -0.0413
      6 C          -2.0615   -1.0354    0.9202 C.3     1  UNL1       -0.0521
      7 C          -2.9498   -0.0675    1.5894 C.3     1  UNL1       -0.0502
      8 C          -4.3348    0.0829    1.1114 C.3     1  UNL1       -0.0410
      9 C          -4.5771    0.5000   -0.2870 C.3     1  UNL1       -0.0502
     10 C          -5.9519    1.1694   -0.3325 C.3     1  UNL1       -0.0528
     11 C          -6.8284    0.7033    0.7832 C.3     1  UNL1       -0.0530
     12 C          -6.6374   -0.7241    1.1640 C.3     1  UNL1       -0.0528
     13 C          -5.2019   -1.1414    1.3684 C.3     1  UNL1       -0.0502
     14 C           0.3545    0.4258   -0.0093 C.ar    1  UNL1        0.2313
     15 N           1.3113   -0.4993   -0.0790 N.ar    1  UNL1       -0.1872
     16 C           2.3309   -0.1618    0.7571 C.ar    1  UNL1        0.2570
     17 C           3.5644   -0.8830    0.9916 C.2     1  UNL1        0.2850
     18 O           3.8267   -1.9604    0.4058 O.2     1  UNL1       -0.2667
     19 N           4.5098   -0.3648    1.9082 N.am    1  UNL1       -0.3031
     20 C           5.7762   -1.0314    2.1998 C.3     1  UNL1        0.0543
     21 C           6.6948   -0.7973    1.0763 C.ar    1  UNL1        0.0583
     22 C           7.5199    0.3174    1.1114 C.ar    1  UNL1       -0.0388
     23 C           8.3737    0.5181    0.0479 C.ar    1  UNL1       -0.0586
     24 C           8.3929   -0.3760   -1.0138 C.ar    1  UNL1       -0.0436
     25 C           7.5615   -1.4733   -1.0192 C.ar    1  UNL1        0.0279
     26 N           6.7441   -1.6438    0.0242 N.ar    1  UNL1       -0.2583
     27 N           1.9541    0.9939    1.3294 N.ar    1  UNL1       -0.0512
     28 O           0.7976    1.3027    0.8568 O.2     1  UNL1       -0.3373
     29 N           0.4060    1.9674   -4.0032 N.am    1  UNL1       -0.1975
     30 O           1.0726    3.0965   -4.3153 O.3     1  UNL1       -0.2952
     31 H          -1.6885    0.5009   -2.7430 H       1  UNL1        0.0366
     32 H          -0.2022   -0.4480   -2.5721 H       1  UNL1        0.0366
     33 H          -1.4855    1.3608   -0.4718 H       1  UNL1        0.0401
     34 H          -0.9469   -1.6420   -0.7525 H       1  UNL1        0.0273
     35 H          -2.4747   -0.9382   -1.2513 H       1  UNL1        0.0273
     36 H          -2.5767   -2.0451    0.9876 H       1  UNL1        0.0266
     37 H          -1.1046   -1.2170    1.4816 H       1  UNL1        0.0266
     38 H          -3.0221   -0.4069    2.6731 H       1  UNL1        0.0268
     39 H          -2.5063    0.9553    1.6899 H       1  UNL1        0.0268
     40 H          -4.8037    0.8923    1.7620 H       1  UNL1        0.0301
     41 H          -3.8117    1.1780   -0.6427 H       1  UNL1        0.0268
     42 H          -4.7248   -0.4191   -0.9308 H       1  UNL1        0.0268
     43 H          -5.7906    2.2452   -0.2609 H       1  UNL1        0.0265
     44 H          -6.4642    0.9620   -1.2913 H       1  UNL1        0.0265
     45 H          -7.8889    0.8113    0.4319 H       1  UNL1        0.0265
     46 H          -6.7602    1.4072    1.6454 H       1  UNL1        0.0265
     47 H          -7.1616   -0.8642    2.1469 H       1  UNL1        0.0265
     48 H          -7.1697   -1.3811    0.4301 H       1  UNL1        0.0265
     49 H          -5.0231   -1.5769    2.3591 H       1  UNL1        0.0268
     50 H          -4.9753   -1.8802    0.5515 H       1  UNL1        0.0268
     51 H           4.2678    0.5490    2.3932 H       1  UNL1        0.1495
     52 H           6.1820   -0.6229    3.1470 H       1  UNL1        0.0527
     53 H           5.5385   -2.1197    2.3049 H       1  UNL1        0.0527
     54 H           7.4981    1.0055    1.9386 H       1  UNL1        0.0636
     55 H           9.0470    1.3505   -0.0113 H       1  UNL1        0.0619
     56 H           9.0666   -0.2261   -1.8624 H       1  UNL1        0.0633
     57 H           7.6120   -2.1427   -1.8678 H       1  UNL1        0.0829
     58 H           0.1549    1.2768   -4.7370 H       1  UNL1        0.1822
     59 H           1.5626    2.9971   -5.1895 H       1  UNL1        0.2414
@<TRIPOS>BOND
     1     1     2    2
     2     2     3    1
     3     3     4    1
     4     4     5    1
     5     5     6    1
     6     6     7    1
     7     7     8    1
     8     8     9    1
     9     9    10    1
    10    10    11    1
    11    11    12    1
    12    12    13    1
    13     4    14    1
    14    14    15   ar
    15    15    16   ar
    16    16    17    1
    17    17    18    2
    18    17    19   am
    19    19    20    1
    20    20    21    1
    21    21    22   ar
    22    22    23   ar
    23    23    24   ar
    24    24    25   ar
    25    25    26   ar
    26    16    27   ar
    27    27    28   ar
    28     2    29   am
    29    29    30    1
    30    13     8    1
    31    28    14   ar
    32    26    21   ar
    33     3    31    1
    34     3    32    1
    35     4    33    1
    36     5    34    1
    37     5    35    1
    38     6    36    1
    39     6    37    1
    40     7    38    1
    41     7    39    1
    42     8    40    1
    43     9    41    1
    44     9    42    1
    45    10    43    1
    46    10    44    1
    47    11    45    1
    48    11    46    1
    49    12    47    1
    50    12    48    1
    51    13    49    1
    52    13    50    1
    53    19    51    1
    54    20    52    1
    55    20    53    1
    56    22    54    1
    57    23    55    1
    58    24    56    1
    59    25    57    1
    60    29    58    1
    61    30    59    1
