@<TRIPOS>MOLECULE
*****
 46 50 0 0 0
SMALL
GASTEIGER

@<TRIPOS>ATOM
      1 N           3.5916   -3.4035   -2.7988 N.am    1  UNL1       -0.3241
      2 C           2.6372   -2.5326   -2.1781 C.2     1  UNL1        0.2599
      3 O           1.4760   -2.5203   -2.6565 O.2     1  UNL1       -0.2687
      4 C           3.0314   -1.7115   -1.0431 C.ar    1  UNL1        0.1280
      5 C           4.2814   -1.6736   -0.4761 C.ar    1  UNL1        0.0588
      6 N           4.2399   -0.8082    0.5328 N.ar    1  UNL1       -0.2353
      7 C           2.9844   -0.3181    0.5898 C.ar    1  UNL1        0.1381
      8 C           2.4224    0.5963    1.4409 C.ar    1  UNL1       -0.0182
      9 C           1.1003    0.9331    1.2894 C.ar    1  UNL1       -0.0477
     10 C           0.3038    0.3825    0.3037 C.ar    1  UNL1        0.0173
     11 C          -1.0594    0.7298    0.1493 C.ar    1  UNL1        0.0781
     12 C          -2.1468   -0.1353    0.2505 C.ar    1  UNL1        0.0968
     13 C          -2.0170   -1.5713    0.5354 C.ar    1  UNL1        0.0040
     14 C          -2.4790   -2.5183   -0.3541 C.ar    1  UNL1       -0.0497
     15 C          -2.3763   -3.8742   -0.1292 C.ar    1  UNL1       -0.0244
     16 C          -1.7815   -4.3036    1.0447 C.ar    1  UNL1        0.1417
     17 F          -1.6736   -5.6496    1.2802 F       1  UNL1       -0.2040
     18 C          -1.3139   -3.3690    1.9454 C.ar    1  UNL1        0.0767
     19 CL         -0.5659   -3.9270    3.4214 Cl      1  UNL1       -0.0806
     20 C          -1.4254   -1.9994    1.7030 C.ar    1  UNL1       -0.0313
     21 N          -3.2980    0.5133    0.0526 N.ar    1  UNL1       -0.2351
     22 C          -2.9541    1.8072   -0.1785 C.ar    1  UNL1        0.0973
     23 N          -1.6180    1.9456   -0.1228 N.ar    1  UNL1       -0.3261
     24 C          -0.8231    3.1223   -0.3047 C.3     1  UNL1        0.0468
     25 C          -1.5148    4.1104   -1.2305 C.3     1  UNL1        0.0319
     26 C          -0.9615    5.2300   -0.3439 C.3     1  UNL1        0.2527
     27 F           0.2811    5.6660   -0.7208 F       1  UNL1       -0.2055
     28 F          -1.8584    6.2111   -0.0485 F       1  UNL1       -0.2055
     29 C          -0.9418    4.1865    0.7713 C.3     1  UNL1        0.0319
     30 C           0.9416   -0.5301   -0.5137 C.ar    1  UNL1        0.0211
     31 N           2.2290   -0.8645   -0.3736 N.ar    1  UNL1       -0.2949
     32 H           3.6189   -4.4286   -2.6400 H       1  UNL1        0.1453
     33 H           4.2861   -2.9814   -3.4374 H       1  UNL1        0.1453
     34 H           5.1692   -2.2393   -0.7761 H       1  UNL1        0.0853
     35 H           2.9835    1.0822    2.2522 H       1  UNL1        0.0654
     36 H           0.6674    1.6401    1.9494 H       1  UNL1        0.0626
     37 H          -2.9479   -2.1880   -1.2783 H       1  UNL1        0.0625
     38 H          -2.7356   -4.6259   -0.8202 H       1  UNL1        0.0647
     39 H          -1.0638   -1.2563    2.3987 H       1  UNL1        0.0640
     40 H          -3.6775    2.5882   -0.3754 H       1  UNL1        0.1029
     41 H           0.2016    2.9728   -0.6933 H       1  UNL1        0.0532
     42 H          -2.6194    4.1384   -1.1555 H       1  UNL1        0.0343
     43 H          -1.1078    4.1261   -2.2615 H       1  UNL1        0.0343
     44 H           0.0065    4.3148    1.3495 H       1  UNL1        0.0343
     45 H          -1.8627    4.1186    1.3462 H       1  UNL1        0.0343
     46 H           0.3697   -0.9858   -1.2939 H       1  UNL1        0.0820
@<TRIPOS>BOND
     1     1     2   am
     2     2     3    2
     3     2     4    1
     4     4     5   ar
     5     5     6   ar
     6     6     7   ar
     7     7     8   ar
     8     8     9   ar
     9     9    10   ar
    10    10    11    1
    11    11    12   ar
    12    12    13    1
    13    13    14   ar
    14    14    15   ar
    15    15    16   ar
    16    16    17    1
    17    16    18   ar
    18    18    19    1
    19    18    20   ar
    20    12    21   ar
    21    21    22   ar
    22    22    23   ar
    23    23    24    1
    24    24    25    1
    25    25    26    1
    26    26    27    1
    27    26    28    1
    28    26    29    1
    29    10    30   ar
    30    30    31   ar
    31    31     4   ar
    32    31     7   ar
    33    23    11   ar
    34    29    24    1
    35    20    13   ar
    36     1    32    1
    37     1    33    1
    38     5    34    1
    39     8    35    1
    40     9    36    1
    41    14    37    1
    42    15    38    1
    43    20    39    1
    44    22    40    1
    45    24    41    1
    46    25    42    1
    47    25    43    1
    48    29    44    1
    49    29    45    1
    50    30    46    1
