@<TRIPOS>MOLECULE
*****
 68 70 0 0 0
SMALL
GASTEIGER

@<TRIPOS>ATOM
      1 C          -7.8146   -0.7286   -0.7198 C.3     1  UNL1       -0.0437
      2 C          -8.3699   -1.9135   -1.5018 C.3     1  UNL1       -0.0624
      3 C          -6.8677   -1.1986    0.3334 C.3     1  UNL1       -0.0485
      4 C          -5.5202   -1.4394   -0.3012 C.3     1  UNL1       -0.0301
      5 C          -4.9900   -0.0261   -0.6703 C.3     1  UNL1        0.0558
      6 C          -5.8374    0.3666   -1.8663 C.3     1  UNL1       -0.0301
      7 C          -7.3140    0.3557   -1.5974 C.3     1  UNL1       -0.0485
      8 N          -4.9861    0.8419    0.3781 N.2     1  UNL1       -0.2324
      9 C          -4.7501    1.8592    0.9694 C.2     1  UNL1        0.2954
     10 O          -5.2231    1.8854    2.3002 O.2     1  UNL1       -0.4807
     11 N          -4.0666    2.9902    0.4691 N.pl3   1  UNL1       -0.1695
     12 S          -2.6822    2.8596   -0.5435 S.O2    1  UNL1        0.0757
     13 O          -2.1764    4.2666   -0.8702 O.2     1  UNL1       -0.1499
     14 O          -2.9649    2.1322   -1.8004 O.2     1  UNL1       -0.1499
     15 C          -1.4088    2.0276    0.3401 C.ar    1  UNL1        0.1086
     16 C          -1.1330    0.6787    0.3687 C.ar    1  UNL1       -0.0348
     17 C          -0.0875    0.2189    1.1326 C.ar    1  UNL1       -0.0567
     18 C           0.7359    1.0161    1.8972 C.ar    1  UNL1       -0.0455
     19 C           1.8469    0.4580    2.7040 C.3     1  UNL1       -0.0079
     20 C           3.1563    0.3859    1.9107 C.3     1  UNL1        0.0486
     21 N           3.0024   -0.4437    0.7616 N.2     1  UNL1       -0.2362
     22 C           3.8839   -0.8252   -0.0669 C.2     1  UNL1        0.2849
     23 O           3.2860   -1.6314   -1.0423 O.2     1  UNL1       -0.4813
     24 N           5.2907   -0.6040   -0.1908 N.am    1  UNL1       -0.2183
     25 C           6.0582    0.2032    0.7376 C.3     1  UNL1        0.0457
     26 C           7.4526    0.1713    0.2293 C.2     1  UNL1       -0.0468
     27 C           8.6042    0.8652    0.8485 C.3     1  UNL1       -0.0416
     28 C           7.4842   -0.5754   -0.8584 C.2     1  UNL1        0.0152
     29 C           8.6872   -0.8885   -1.7078 C.3     1  UNL1       -0.0256
     30 C           8.8860   -2.4020   -1.7149 C.3     1  UNL1       -0.0611
     31 C           6.1818   -1.1071   -1.2040 C.2     1  UNL1        0.2504
     32 O           5.8102   -1.8412   -2.1421 O.2     1  UNL1       -0.2699
     33 C           0.4844    2.3874    1.8907 C.ar    1  UNL1       -0.0567
     34 C          -0.5683    2.8337    1.1192 C.ar    1  UNL1       -0.0348
     35 H          -8.7050   -0.3118   -0.1614 H       1  UNL1        0.0298
     36 H          -9.3656   -1.5851   -1.9005 H       1  UNL1        0.0232
     37 H          -8.5568   -2.7175   -0.7507 H       1  UNL1        0.0232
     38 H          -7.7056   -2.2350   -2.3274 H       1  UNL1        0.0232
     39 H          -7.2197   -2.1988    0.6804 H       1  UNL1        0.0268
     40 H          -6.7756   -0.4847    1.1657 H       1  UNL1        0.0268
     41 H          -4.8113   -1.9405    0.3740 H       1  UNL1        0.0286
     42 H          -5.6756   -1.9508   -1.2605 H       1  UNL1        0.0286
     43 H          -3.9731   -0.2252   -1.0829 H       1  UNL1        0.0546
     44 H          -5.5316   -0.2699   -2.7107 H       1  UNL1        0.0286
     45 H          -5.5689    1.4098   -2.1283 H       1  UNL1        0.0286
     46 H          -7.8217    0.2520   -2.5800 H       1  UNL1        0.0268
     47 H          -7.6449    1.3689   -1.2263 H       1  UNL1        0.0268
     48 H          -6.0242    1.3444    2.5276 H       1  UNL1        0.2951
     49 H          -4.4148    3.9569    0.7250 H       1  UNL1        0.1783
     50 H          -1.7815    0.0848   -0.2311 H       1  UNL1        0.0637
     51 H           0.0869   -0.8674    1.1181 H       1  UNL1        0.0621
     52 H           2.0846    1.1533    3.5558 H       1  UNL1        0.0331
     53 H           1.5633   -0.5164    3.0968 H       1  UNL1        0.0331
     54 H           3.9090    0.0351    2.6493 H       1  UNL1        0.0513
     55 H           3.4546    1.4025    1.5826 H       1  UNL1        0.0513
     56 H           2.5151   -2.2470   -0.8254 H       1  UNL1        0.2951
     57 H           5.6865    1.2269    0.7367 H       1  UNL1        0.0516
     58 H           6.0832   -0.2915    1.7323 H       1  UNL1        0.0516
     59 H           8.3321    1.7660    1.3984 H       1  UNL1        0.0275
     60 H           9.1120    0.1728    1.5688 H       1  UNL1        0.0275
     61 H           9.3749    1.1804    0.0983 H       1  UNL1        0.0275
     62 H           8.5613   -0.5023   -2.7295 H       1  UNL1        0.0312
     63 H           9.5980   -0.4488   -1.2776 H       1  UNL1        0.0312
     64 H           9.9373   -2.6261   -1.8938 H       1  UNL1        0.0233
     65 H           8.6529   -2.7601   -0.6722 H       1  UNL1        0.0233
     66 H           8.1808   -2.8494   -2.4501 H       1  UNL1        0.0233
     67 H           1.0839    3.0781    2.4625 H       1  UNL1        0.0621
     68 H          -0.7307    3.9234    1.1440 H       1  UNL1        0.0637
@<TRIPOS>BOND
     1     1     2    1
     2     1     3    1
     3     3     4    1
     4     4     5    1
     5     5     6    1
     6     6     7    1
     7     5     8    1
     8     8     9    2
     9     9    10    1
    10     9    11    1
    11    11    12    1
    12    12    13    2
    13    12    14    2
    14    12    15    1
    15    15    16   ar
    16    16    17   ar
    17    17    18   ar
    18    18    19    1
    19    19    20    1
    20    20    21    1
    21    21    22    2
    22    22    23    1
    23    22    24    1
    24    24    25    1
    25    25    26    1
    26    26    27    1
    27    26    28    2
    28    28    29    1
    29    29    30    1
    30    28    31    1
    31    31    32    2
    32    18    33   ar
    33    33    34   ar
    34     7     1    1
    35    34    15   ar
    36    31    24   am
    37     1    35    1
    38     2    36    1
    39     2    37    1
    40     2    38    1
    41     3    39    1
    42     3    40    1
    43     4    41    1
    44     4    42    1
    45     5    43    1
    46     6    44    1
    47     6    45    1
    48     7    46    1
    49     7    47    1
    50    10    48    1
    51    11    49    1
    52    16    50    1
    53    17    51    1
    54    19    52    1
    55    19    53    1
    56    20    54    1
    57    20    55    1
    58    23    56    1
    59    25    57    1
    60    25    58    1
    61    27    59    1
    62    27    60    1
    63    27    61    1
    64    29    62    1
    65    29    63    1
    66    30    64    1
    67    30    65    1
    68    30    66    1
    69    33    67    1
    70    34    68    1
