
     RDKit          3D

 68 70  0  0  0  0  0  0  0  0999 V2000
   -7.8146   -0.7286   -0.7198 C   0  0  1  0  0  0  0  0  0  0  0  0
   -8.3699   -1.9135   -1.5018 C   0  0  0  0  0  0  0  0  0  0  0  0
   -6.8677   -1.1986    0.3334 C   0  0  0  0  0  0  0  0  0  0  0  0
   -5.5202   -1.4394   -0.3012 C   0  0  0  0  0  0  0  0  0  0  0  0
   -4.9900   -0.0261   -0.6703 C   0  0  1  0  0  0  0  0  0  0  0  0
   -5.8374    0.3666   -1.8663 C   0  0  0  0  0  0  0  0  0  0  0  0
   -7.3140    0.3557   -1.5974 C   0  0  0  0  0  0  0  0  0  0  0  0
   -4.9861    0.8419    0.3781 N   0  0  0  0  0  0  0  0  0  0  0  0
   -4.7501    1.8592    0.9694 C   0  0  0  0  0  0  0  0  0  0  0  0
   -5.2231    1.8854    2.3002 O   0  0  0  0  0  0  0  0  0  0  0  0
   -4.0666    2.9902    0.4691 N   0  0  0  0  0  0  0  0  0  0  0  0
   -2.6822    2.8596   -0.5435 S   0  0  0  0  0  0  0  0  0  0  0  0
   -2.1764    4.2666   -0.8702 O   0  0  0  0  0  0  0  0  0  0  0  0
   -2.9649    2.1322   -1.8004 O   0  0  0  0  0  0  0  0  0  0  0  0
   -1.4088    2.0276    0.3401 C   0  0  0  0  0  0  0  0  0  0  0  0
   -1.1330    0.6787    0.3687 C   0  0  0  0  0  0  0  0  0  0  0  0
   -0.0875    0.2189    1.1326 C   0  0  0  0  0  0  0  0  0  0  0  0
    0.7359    1.0161    1.8972 C   0  0  0  0  0  0  0  0  0  0  0  0
    1.8469    0.4580    2.7040 C   0  0  0  0  0  0  0  0  0  0  0  0
    3.1563    0.3859    1.9107 C   0  0  0  0  0  0  0  0  0  0  0  0
    3.0024   -0.4437    0.7616 N   0  0  0  0  0  0  0  0  0  0  0  0
    3.8839   -0.8252   -0.0669 C   0  0  0  0  0  0  0  0  0  0  0  0
    3.2860   -1.6314   -1.0423 O   0  0  0  0  0  0  0  0  0  0  0  0
    5.2907   -0.6040   -0.1908 N   0  0  0  0  0  0  0  0  0  0  0  0
    6.0582    0.2032    0.7376 C   0  0  0  0  0  0  0  0  0  0  0  0
    7.4526    0.1713    0.2293 C   0  0  0  0  0  0  0  0  0  0  0  0
    8.6042    0.8652    0.8485 C   0  0  0  0  0  0  0  0  0  0  0  0
    7.4842   -0.5754   -0.8584 C   0  0  0  0  0  0  0  0  0  0  0  0
    8.6872   -0.8885   -1.7078 C   0  0  0  0  0  0  0  0  0  0  0  0
    8.8860   -2.4020   -1.7149 C   0  0  0  0  0  0  0  0  0  0  0  0
    6.1818   -1.1071   -1.2040 C   0  0  0  0  0  0  0  0  0  0  0  0
    5.8102   -1.8412   -2.1421 O   0  0  0  0  0  0  0  0  0  0  0  0
    0.4844    2.3874    1.8907 C   0  0  0  0  0  0  0  0  0  0  0  0
   -0.5683    2.8337    1.1192 C   0  0  0  0  0  0  0  0  0  0  0  0
   -8.7050   -0.3118   -0.1614 H   0  0  0  0  0  0  0  0  0  0  0  0
   -9.3656   -1.5851   -1.9005 H   0  0  0  0  0  0  0  0  0  0  0  0
   -8.5568   -2.7175   -0.7507 H   0  0  0  0  0  0  0  0  0  0  0  0
   -7.7056   -2.2350   -2.3274 H   0  0  0  0  0  0  0  0  0  0  0  0
   -7.2197   -2.1988    0.6804 H   0  0  0  0  0  0  0  0  0  0  0  0
   -6.7756   -0.4847    1.1657 H   0  0  0  0  0  0  0  0  0  0  0  0
   -4.8113   -1.9405    0.3740 H   0  0  0  0  0  0  0  0  0  0  0  0
   -5.6756   -1.9508   -1.2605 H   0  0  0  0  0  0  0  0  0  0  0  0
   -3.9731   -0.2252   -1.0829 H   0  0  0  0  0  0  0  0  0  0  0  0
   -5.5316   -0.2699   -2.7107 H   0  0  0  0  0  0  0  0  0  0  0  0
   -5.5689    1.4098   -2.1283 H   0  0  0  0  0  0  0  0  0  0  0  0
   -7.8217    0.2520   -2.5800 H   0  0  0  0  0  0  0  0  0  0  0  0
   -7.6449    1.3689   -1.2263 H   0  0  0  0  0  0  0  0  0  0  0  0
   -6.0242    1.3444    2.5276 H   0  0  0  0  0  0  0  0  0  0  0  0
   -4.4148    3.9569    0.7250 H   0  0  0  0  0  0  0  0  0  0  0  0
   -1.7815    0.0848   -0.2311 H   0  0  0  0  0  0  0  0  0  0  0  0
    0.0869   -0.8674    1.1181 H   0  0  0  0  0  0  0  0  0  0  0  0
    2.0846    1.1533    3.5558 H   0  0  0  0  0  0  0  0  0  0  0  0
    1.5633   -0.5164    3.0968 H   0  0  0  0  0  0  0  0  0  0  0  0
    3.9090    0.0351    2.6493 H   0  0  0  0  0  0  0  0  0  0  0  0
    3.4546    1.4025    1.5826 H   0  0  0  0  0  0  0  0  0  0  0  0
    2.5151   -2.2470   -0.8254 H   0  0  0  0  0  0  0  0  0  0  0  0
    5.6865    1.2269    0.7367 H   0  0  0  0  0  0  0  0  0  0  0  0
    6.0832   -0.2915    1.7323 H   0  0  0  0  0  0  0  0  0  0  0  0
    8.3321    1.7660    1.3984 H   0  0  0  0  0  0  0  0  0  0  0  0
    9.1120    0.1728    1.5688 H   0  0  0  0  0  0  0  0  0  0  0  0
    9.3749    1.1804    0.0983 H   0  0  0  0  0  0  0  0  0  0  0  0
    8.5613   -0.5023   -2.7295 H   0  0  0  0  0  0  0  0  0  0  0  0
    9.5980   -0.4488   -1.2776 H   0  0  0  0  0  0  0  0  0  0  0  0
    9.9373   -2.6261   -1.8938 H   0  0  0  0  0  0  0  0  0  0  0  0
    8.6529   -2.7601   -0.6722 H   0  0  0  0  0  0  0  0  0  0  0  0
    8.1808   -2.8494   -2.4501 H   0  0  0  0  0  0  0  0  0  0  0  0
    1.0839    3.0781    2.4625 H   0  0  0  0  0  0  0  0  0  0  0  0
   -0.7307    3.9234    1.1440 H   0  0  0  0  0  0  0  0  0  0  0  0
  1  2  1  0
  1  3  1  0
  3  4  1  0
  4  5  1  0
  5  6  1  0
  6  7  1  0
  5  8  1  0
  8  9  2  3
  9 10  1  0
  9 11  1  0
 11 12  1  0
 12 13  2  0
 12 14  2  0
 12 15  1  0
 15 16  2  0
 16 17  1  0
 17 18  2  0
 18 19  1  0
 19 20  1  0
 20 21  1  0
 21 22  2  3
 22 23  1  0
 22 24  1  0
 24 25  1  0
 25 26  1  0
 26 27  1  0
 26 28  2  0
 28 29  1  0
 29 30  1  0
 28 31  1  0
 31 32  2  0
 18 33  1  0
 33 34  2  0
  7  1  1  0
 34 15  1  0
 31 24  1  0
  1 35  1  1
  2 36  1  0
  2 37  1  0
  2 38  1  0
  3 39  1  0
  3 40  1  0
  4 41  1  0
  4 42  1  0
  5 43  1  6
  6 44  1  0
  6 45  1  0
  7 46  1  0
  7 47  1  0
 10 48  1  0
 11 49  1  0
 16 50  1  0
 17 51  1  0
 19 52  1  0
 19 53  1  0
 20 54  1  0
 20 55  1  0
 23 56  1  0
 25 57  1  0
 25 58  1  0
 27 59  1  0
 27 60  1  0
 27 61  1  0
 29 62  1  0
 29 63  1  0
 30 64  1  0
 30 65  1  0
 30 66  1  0
 33 67  1  0
 34 68  1  0
M  END
$$$$
