@<TRIPOS>MOLECULE
*****
 37 39 0 0 0
SMALL
GASTEIGER

@<TRIPOS>ATOM
      1 C           5.7030    1.2917   -1.0105 C.3     1  UNL1        0.0059
      2 N           6.0949   -0.1099   -0.9977 N.3     1  UNL1       -0.1930
      3 S           5.4235   -0.9508    0.3514 S.O2    1  UNL1        0.0582
      4 O           5.9094   -2.3875    0.2284 O.2     1  UNL1       -0.1531
      5 O           5.9516   -0.4493    1.6670 O.2     1  UNL1       -0.1531
      6 C           3.6897   -0.9505    0.3258 C.ar    1  UNL1        0.1053
      7 C           2.9341   -1.9205   -0.2989 C.ar    1  UNL1       -0.0347
      8 C           1.5637   -1.9743   -0.3551 C.ar    1  UNL1       -0.0492
      9 C           0.9045   -0.9266    0.2958 C.ar    1  UNL1        0.0174
     10 C           1.6077    0.0806    0.9435 C.ar    1  UNL1       -0.0492
     11 C           2.9888    0.0590    0.9522 C.ar    1  UNL1       -0.0347
     12 C          -0.5648   -0.8780    0.3001 C.ar    1  UNL1        0.1357
     13 C          -1.3900   -1.8103   -0.3094 C.ar    1  UNL1       -0.0153
     14 C          -2.6550   -1.3522   -0.0415 C.ar    1  UNL1       -0.0158
     15 C          -2.5862   -0.2071    0.6896 C.ar    1  UNL1        0.1298
     16 O          -1.3120    0.0355    0.8684 O.2     1  UNL1       -0.4554
     17 C          -3.5743    0.7034    1.2515 C.2     1  UNL1       -0.0005
     18 C          -4.6701    0.9443    0.5528 C.2     1  UNL1        0.0808
     19 S          -5.0538    0.2325   -1.0589 S.3     1  UNL1       -0.0494
     20 C          -6.3996    1.3773   -1.4244 C.2     1  UNL1        0.1579
     21 N          -7.0068    1.6230   -2.5394 N.2     1  UNL1       -0.2793
     22 N          -6.7023    2.0139   -0.1837 N.am    1  UNL1       -0.2607
     23 C          -5.8082    1.8000    0.8666 C.2     1  UNL1        0.2565
     24 O          -5.8979    2.2711    2.0340 O.2     1  UNL1       -0.2692
     25 H           5.7205    1.7159    0.0096 H       1  UNL1        0.0405
     26 H           4.7581    1.4073   -1.5490 H       1  UNL1        0.0405
     27 H           6.4924    1.8323   -1.5846 H       1  UNL1        0.0405
     28 H           7.1290   -0.1114   -0.8431 H       1  UNL1        0.1477
     29 H           3.4547   -2.7383   -0.8076 H       1  UNL1        0.0637
     30 H           1.0283   -2.7594   -0.8598 H       1  UNL1        0.0625
     31 H           1.1202    0.9040    1.4566 H       1  UNL1        0.0625
     32 H           3.5460    0.8383    1.4527 H       1  UNL1        0.0637
     33 H          -1.1218   -2.6998   -0.8719 H       1  UNL1        0.0656
     34 H          -3.6057   -1.7739   -0.3297 H       1  UNL1        0.0655
     35 H          -3.4447    1.1844    2.2128 H       1  UNL1        0.0667
     36 H          -6.6576    1.0624   -3.3690 H       1  UNL1        0.1886
     37 H          -7.5693    2.6229   -0.0651 H       1  UNL1        0.1571
@<TRIPOS>BOND
     1     1     2    1
     2     2     3    1
     3     3     4    2
     4     3     5    2
     5     3     6    1
     6     6     7   ar
     7     7     8   ar
     8     8     9   ar
     9     9    10   ar
    10    10    11   ar
    11     9    12    1
    12    12    13   ar
    13    13    14   ar
    14    14    15   ar
    15    15    16   ar
    16    15    17    1
    17    17    18    2
    18    18    19    1
    19    19    20    1
    20    20    21    2
    21    20    22    1
    22    22    23   am
    23    23    24    2
    24    11     6   ar
    25    16    12   ar
    26    23    18    1
    27     1    25    1
    28     1    26    1
    29     1    27    1
    30     2    28    1
    31     7    29    1
    32     8    30    1
    33    10    31    1
    34    11    32    1
    35    13    33    1
    36    14    34    1
    37    17    35    1
    38    21    36    1
    39    22    37    1
