@<TRIPOS>MOLECULE
*****
 53 52 0 0 0
SMALL
GASTEIGER

@<TRIPOS>ATOM
      1 C           6.1474    1.3280   -0.5376 C.2     1  UNL1        0.0252
      2 C           7.5782    1.2157   -0.3427 C.2     1  UNL1        0.3298
      3 O           8.8886    0.9544   -0.0641 O.3     1  UNL1       -0.4775
      4 O           8.3281    2.1146   -0.8467 O.2     1  UNL1       -0.2458
      5 C           5.3754    0.3740   -0.0035 C.2     1  UNL1       -0.0438
      6 C           6.1527   -0.6429    0.7033 C.3     1  UNL1       -0.0395
      7 C           3.9738    0.5902   -0.2660 C.2     1  UNL1       -0.0596
      8 C           2.9180   -0.0845    0.1137 C.2     1  UNL1       -0.0721
      9 C           3.1461   -1.2818    0.9598 C.3     1  UNL1       -0.0435
     10 C           1.4948    0.2382   -0.2292 C.3     1  UNL1       -0.0291
     11 C           0.9006   -0.9152   -0.9707 C.3     1  UNL1       -0.0402
     12 C           1.6853   -1.1997   -2.2622 C.3     1  UNL1       -0.0621
     13 C          -0.5153   -0.6192   -1.3358 C.3     1  UNL1       -0.0502
     14 C          -1.3847   -0.3647   -0.1298 C.3     1  UNL1       -0.0527
     15 C          -2.8071   -0.0914   -0.6057 C.3     1  UNL1       -0.0507
     16 C          -3.7458    0.1773    0.5757 C.3     1  UNL1       -0.0261
     17 C          -5.0905    0.4263   -0.0138 C.3     1  UNL1        0.0666
     18 O          -5.4374   -0.7438   -0.7238 O.3     1  UNL1       -0.3910
     19 C          -6.1760    0.6404    0.9958 C.3     1  UNL1        0.0634
     20 C          -5.8823    1.8355    1.8788 C.3     1  UNL1        0.0558
     21 O          -6.9104    2.0088    2.8078 O.3     1  UNL1       -0.3942
     22 C          -7.4374    0.9272    0.2581 C.2     1  UNL1        0.1280
     23 O          -8.4132    0.2103    0.3833 O.2     1  UNL1       -0.3006
     24 H           5.7954    2.1912   -1.1120 H       1  UNL1        0.0691
     25 H           9.1726    0.6529    0.8777 H       1  UNL1        0.2954
     26 H           5.7314   -1.6505    0.4821 H       1  UNL1        0.0278
     27 H           7.2307   -0.6212    0.4028 H       1  UNL1        0.0278
     28 H           6.1413   -0.4833    1.7815 H       1  UNL1        0.0278
     29 H           3.6274    1.4275   -0.8725 H       1  UNL1        0.0620
     30 H           2.1838   -1.5747    1.4789 H       1  UNL1        0.0274
     31 H           3.4439   -2.1608    0.3693 H       1  UNL1        0.0274
     32 H           3.8528   -1.0839    1.7696 H       1  UNL1        0.0274
     33 H           1.4045    1.1681   -0.8108 H       1  UNL1        0.0313
     34 H           0.9479    0.3735    0.7417 H       1  UNL1        0.0313
     35 H           0.9527   -1.8392   -0.3593 H       1  UNL1        0.0301
     36 H           1.4578   -0.4065   -3.0062 H       1  UNL1        0.0233
     37 H           1.3741   -2.2104   -2.5947 H       1  UNL1        0.0233
     38 H           2.7559   -1.2431   -2.0436 H       1  UNL1        0.0233
     39 H          -0.9288   -1.4684   -1.9487 H       1  UNL1        0.0268
     40 H          -0.5573    0.2571   -2.0185 H       1  UNL1        0.0268
     41 H          -1.0081    0.4910    0.4668 H       1  UNL1        0.0265
     42 H          -1.3956   -1.2460    0.5430 H       1  UNL1        0.0265
     43 H          -3.1539   -0.9683   -1.1883 H       1  UNL1        0.0266
     44 H          -2.7959    0.7717   -1.3016 H       1  UNL1        0.0266
     45 H          -3.7537   -0.7559    1.1941 H       1  UNL1        0.0290
     46 H          -3.3358    0.9635    1.2081 H       1  UNL1        0.0290
     47 H          -5.0789    1.2563   -0.7164 H       1  UNL1        0.0601
     48 H          -5.2150   -0.6538   -1.6741 H       1  UNL1        0.2098
     49 H          -6.3409   -0.2574    1.6430 H       1  UNL1        0.0422
     50 H          -4.8917    1.6754    2.3475 H       1  UNL1        0.0565
     51 H          -5.8167    2.7445    1.2249 H       1  UNL1        0.0565
     52 H          -7.0903    1.0948    3.1733 H       1  UNL1        0.2094
     53 H          -7.4986    1.7836   -0.4022 H       1  UNL1        0.1031
@<TRIPOS>BOND
     1     1     2    1
     2     2     3    1
     3     2     4    2
     4     1     5    2
     5     5     6    1
     6     5     7    1
     7     7     8    2
     8     8     9    1
     9     8    10    1
    10    10    11    1
    11    11    12    1
    12    11    13    1
    13    13    14    1
    14    14    15    1
    15    15    16    1
    16    16    17    1
    17    17    18    1
    18    17    19    1
    19    19    20    1
    20    20    21    1
    21    19    22    1
    22    22    23    2
    23     1    24    1
    24     3    25    1
    25     6    26    1
    26     6    27    1
    27     6    28    1
    28     7    29    1
    29     9    30    1
    30     9    31    1
    31     9    32    1
    32    10    33    1
    33    10    34    1
    34    11    35    1
    35    12    36    1
    36    12    37    1
    37    12    38    1
    38    13    39    1
    39    13    40    1
    40    14    41    1
    41    14    42    1
    42    15    43    1
    43    15    44    1
    44    16    45    1
    45    16    46    1
    46    17    47    1
    47    18    48    1
    48    19    49    1
    49    20    50    1
    50    20    51    1
    51    21    52    1
    52    22    53    1
