
     RDKit          3D

 42 44  0  0  0  0  0  0  0  0999 V2000
    5.7365   -0.3176    1.6100 C   0  0  0  0  0  0  0  0  0  0  0  0
    5.3651    0.1249    0.3123 O   0  0  0  0  0  0  0  0  0  0  0  0
    4.0329   -0.0001   -0.0428 C   0  0  0  0  0  0  0  0  0  0  0  0
    3.6533    0.4248   -1.2939 C   0  0  0  0  0  0  0  0  0  0  0  0
    2.3379    0.3092   -1.6663 C   0  0  0  0  0  0  0  0  0  0  0  0
    1.8995    0.7579   -3.0058 C   0  0  0  0  0  0  0  0  0  0  0  0
    1.4294   -0.2256   -0.7881 C   0  0  0  0  0  0  0  0  0  0  0  0
    0.0835   -0.3720   -1.1027 C   0  0  0  0  0  0  0  0  0  0  0  0
   -0.8467   -0.9055   -0.2429 C   0  0  0  0  0  0  0  0  0  0  0  0
   -2.2300   -1.0262   -0.6655 C   0  0  0  0  0  0  0  0  0  0  0  0
   -3.1029    0.1174   -0.4980 C   0  0  0  0  0  0  0  0  0  0  0  0
   -3.3474    0.9130   -1.6210 C   0  0  0  0  0  0  0  0  0  0  0  0
   -4.1234    1.9964   -1.5643 N   0  0  0  0  0  0  0  0  0  0  0  0
   -4.7066    2.3663   -0.4063 C   0  0  0  0  0  0  0  0  0  0  0  0
   -5.5332    3.5111   -0.3239 N   0  0  0  0  0  0  0  0  0  0  0  0
   -4.4655    1.5888    0.6824 N   0  0  0  0  0  0  0  0  0  0  0  0
   -3.6992    0.5004    0.6723 C   0  0  0  0  0  0  0  0  0  0  0  0
   -3.4663   -0.3126    1.8069 N   0  0  0  0  0  0  0  0  0  0  0  0
   -0.4288   -1.3146    0.9878 C   0  0  0  0  0  0  0  0  0  0  0  0
    0.8918   -1.1916    1.3483 C   0  0  0  0  0  0  0  0  0  0  0  0
    1.3971   -1.6277    2.6884 C   0  0  0  0  0  0  0  0  0  0  0  0
    1.8016   -0.6540    0.4681 C   0  0  0  0  0  0  0  0  0  0  0  0
    3.1073   -0.5137    0.7739 N   0  0  0  0  0  0  0  0  0  0  0  0
    5.5308    0.4246    2.3950 H   0  0  0  0  0  0  0  0  0  0  0  0
    6.8360   -0.5215    1.6648 H   0  0  0  0  0  0  0  0  0  0  0  0
    5.1419   -1.2264    1.8165 H   0  0  0  0  0  0  0  0  0  0  0  0
    4.4068    0.8517   -1.9806 H   0  0  0  0  0  0  0  0  0  0  0  0
    1.2702    1.6641   -2.9775 H   0  0  0  0  0  0  0  0  0  0  0  0
    1.3010   -0.0430   -3.4838 H   0  0  0  0  0  0  0  0  0  0  0  0
    2.7748    1.0266   -3.6560 H   0  0  0  0  0  0  0  0  0  0  0  0
   -0.1961   -0.0242   -2.1087 H   0  0  0  0  0  0  0  0  0  0  0  0
   -2.7565   -1.8909   -0.1365 H   0  0  0  0  0  0  0  0  0  0  0  0
   -2.2402   -1.3562   -1.7294 H   0  0  0  0  0  0  0  0  0  0  0  0
   -2.9033    0.6690   -2.5942 H   0  0  0  0  0  0  0  0  0  0  0  0
   -5.2212    4.3144    0.2478 H   0  0  0  0  0  0  0  0  0  0  0  0
   -6.4346    3.5563   -0.8216 H   0  0  0  0  0  0  0  0  0  0  0  0
   -3.3264    0.1498    2.7244 H   0  0  0  0  0  0  0  0  0  0  0  0
   -3.4320   -1.3428    1.7588 H   0  0  0  0  0  0  0  0  0  0  0  0
   -1.0909   -1.7528    1.7338 H   0  0  0  0  0  0  0  0  0  0  0  0
    2.4567   -1.9452    2.6232 H   0  0  0  0  0  0  0  0  0  0  0  0
    0.7918   -2.4926    3.0418 H   0  0  0  0  0  0  0  0  0  0  0  0
    1.3051   -0.7438    3.3530 H   0  0  0  0  0  0  0  0  0  0  0  0
  1  2  1  0
  2  3  1  0
  3  4  2  0
  4  5  1  0
  5  6  1  0
  5  7  2  0
  7  8  1  0
  8  9  2  0
  9 10  1  0
 10 11  1  0
 11 12  2  0
 12 13  1  0
 13 14  2  0
 14 15  1  0
 14 16  1  0
 16 17  2  0
 17 18  1  0
  9 19  1  0
 19 20  2  0
 20 21  1  0
 20 22  1  0
 22 23  2  0
 23  3  1  0
 22  7  1  0
 17 11  1  0
  1 24  1  0
  1 25  1  0
  1 26  1  0
  4 27  1  0
  6 28  1  0
  6 29  1  0
  6 30  1  0
  8 31  1  0
 10 32  1  0
 10 33  1  0
 12 34  1  0
 15 35  1  0
 15 36  1  0
 18 37  1  0
 18 38  1  0
 19 39  1  0
 21 40  1  0
 21 41  1  0
 21 42  1  0
M  END
$$$$
