@<TRIPOS>MOLECULE
*****
 42 44 0 0 0
SMALL
GASTEIGER

@<TRIPOS>ATOM
      1 C           5.7365   -0.3176    1.6100 C.3     1  UNL1        0.0804
      2 O           5.3651    0.1249    0.3123 O.3     1  UNL1       -0.4796
      3 C           4.0329   -0.0001   -0.0428 C.ar    1  UNL1        0.2152
      4 C           3.6533    0.4248   -1.2939 C.ar    1  UNL1        0.0035
      5 C           2.3379    0.3092   -1.6663 C.ar    1  UNL1       -0.0362
      6 C           1.8995    0.7579   -3.0058 C.3     1  UNL1       -0.0389
      7 C           1.4294   -0.2256   -0.7881 C.ar    1  UNL1        0.0041
      8 C           0.0835   -0.3720   -1.1027 C.ar    1  UNL1       -0.0488
      9 C          -0.8467   -0.9055   -0.2429 C.ar    1  UNL1       -0.0420
     10 C          -2.2300   -1.0262   -0.6655 C.3     1  UNL1        0.0023
     11 C          -3.1029    0.1174   -0.4980 C.ar    1  UNL1        0.0146
     12 C          -3.3474    0.9130   -1.6210 C.ar    1  UNL1        0.0379
     13 N          -4.1234    1.9964   -1.5643 N.ar    1  UNL1       -0.2227
     14 C          -4.7066    2.3663   -0.4063 C.ar    1  UNL1        0.2142
     15 N          -5.5332    3.5111   -0.3239 N.pl3   1  UNL1       -0.3274
     16 N          -4.4655    1.5888    0.6824 N.ar    1  UNL1       -0.1999
     17 C          -3.6992    0.5004    0.6723 C.ar    1  UNL1        0.1247
     18 N          -3.4663   -0.3126    1.8069 N.pl3   1  UNL1       -0.3428
     19 C          -0.4288   -1.3146    0.9878 C.ar    1  UNL1       -0.0533
     20 C           0.8918   -1.1916    1.3483 C.ar    1  UNL1       -0.0241
     21 C           1.3971   -1.6277    2.6884 C.3     1  UNL1       -0.0377
     22 C           1.8016   -0.6540    0.4681 C.ar    1  UNL1        0.0780
     23 N           3.1073   -0.5137    0.7739 N.ar    1  UNL1       -0.2126
     24 H           5.5308    0.4246    2.3950 H       1  UNL1        0.0660
     25 H           6.8360   -0.5215    1.6648 H       1  UNL1        0.0660
     26 H           5.1419   -1.2264    1.8165 H       1  UNL1        0.0660
     27 H           4.4068    0.8517   -1.9806 H       1  UNL1        0.0673
     28 H           1.2702    1.6641   -2.9775 H       1  UNL1        0.0278
     29 H           1.3010   -0.0430   -3.4838 H       1  UNL1        0.0278
     30 H           2.7748    1.0266   -3.6560 H       1  UNL1        0.0278
     31 H          -0.1961   -0.0242   -2.1087 H       1  UNL1        0.0627
     32 H          -2.7565   -1.8909   -0.1365 H       1  UNL1        0.0363
     33 H          -2.2402   -1.3562   -1.7294 H       1  UNL1        0.0363
     34 H          -2.9033    0.6690   -2.5942 H       1  UNL1        0.0834
     35 H          -5.2212    4.3144    0.2478 H       1  UNL1        0.1452
     36 H          -6.4346    3.5563   -0.8216 H       1  UNL1        0.1452
     37 H          -3.3264    0.1498    2.7244 H       1  UNL1        0.1437
     38 H          -3.4320   -1.3428    1.7588 H       1  UNL1        0.1437
     39 H          -1.0909   -1.7528    1.7338 H       1  UNL1        0.0624
     40 H           2.4567   -1.9452    2.6232 H       1  UNL1        0.0278
     41 H           0.7918   -2.4926    3.0418 H       1  UNL1        0.0278
     42 H           1.3051   -0.7438    3.3530 H       1  UNL1        0.0278
@<TRIPOS>BOND
     1     1     2    1
     2     2     3    1
     3     3     4   ar
     4     4     5   ar
     5     5     6    1
     6     5     7   ar
     7     7     8   ar
     8     8     9   ar
     9     9    10    1
    10    10    11    1
    11    11    12   ar
    12    12    13   ar
    13    13    14   ar
    14    14    15    1
    15    14    16   ar
    16    16    17   ar
    17    17    18    1
    18     9    19   ar
    19    19    20   ar
    20    20    21    1
    21    20    22   ar
    22    22    23   ar
    23    23     3   ar
    24    22     7   ar
    25    17    11   ar
    26     1    24    1
    27     1    25    1
    28     1    26    1
    29     4    27    1
    30     6    28    1
    31     6    29    1
    32     6    30    1
    33     8    31    1
    34    10    32    1
    35    10    33    1
    36    12    34    1
    37    15    35    1
    38    15    36    1
    39    18    37    1
    40    18    38    1
    41    19    39    1
    42    21    40    1
    43    21    41    1
    44    21    42    1
