@<TRIPOS>MOLECULE
*****
 65 68 0 0 0
SMALL
GASTEIGER

@<TRIPOS>ATOM
      1 C           7.8942   -3.4554    0.1170 C.3     1  UNL1        0.0366
      2 O           8.1908   -3.2005    1.4489 O.3     1  UNL1       -0.3793
      3 C           9.0449   -2.1125    1.5371 C.3     1  UNL1        0.0840
      4 C           8.4616   -0.8435    0.9593 C.3     1  UNL1        0.1222
      5 C           9.4918    0.2694    1.2309 C.3     1  UNL1       -0.0255
      6 O           7.2839   -0.4597    1.5839 O.3     1  UNL1       -0.4700
      7 C           6.0857   -0.1166    1.0029 C.ar    1  UNL1        0.2338
      8 C           5.8563   -0.0964   -0.3501 C.ar    1  UNL1        0.0898
      9 N           4.6277    0.2600   -0.8219 N.ar    1  UNL1       -0.2459
     10 C           3.6090    0.5993   -0.0077 C.ar    1  UNL1        0.1172
     11 C           2.3002    0.9781   -0.5569 C.2     1  UNL1        0.1507
     12 F           2.1200    0.9864   -1.9229 F       1  UNL1       -0.2032
     13 C           1.2633    1.3080    0.1751 C.2     1  UNL1       -0.0171
     14 C          -0.0210    1.6804   -0.3966 C.ar    1  UNL1       -0.0217
     15 C          -0.0301    2.4968   -1.4970 C.ar    1  UNL1       -0.0518
     16 C          -1.2302    2.8445   -2.0619 C.ar    1  UNL1       -0.0255
     17 C          -2.3926    2.3853   -1.5357 C.ar    1  UNL1        0.1289
     18 F          -3.5386    2.7814   -2.1017 F       1  UNL1       -0.2051
     19 C          -2.4589    1.5486   -0.4152 C.ar    1  UNL1        0.0158
     20 C          -3.7528    1.0373    0.0892 C.3     1  UNL1        0.0935
     21 C          -3.3726    0.5752    1.5523 C.3     1  UNL1       -0.0351
     22 N          -4.6195    2.1201    0.3977 N.2     1  UNL1       -0.2521
     23 C          -5.8224    2.3177    0.1287 C.2     1  UNL1        0.1485
     24 N          -6.4600    3.5115    0.5672 N.pl3   1  UNL1       -0.3380
     25 S          -6.6988    1.0743   -0.8054 S.3     1  UNL1       -0.0746
     26 C          -5.6252   -0.3487   -0.8933 C.3     1  UNL1        0.1054
     27 C          -6.3069   -1.6549   -0.6302 C.2     1  UNL1        0.2319
     28 O          -5.9793   -2.6465   -1.3672 O.2     1  UNL1       -0.2741
     29 N          -7.2657   -1.8383    0.3634 N.am    1  UNL1       -0.3064
     30 C          -7.6580   -0.7348    1.2145 C.3     1  UNL1        0.0029
     31 C          -7.8791   -3.1342    0.5545 C.3     1  UNL1        0.0029
     32 C          -4.6081   -0.2850   -2.0199 C.3     1  UNL1       -0.0220
     33 C          -4.2156   -0.1592   -0.5701 C.3     1  UNL1        0.0134
     34 C          -1.2211    1.2307    0.1133 C.ar    1  UNL1       -0.0463
     35 C           3.8649    0.5704    1.3345 C.ar    1  UNL1        0.0596
     36 N           5.0777    0.2200    1.8301 N.ar    1  UNL1       -0.2178
     37 H           8.8156   -3.6730   -0.4632 H       1  UNL1        0.0524
     38 H           7.1752   -4.3105    0.0706 H       1  UNL1        0.0524
     39 H           7.3839   -2.6113   -0.3693 H       1  UNL1        0.0524
     40 H           9.4111   -1.9751    2.5660 H       1  UNL1        0.0596
     41 H           9.9336   -2.3784    0.8918 H       1  UNL1        0.0596
     42 H           8.3799   -0.8773   -0.1392 H       1  UNL1        0.0754
     43 H           9.4423    0.5550    2.2870 H       1  UNL1        0.0266
     44 H           9.2808    1.1487    0.5939 H       1  UNL1        0.0266
     45 H          10.5078   -0.1194    1.0030 H       1  UNL1        0.0266
     46 H           6.6560   -0.3644   -1.0247 H       1  UNL1        0.0884
     47 H           1.3322    1.3127    1.2532 H       1  UNL1        0.0653
     48 H           0.9145    2.8836   -1.9311 H       1  UNL1        0.0624
     49 H          -1.2385    3.5015   -2.9472 H       1  UNL1        0.0646
     50 H          -4.3251    0.4992    2.1319 H       1  UNL1        0.0256
     51 H          -2.7474    1.3522    1.9918 H       1  UNL1        0.0256
     52 H          -2.8713   -0.4004    1.4992 H       1  UNL1        0.0256
     53 H          -6.2071    4.4536    0.1937 H       1  UNL1        0.1442
     54 H          -7.2100    3.4774    1.2862 H       1  UNL1        0.1442
     55 H          -8.2010   -1.0894    2.1276 H       1  UNL1        0.0428
     56 H          -8.4057   -0.0614    0.7016 H       1  UNL1        0.0428
     57 H          -6.7967   -0.1392    1.5739 H       1  UNL1        0.0428
     58 H          -8.0378   -3.3738    1.6283 H       1  UNL1        0.0428
     59 H          -7.3376   -3.9348    0.0122 H       1  UNL1        0.0428
     60 H          -8.9184   -3.1159    0.1125 H       1  UNL1        0.0428
     61 H          -4.6363    0.5410   -2.7183 H       1  UNL1        0.0287
     62 H          -4.4990   -1.2700   -2.5327 H       1  UNL1        0.0287
     63 H          -3.7231   -1.1377   -0.2244 H       1  UNL1        0.0346
     64 H          -1.2004    0.5710    0.9974 H       1  UNL1        0.0628
     65 H           3.1075    0.8273    2.0467 H       1  UNL1        0.0853
@<TRIPOS>BOND
     1     1     2    1
     2     2     3    1
     3     3     4    1
     4     4     5    1
     5     4     6    1
     6     6     7    1
     7     7     8   ar
     8     8     9   ar
     9     9    10   ar
    10    10    11    1
    11    11    12    1
    12    11    13    2
    13    13    14    1
    14    14    15   ar
    15    15    16   ar
    16    16    17   ar
    17    17    18    1
    18    17    19   ar
    19    19    20    1
    20    20    21    1
    21    20    22    1
    22    22    23    2
    23    23    24    1
    24    23    25    1
    25    25    26    1
    26    26    27    1
    27    27    28    2
    28    27    29   am
    29    29    30    1
    30    29    31    1
    31    26    32    1
    32    32    33    1
    33    19    34   ar
    34    10    35   ar
    35    35    36   ar
    36    36     7   ar
    37    34    14   ar
    38    33    20    1
    39    33    26    1
    40     1    37    1
    41     1    38    1
    42     1    39    1
    43     3    40    1
    44     3    41    1
    45     4    42    1
    46     5    43    1
    47     5    44    1
    48     5    45    1
    49     8    46    1
    50    13    47    1
    51    15    48    1
    52    16    49    1
    53    21    50    1
    54    21    51    1
    55    21    52    1
    56    24    53    1
    57    24    54    1
    58    30    55    1
    59    30    56    1
    60    30    57    1
    61    31    58    1
    62    31    59    1
    63    31    60    1
    64    32    61    1
    65    32    62    1
    66    33    63    1
    67    34    64    1
    68    35    65    1
