@<TRIPOS>MOLECULE
*****
 30 29 0 0 0
SMALL
GASTEIGER

@<TRIPOS>ATOM
      1 C           4.7644    1.1811   -0.1531 C.3     1  UNL1        0.0384
      2 C           3.4636    0.6499   -0.6884 C.2     1  UNL1        0.2750
      3 N           3.0824    1.0945   -1.8281 N.2     1  UNL1       -0.1042
      4 N           2.6876   -0.2985    0.0260 N.pl3   1  UNL1       -0.2380
      5 C           1.2354   -0.3788   -0.2236 C.3     1  UNL1        0.0805
      6 C           0.5879   -1.4260    0.6122 C.3     1  UNL1        0.0144
      7 C          -0.8898   -1.4985    0.3289 C.3     1  UNL1        0.1063
      8 F          -1.5178   -2.4615    1.0899 F       1  UNL1       -0.2453
      9 C          -1.5302   -0.1590    0.4609 C.3     1  UNL1        0.0040
     10 CA         -3.0318   -0.2168    0.1843 C.3     1  UNL1        0.1059
     11 N          -3.2335   -0.6930   -1.1521 N.3     1  UNL1       -0.3183
     12 C          -3.5713    1.1567    0.3241 C.2     1  UNL1        0.3218
     13 O          -4.1893    1.9064   -0.6715 O.3     1  UNL1       -0.4795
     14 OXT        -3.4754    1.7260    1.4404 O.2     1  UNL1       -0.2493
     15 H           5.4827    1.2368   -0.9815 H       1  UNL1        0.0351
     16 H           4.5347    2.2493    0.1129 H       1  UNL1        0.0351
     17 H           5.0829    0.6112    0.7202 H       1  UNL1        0.0351
     18 H           2.2134    0.8134   -2.3065 H       1  UNL1        0.3629
     19 H           3.1816   -0.9203    0.7188 H       1  UNL1        0.2910
     20 H           1.0793   -0.5497   -1.2981 H       1  UNL1        0.0725
     21 H           0.8699    0.6357    0.1168 H       1  UNL1        0.0725
     22 H           0.6555   -1.1215    1.6989 H       1  UNL1        0.0329
     23 H           1.0641   -2.4204    0.5311 H       1  UNL1        0.0329
     24 H          -0.9679   -1.8340   -0.7443 H       1  UNL1        0.0653
     25 H          -1.0895    0.5561   -0.2804 H       1  UNL1        0.0313
     26 H          -1.4105    0.3024    1.4529 H       1  UNL1        0.0313
     27 HA         -3.5143   -0.8570    0.9498 H       1  UNL1        0.0575
     28 H1         -4.2309   -0.4958   -1.4014 H       1  UNL1        0.1190
     29 H2         -2.9741   -1.6924   -1.1964 H       1  UNL1        0.1190
     30 H          -4.3592    2.9037   -0.5566 H       1  UNL1        0.2951
@<TRIPOS>BOND
     1     1     2    1
     2     2     3    2
     3     2     4    1
     4     4     5    1
     5     5     6    1
     6     6     7    1
     7     7     8    1
     8     7     9    1
     9     9    10    1
    10    10    11    1
    11    10    12    1
    12    12    13    1
    13    12    14    2
    14     1    15    1
    15     1    16    1
    16     1    17    1
    17     3    18    1
    18     4    19    1
    19     5    20    1
    20     5    21    1
    21     6    22    1
    22     6    23    1
    23     7    24    1
    24     9    25    1
    25     9    26    1
    26    10    27    1
    27    11    28    1
    28    11    29    1
    29    13    30    1
