@<TRIPOS>MOLECULE
*****
 60 65 0 0 0
SMALL
GASTEIGER

@<TRIPOS>ATOM
      1 C          -5.3404    2.0759    0.5684 C.3     1  UNL1       -0.0453
      2 C          -5.7015    0.7007    1.0850 C.3     1  UNL1        0.0335
      3 C          -7.1781    0.5690    1.0462 C.3     1  UNL1        0.0143
      4 N          -7.6944   -0.7569    0.9772 N.3     1  UNL1       -0.3125
      5 C          -6.8107   -1.7358    0.4244 C.3     1  UNL1        0.0143
      6 C          -5.7987   -1.1355   -0.5351 C.3     1  UNL1        0.0335
      7 C          -6.5149   -0.3756   -1.6364 C.3     1  UNL1       -0.0453
      8 N          -4.9832   -0.2592    0.2733 N.pl3   1  UNL1       -0.3219
      9 C          -3.5772   -0.3058    0.2946 C.ar    1  UNL1        0.0303
     10 C          -2.8451   -1.1442   -0.4985 C.ar    1  UNL1       -0.0401
     11 C          -1.4572   -1.1861   -0.4657 C.ar    1  UNL1       -0.0522
     12 C          -0.7649   -0.3617    0.3897 C.ar    1  UNL1       -0.0149
     13 C           0.7101   -0.4005    0.4350 C.ar    1  UNL1        0.0184
     14 C           1.4587   -0.6931   -0.6837 C.ar    1  UNL1        0.0391
     15 N           2.8117   -0.7244   -0.6263 N.ar    1  UNL1       -0.2350
     16 C           3.4607   -0.4688    0.5330 C.ar    1  UNL1        0.1632
     17 C           4.8058   -0.4394    0.8410 C.ar    1  UNL1        0.0466
     18 C           5.9616   -0.6830   -0.0120 C.ar    1  UNL1       -0.0037
     19 C           6.5410   -1.9217   -0.1878 C.ar    1  UNL1       -0.0532
     20 C           7.6347   -2.1260   -0.9963 C.ar    1  UNL1       -0.0592
     21 C           8.1842   -1.0454   -1.6671 C.ar    1  UNL1       -0.0377
     22 C           7.6239    0.2098   -1.5101 C.ar    1  UNL1        0.0497
     23 N           8.1269    1.2863   -2.1445 N.ar    1  UNL1       -0.3221
     24 C           7.5852    2.5268   -1.9997 C.ar    1  UNL1        0.2492
     25 O           8.1397    3.4630   -2.6428 O.2     1  UNL1       -0.2679
     26 C           6.4898    2.7480   -1.1936 C.ar    1  UNL1        0.0034
     27 C           5.9676    1.6341   -0.5357 C.ar    1  UNL1       -0.0469
     28 C           6.5187    0.3819   -0.6852 C.ar    1  UNL1        0.0064
     29 C           4.8535   -0.1159    2.1987 C.ar    1  UNL1        0.0597
     30 N           3.5904    0.0294    2.6315 N.ar    1  UNL1       -0.1727
     31 N           2.7311   -0.1822    1.6292 N.ar    1  UNL1       -0.2206
     32 C           1.3871   -0.1414    1.6128 C.ar    1  UNL1        0.0406
     33 C          -1.4809    0.4898    1.1963 C.ar    1  UNL1       -0.0522
     34 C          -2.8580    0.5127    1.1453 C.ar    1  UNL1       -0.0401
     35 H          -5.1900    2.7436    1.4393 H       1  UNL1        0.0248
     36 H          -6.2170    2.5374    0.0215 H       1  UNL1        0.0248
     37 H          -4.4896    2.0669   -0.1420 H       1  UNL1        0.0248
     38 H          -5.3058    0.6214    2.1176 H       1  UNL1        0.0509
     39 H          -7.5736    1.0189    2.0068 H       1  UNL1        0.0442
     40 H          -7.6489    1.1743    0.2437 H       1  UNL1        0.0442
     41 H          -8.5756   -0.7824    0.3796 H       1  UNL1        0.1221
     42 H          -6.2347   -2.1928    1.2613 H       1  UNL1        0.0442
     43 H          -7.3512   -2.5574   -0.0768 H       1  UNL1        0.0442
     44 H          -5.2734   -1.9717   -0.9971 H       1  UNL1        0.0509
     45 H          -6.1653    0.6825   -1.6727 H       1  UNL1        0.0248
     46 H          -6.2834   -0.8176   -2.6261 H       1  UNL1        0.0248
     47 H          -7.6225   -0.4500   -1.5211 H       1  UNL1        0.0248
     48 H          -3.3078   -1.8061   -1.1831 H       1  UNL1        0.0636
     49 H          -0.9017   -1.8677   -1.1124 H       1  UNL1        0.0624
     50 H           0.9756   -0.9063   -1.6419 H       1  UNL1        0.0837
     51 H           6.1026   -2.7548    0.3409 H       1  UNL1        0.0624
     52 H           8.0691   -3.1092   -1.1159 H       1  UNL1        0.0618
     53 H           9.0447   -1.1268   -2.3211 H       1  UNL1        0.0638
     54 H           8.9565    1.1580   -2.7635 H       1  UNL1        0.1689
     55 H           6.0668    3.7345   -1.0843 H       1  UNL1        0.0672
     56 H           5.1214    1.7546    0.0980 H       1  UNL1        0.0626
     57 H           5.7429    0.0009    2.8080 H       1  UNL1        0.0855
     58 H           0.8165    0.0880    2.4914 H       1  UNL1        0.0837
     59 H          -0.9399    1.1343    1.8649 H       1  UNL1        0.0624
     60 H          -3.3929    1.2024    1.8022 H       1  UNL1        0.0636
@<TRIPOS>BOND
     1     1     2    1
     2     2     3    1
     3     3     4    1
     4     4     5    1
     5     5     6    1
     6     6     7    1
     7     6     8    1
     8     8     9    1
     9     9    10   ar
    10    10    11   ar
    11    11    12   ar
    12    12    13    1
    13    13    14   ar
    14    14    15   ar
    15    15    16   ar
    16    16    17   ar
    17    17    18    1
    18    18    19   ar
    19    19    20   ar
    20    20    21   ar
    21    21    22   ar
    22    22    23   ar
    23    23    24   ar
    24    24    25    2
    25    24    26   ar
    26    26    27   ar
    27    27    28   ar
    28    17    29   ar
    29    29    30   ar
    30    30    31   ar
    31    31    32   ar
    32    12    33   ar
    33    33    34   ar
    34     8     2    1
    35    34     9   ar
    36    32    13   ar
    37    31    16   ar
    38    28    18   ar
    39    28    22   ar
    40     1    35    1
    41     1    36    1
    42     1    37    1
    43     2    38    1
    44     3    39    1
    45     3    40    1
    46     4    41    1
    47     5    42    1
    48     5    43    1
    49     6    44    1
    50     7    45    1
    51     7    46    1
    52     7    47    1
    53    10    48    1
    54    11    49    1
    55    14    50    1
    56    19    51    1
    57    20    52    1
    58    21    53    1
    59    23    54    1
    60    26    55    1
    61    27    56    1
    62    29    57    1
    63    32    58    1
    64    33    59    1
    65    34    60    1
