
     RDKit          3D

 60 65  0  0  0  0  0  0  0  0999 V2000
   -5.3404    2.0759    0.5684 C   0  0  0  0  0  0  0  0  0  0  0  0
   -5.7015    0.7007    1.0850 C   0  0  1  0  0  0  0  0  0  0  0  0
   -7.1781    0.5690    1.0462 C   0  0  0  0  0  0  0  0  0  0  0  0
   -7.6944   -0.7569    0.9772 N   0  0  0  0  0  0  0  0  0  0  0  0
   -6.8107   -1.7358    0.4244 C   0  0  0  0  0  0  0  0  0  0  0  0
   -5.7987   -1.1355   -0.5351 C   0  0  1  0  0  0  0  0  0  0  0  0
   -6.5149   -0.3756   -1.6364 C   0  0  0  0  0  0  0  0  0  0  0  0
   -4.9832   -0.2592    0.2733 N   0  0  0  0  0  0  0  0  0  0  0  0
   -3.5772   -0.3058    0.2946 C   0  0  0  0  0  0  0  0  0  0  0  0
   -2.8451   -1.1442   -0.4985 C   0  0  0  0  0  0  0  0  0  0  0  0
   -1.4572   -1.1861   -0.4657 C   0  0  0  0  0  0  0  0  0  0  0  0
   -0.7649   -0.3617    0.3897 C   0  0  0  0  0  0  0  0  0  0  0  0
    0.7101   -0.4005    0.4350 C   0  0  0  0  0  0  0  0  0  0  0  0
    1.4587   -0.6931   -0.6837 C   0  0  0  0  0  0  0  0  0  0  0  0
    2.8117   -0.7244   -0.6263 N   0  0  0  0  0  0  0  0  0  0  0  0
    3.4607   -0.4688    0.5330 C   0  0  0  0  0  0  0  0  0  0  0  0
    4.8058   -0.4394    0.8410 C   0  0  0  0  0  0  0  0  0  0  0  0
    5.9616   -0.6830   -0.0120 C   0  0  0  0  0  0  0  0  0  0  0  0
    6.5410   -1.9217   -0.1878 C   0  0  0  0  0  0  0  0  0  0  0  0
    7.6347   -2.1260   -0.9963 C   0  0  0  0  0  0  0  0  0  0  0  0
    8.1842   -1.0454   -1.6671 C   0  0  0  0  0  0  0  0  0  0  0  0
    7.6239    0.2098   -1.5101 C   0  0  0  0  0  0  0  0  0  0  0  0
    8.1269    1.2863   -2.1445 N   0  0  0  0  0  0  0  0  0  0  0  0
    7.5852    2.5268   -1.9997 C   0  0  0  0  0  0  0  0  0  0  0  0
    8.1397    3.4630   -2.6428 O   0  0  0  0  0  0  0  0  0  0  0  0
    6.4898    2.7480   -1.1936 C   0  0  0  0  0  0  0  0  0  0  0  0
    5.9676    1.6341   -0.5357 C   0  0  0  0  0  0  0  0  0  0  0  0
    6.5187    0.3819   -0.6852 C   0  0  0  0  0  0  0  0  0  0  0  0
    4.8535   -0.1159    2.1987 C   0  0  0  0  0  0  0  0  0  0  0  0
    3.5904    0.0294    2.6315 N   0  0  0  0  0  0  0  0  0  0  0  0
    2.7311   -0.1822    1.6292 N   0  0  0  0  0  0  0  0  0  0  0  0
    1.3871   -0.1414    1.6128 C   0  0  0  0  0  0  0  0  0  0  0  0
   -1.4809    0.4898    1.1963 C   0  0  0  0  0  0  0  0  0  0  0  0
   -2.8580    0.5127    1.1453 C   0  0  0  0  0  0  0  0  0  0  0  0
   -5.1900    2.7436    1.4393 H   0  0  0  0  0  0  0  0  0  0  0  0
   -6.2170    2.5374    0.0215 H   0  0  0  0  0  0  0  0  0  0  0  0
   -4.4896    2.0669   -0.1420 H   0  0  0  0  0  0  0  0  0  0  0  0
   -5.3058    0.6214    2.1176 H   0  0  0  0  0  0  0  0  0  0  0  0
   -7.5736    1.0189    2.0068 H   0  0  0  0  0  0  0  0  0  0  0  0
   -7.6489    1.1743    0.2437 H   0  0  0  0  0  0  0  0  0  0  0  0
   -8.5756   -0.7824    0.3796 H   0  0  0  0  0  0  0  0  0  0  0  0
   -6.2347   -2.1928    1.2613 H   0  0  0  0  0  0  0  0  0  0  0  0
   -7.3512   -2.5574   -0.0768 H   0  0  0  0  0  0  0  0  0  0  0  0
   -5.2734   -1.9717   -0.9971 H   0  0  0  0  0  0  0  0  0  0  0  0
   -6.1653    0.6825   -1.6727 H   0  0  0  0  0  0  0  0  0  0  0  0
   -6.2834   -0.8176   -2.6261 H   0  0  0  0  0  0  0  0  0  0  0  0
   -7.6225   -0.4500   -1.5211 H   0  0  0  0  0  0  0  0  0  0  0  0
   -3.3078   -1.8061   -1.1831 H   0  0  0  0  0  0  0  0  0  0  0  0
   -0.9017   -1.8677   -1.1124 H   0  0  0  0  0  0  0  0  0  0  0  0
    0.9756   -0.9063   -1.6419 H   0  0  0  0  0  0  0  0  0  0  0  0
    6.1026   -2.7548    0.3409 H   0  0  0  0  0  0  0  0  0  0  0  0
    8.0691   -3.1092   -1.1159 H   0  0  0  0  0  0  0  0  0  0  0  0
    9.0447   -1.1268   -2.3211 H   0  0  0  0  0  0  0  0  0  0  0  0
    8.9565    1.1580   -2.7635 H   0  0  0  0  0  0  0  0  0  0  0  0
    6.0668    3.7345   -1.0843 H   0  0  0  0  0  0  0  0  0  0  0  0
    5.1214    1.7546    0.0980 H   0  0  0  0  0  0  0  0  0  0  0  0
    5.7429    0.0009    2.8080 H   0  0  0  0  0  0  0  0  0  0  0  0
    0.8165    0.0880    2.4914 H   0  0  0  0  0  0  0  0  0  0  0  0
   -0.9399    1.1343    1.8649 H   0  0  0  0  0  0  0  0  0  0  0  0
   -3.3929    1.2024    1.8022 H   0  0  0  0  0  0  0  0  0  0  0  0
  1  2  1  0
  2  3  1  0
  3  4  1  0
  4  5  1  0
  5  6  1  0
  6  7  1  0
  6  8  1  0
  8  9  1  0
  9 10  2  0
 10 11  1  0
 11 12  2  0
 12 13  1  0
 13 14  1  0
 14 15  2  0
 15 16  1  0
 16 17  2  0
 17 18  1  0
 18 19  2  0
 19 20  1  0
 20 21  2  0
 21 22  1  0
 22 23  1  0
 23 24  1  0
 24 25  2  0
 24 26  1  0
 26 27  2  0
 27 28  1  0
 17 29  1  0
 29 30  2  0
 30 31  1  0
 31 32  1  0
 12 33  1  0
 33 34  2  0
  8  2  1  0
 34  9  1  0
 32 13  2  0
 31 16  1  0
 28 18  1  0
 28 22  2  0
  1 35  1  0
  1 36  1  0
  1 37  1  0
  2 38  1  1
  3 39  1  0
  3 40  1  0
  4 41  1  0
  5 42  1  0
  5 43  1  0
  6 44  1  6
  7 45  1  0
  7 46  1  0
  7 47  1  0
 10 48  1  0
 11 49  1  0
 14 50  1  0
 19 51  1  0
 20 52  1  0
 21 53  1  0
 23 54  1  0
 26 55  1  0
 27 56  1  0
 29 57  1  0
 32 58  1  0
 33 59  1  0
 34 60  1  0
M  END
$$$$
