@<TRIPOS>MOLECULE
*****
 52 55 0 0 0
SMALL
GASTEIGER

@<TRIPOS>ATOM
      1 C           7.5467    0.6129   -1.1203 C.3     1  UNL1        0.0365
      2 O           6.4424    0.1738   -1.8142 O.3     1  UNL1       -0.3812
      3 C           5.6576    1.2154   -2.2140 C.3     1  UNL1        0.0668
      4 C           5.1497    2.0108   -1.0622 C.3     1  UNL1        0.0649
      5 N           4.3589    1.1380   -0.1850 N.ar    1  UNL1       -0.2686
      6 C           3.0330    0.9013   -0.2644 C.ar    1  UNL1        0.0348
      7 C           2.6401    0.0283    0.7266 C.ar    1  UNL1        0.0379
      8 C           1.2976   -0.4933    1.0026 C.ar    1  UNL1        0.0798
      9 C           1.1397   -1.3640    2.0575 C.ar    1  UNL1       -0.0076
     10 C          -0.1003   -1.8922    2.3709 C.ar    1  UNL1        0.0999
     11 N          -0.5164   -2.7455    3.3301 N.ar    1  UNL1       -0.1712
     12 N          -1.8047   -2.9139    3.1751 N.ar    1  UNL1       -0.2732
     13 C          -2.6787   -3.7478    3.9792 C.3     1  UNL1        0.0302
     14 C          -2.2459   -2.1758    2.1168 C.ar    1  UNL1        0.0380
     15 C          -1.1733   -1.5116    1.5838 C.ar    1  UNL1        0.0812
     16 C          -1.0366   -0.6272    0.5055 C.ar    1  UNL1        0.2265
     17 O          -2.0401   -0.2411   -0.2687 O.3     1  UNL1       -0.4725
     18 C          -3.3367   -0.3191   -0.5406 C.3     1  UNL1        0.1037
     19 C          -3.5177   -0.8529   -1.9758 C.3     1  UNL1       -0.0274
     20 C          -3.9366    1.0982   -0.4798 C.3     1  UNL1        0.0196
     21 C          -3.2809    2.0026   -1.4732 C.3     1  UNL1        0.0182
     22 N          -4.3741    2.7514   -2.0311 N.am    1  UNL1       -0.3149
     23 C          -5.5253    1.9318   -1.9814 C.2     1  UNL1        0.2135
     24 O          -6.4692    1.9388   -2.8438 O.2     1  UNL1       -0.2758
     25 C          -5.4006    1.0981   -0.7593 C.3     1  UNL1        0.0315
     26 N           0.2377   -0.1623    0.2819 N.ar    1  UNL1       -0.2121
     27 C           3.7907   -0.2606    1.4201 C.ar    1  UNL1        0.0586
     28 N           4.7943    0.4259    0.8392 N.ar    1  UNL1       -0.1789
     29 H           8.1404    1.2889   -1.7709 H       1  UNL1        0.0523
     30 H           8.2170   -0.2297   -0.8215 H       1  UNL1        0.0523
     31 H           7.2898    1.1511   -0.1997 H       1  UNL1        0.0523
     32 H           6.2055    1.8751   -2.9200 H       1  UNL1        0.0578
     33 H           4.7844    0.8330   -2.7975 H       1  UNL1        0.0578
     34 H           4.4064    2.7463   -1.4836 H       1  UNL1        0.0531
     35 H           5.9042    2.5634   -0.4939 H       1  UNL1        0.0531
     36 H           2.3521    1.3349   -1.0067 H       1  UNL1        0.0833
     37 H           1.9954   -1.6420    2.6530 H       1  UNL1        0.0661
     38 H          -2.0918   -4.2790    4.7399 H       1  UNL1        0.0473
     39 H          -3.2019   -4.4824    3.3244 H       1  UNL1        0.0473
     40 H          -3.4267   -3.0637    4.4583 H       1  UNL1        0.0473
     41 H          -3.2533   -2.1331    1.7753 H       1  UNL1        0.0834
     42 H          -3.9938   -0.9479    0.0637 H       1  UNL1        0.0734
     43 H          -3.4766   -1.9572   -1.8805 H       1  UNL1        0.0265
     44 H          -2.6646   -0.5672   -2.6161 H       1  UNL1        0.0265
     45 H          -4.5022   -0.5905   -2.3816 H       1  UNL1        0.0265
     46 H          -3.7505    1.4534    0.5496 H       1  UNL1        0.0356
     47 H          -2.5437    2.6484   -0.9518 H       1  UNL1        0.0466
     48 H          -2.8086    1.4390   -2.2852 H       1  UNL1        0.0466
     49 H          -4.3111    3.7423   -2.4090 H       1  UNL1        0.1487
     50 H          -5.9780    1.6257    0.0453 H       1  UNL1        0.0363
     51 H          -5.8261    0.0861   -0.9102 H       1  UNL1        0.0363
     52 H           3.8824   -0.9152    2.2736 H       1  UNL1        0.0854
@<TRIPOS>BOND
     1     1     2    1
     2     2     3    1
     3     3     4    1
     4     4     5    1
     5     5     6   ar
     6     6     7   ar
     7     7     8    1
     8     8     9   ar
     9     9    10   ar
    10    10    11   ar
    11    11    12   ar
    12    12    13    1
    13    12    14   ar
    14    14    15   ar
    15    15    16   ar
    16    16    17    1
    17    17    18    1
    18    18    19    1
    19    18    20    1
    20    20    21    1
    21    21    22    1
    22    22    23   am
    23    23    24    2
    24    23    25    1
    25    16    26   ar
    26     7    27   ar
    27    27    28   ar
    28    28     5   ar
    29    26     8   ar
    30    15    10   ar
    31    25    20    1
    32     1    29    1
    33     1    30    1
    34     1    31    1
    35     3    32    1
    36     3    33    1
    37     4    34    1
    38     4    35    1
    39     6    36    1
    40     9    37    1
    41    13    38    1
    42    13    39    1
    43    13    40    1
    44    14    41    1
    45    18    42    1
    46    19    43    1
    47    19    44    1
    48    19    45    1
    49    20    46    1
    50    21    47    1
    51    21    48    1
    52    22    49    1
    53    25    50    1
    54    25    51    1
    55    27    52    1
