
     RDKit          3D

 52 55  0  0  0  0  0  0  0  0999 V2000
    7.5467    0.6129   -1.1203 C   0  0  0  0  0  0  0  0  0  0  0  0
    6.4424    0.1738   -1.8142 O   0  0  0  0  0  0  0  0  0  0  0  0
    5.6576    1.2154   -2.2140 C   0  0  0  0  0  0  0  0  0  0  0  0
    5.1497    2.0108   -1.0622 C   0  0  0  0  0  0  0  0  0  0  0  0
    4.3589    1.1380   -0.1850 N   0  0  0  0  0  0  0  0  0  0  0  0
    3.0330    0.9013   -0.2644 C   0  0  0  0  0  0  0  0  0  0  0  0
    2.6401    0.0283    0.7266 C   0  0  0  0  0  0  0  0  0  0  0  0
    1.2976   -0.4933    1.0026 C   0  0  0  0  0  0  0  0  0  0  0  0
    1.1397   -1.3640    2.0575 C   0  0  0  0  0  0  0  0  0  0  0  0
   -0.1003   -1.8922    2.3709 C   0  0  0  0  0  0  0  0  0  0  0  0
   -0.5164   -2.7455    3.3301 N   0  0  0  0  0  0  0  0  0  0  0  0
   -1.8047   -2.9139    3.1751 N   0  0  0  0  0  0  0  0  0  0  0  0
   -2.6787   -3.7478    3.9792 C   0  0  0  0  0  0  0  0  0  0  0  0
   -2.2459   -2.1758    2.1168 C   0  0  0  0  0  0  0  0  0  0  0  0
   -1.1733   -1.5116    1.5838 C   0  0  0  0  0  0  0  0  0  0  0  0
   -1.0366   -0.6272    0.5055 C   0  0  0  0  0  0  0  0  0  0  0  0
   -2.0401   -0.2411   -0.2687 O   0  0  0  0  0  0  0  0  0  0  0  0
   -3.3367   -0.3191   -0.5406 C   0  0  2  0  0  0  0  0  0  0  0  0
   -3.5177   -0.8529   -1.9758 C   0  0  0  0  0  0  0  0  0  0  0  0
   -3.9366    1.0982   -0.4798 C   0  0  1  0  0  0  0  0  0  0  0  0
   -3.2809    2.0026   -1.4732 C   0  0  0  0  0  0  0  0  0  0  0  0
   -4.3741    2.7514   -2.0311 N   0  0  0  0  0  0  0  0  0  0  0  0
   -5.5253    1.9318   -1.9814 C   0  0  0  0  0  0  0  0  0  0  0  0
   -6.4692    1.9388   -2.8438 O   0  0  0  0  0  0  0  0  0  0  0  0
   -5.4006    1.0981   -0.7593 C   0  0  0  0  0  0  0  0  0  0  0  0
    0.2377   -0.1623    0.2819 N   0  0  0  0  0  0  0  0  0  0  0  0
    3.7907   -0.2606    1.4201 C   0  0  0  0  0  0  0  0  0  0  0  0
    4.7943    0.4259    0.8392 N   0  0  0  0  0  0  0  0  0  0  0  0
    8.1404    1.2889   -1.7709 H   0  0  0  0  0  0  0  0  0  0  0  0
    8.2170   -0.2297   -0.8215 H   0  0  0  0  0  0  0  0  0  0  0  0
    7.2898    1.1511   -0.1997 H   0  0  0  0  0  0  0  0  0  0  0  0
    6.2055    1.8751   -2.9200 H   0  0  0  0  0  0  0  0  0  0  0  0
    4.7844    0.8330   -2.7975 H   0  0  0  0  0  0  0  0  0  0  0  0
    4.4064    2.7463   -1.4836 H   0  0  0  0  0  0  0  0  0  0  0  0
    5.9042    2.5634   -0.4939 H   0  0  0  0  0  0  0  0  0  0  0  0
    2.3521    1.3349   -1.0067 H   0  0  0  0  0  0  0  0  0  0  0  0
    1.9954   -1.6420    2.6530 H   0  0  0  0  0  0  0  0  0  0  0  0
   -2.0918   -4.2790    4.7399 H   0  0  0  0  0  0  0  0  0  0  0  0
   -3.2019   -4.4824    3.3244 H   0  0  0  0  0  0  0  0  0  0  0  0
   -3.4267   -3.0637    4.4583 H   0  0  0  0  0  0  0  0  0  0  0  0
   -3.2533   -2.1331    1.7753 H   0  0  0  0  0  0  0  0  0  0  0  0
   -3.9938   -0.9479    0.0637 H   0  0  0  0  0  0  0  0  0  0  0  0
   -3.4766   -1.9572   -1.8805 H   0  0  0  0  0  0  0  0  0  0  0  0
   -2.6646   -0.5672   -2.6161 H   0  0  0  0  0  0  0  0  0  0  0  0
   -4.5022   -0.5905   -2.3816 H   0  0  0  0  0  0  0  0  0  0  0  0
   -3.7505    1.4534    0.5496 H   0  0  0  0  0  0  0  0  0  0  0  0
   -2.5437    2.6484   -0.9518 H   0  0  0  0  0  0  0  0  0  0  0  0
   -2.8086    1.4390   -2.2852 H   0  0  0  0  0  0  0  0  0  0  0  0
   -4.3111    3.7423   -2.4090 H   0  0  0  0  0  0  0  0  0  0  0  0
   -5.9780    1.6257    0.0453 H   0  0  0  0  0  0  0  0  0  0  0  0
   -5.8261    0.0861   -0.9102 H   0  0  0  0  0  0  0  0  0  0  0  0
    3.8824   -0.9152    2.2736 H   0  0  0  0  0  0  0  0  0  0  0  0
  1  2  1  0
  2  3  1  0
  3  4  1  0
  4  5  1  0
  5  6  1  0
  6  7  2  0
  7  8  1  0
  8  9  2  0
  9 10  1  0
 10 11  2  0
 11 12  1  0
 12 13  1  0
 12 14  1  0
 14 15  2  0
 15 16  1  0
 16 17  1  0
 17 18  1  0
 18 19  1  0
 18 20  1  0
 20 21  1  0
 21 22  1  0
 22 23  1  0
 23 24  2  0
 23 25  1  0
 16 26  2  0
  7 27  1  0
 27 28  2  0
 28  5  1  0
 26  8  1  0
 15 10  1  0
 25 20  1  0
  1 29  1  0
  1 30  1  0
  1 31  1  0
  3 32  1  0
  3 33  1  0
  4 34  1  0
  4 35  1  0
  6 36  1  0
  9 37  1  0
 13 38  1  0
 13 39  1  0
 13 40  1  0
 14 41  1  0
 18 42  1  1
 19 43  1  0
 19 44  1  0
 19 45  1  0
 20 46  1  1
 21 47  1  0
 21 48  1  0
 22 49  1  0
 25 50  1  0
 25 51  1  0
 27 52  1  0
M  END
$$$$
