
     RDKit          3D

114115  0  0  0  0  0  0  0  0999 V2000
    3.6162    1.5399    1.1241 C   0  0  2  0  0  0  0  0  0  0  0  0
    4.6110    1.6827    2.2561 C   0  0  0  0  0  0  0  0  0  0  0  0
    2.4577    0.7692    1.6612 C   0  0  0  0  0  0  0  0  0  0  0  0
    1.3334    0.5073    0.6989 C   0  0  2  0  0  0  0  0  0  0  0  0
    0.8102    1.7653    0.2667 O   0  0  0  0  0  0  0  0  0  0  0  0
    0.1872   -0.1019    1.4925 C   0  0  2  0  0  0  0  0  0  0  0  0
    0.5101   -1.4167    2.1258 C   0  0  0  0  0  0  0  0  0  0  0  0
    0.8645   -2.5590    1.2756 C   0  0  0  0  0  0  0  0  0  0  0  0
    1.1316   -3.7279    2.2554 C   0  0  0  0  0  0  0  0  0  0  0  0
    2.0193   -2.4888    0.3609 C   0  0  0  0  0  0  0  0  0  0  0  0
   -0.9914   -0.2088    0.6447 N   0  0  0  0  0  0  0  0  0  0  0  0
   -2.1321   -0.4023    1.1350 C   0  0  0  0  0  0  0  0  0  0  0  0
   -2.2958   -0.5177    2.5075 O   0  0  0  0  0  0  0  0  0  0  0  0
   -3.2712   -0.5022    0.1533 C   0  0  2  0  0  0  0  0  0  0  0  0
   -2.8033   -0.0007   -1.1706 C   0  0  0  0  0  0  0  0  0  0  0  0
   -3.9234   -0.1599   -2.1676 C   0  0  0  0  0  0  0  0  0  0  0  0
   -4.0161    0.6538   -3.2864 O   0  0  0  0  0  0  0  0  0  0  0  0
   -4.9520   -0.7829   -2.4956 N   0  0  0  0  0  0  0  0  0  0  0  0
   -5.6954   -1.8513   -1.9777 C   0  0  0  0  0  0  0  0  0  0  0  0
   -7.1814   -1.7770   -2.3060 C   0  0  0  0  0  0  0  0  0  0  0  0
   -7.7721   -0.5740   -1.5977 C   0  0  0  0  0  0  0  0  0  0  0  0
   -9.2124   -0.3754   -1.9125 C   0  0  0  0  0  0  0  0  0  0  0  0
   -9.9270    0.6788   -1.1563 C   0  0  0  0  0  0  0  0  0  0  0  0
   -9.3288    2.0558   -1.2096 C   0  0  0  0  0  0  0  0  0  0  0  0
   -8.0444    1.9494   -0.5917 O   0  0  0  0  0  0  0  0  0  0  0  0
   -7.3405    3.0675   -0.1766 C   0  0  0  0  0  0  0  0  0  0  0  0
   -6.9570    4.3926   -0.0986 O   0  0  0  0  0  0  0  0  0  0  0  0
   -6.6745    2.4476    0.5637 N   0  0  0  0  0  0  0  0  0  0  0  0
   -5.8379    1.8595    1.4541 C   0  0  1  0  0  0  0  0  0  0  0  0
   -6.4083    0.7108    2.2742 C   0  0  0  0  0  0  0  0  0  0  0  0
   -5.3796    0.1402    3.2392 C   0  0  0  0  0  0  0  0  0  0  0  0
   -7.6068    1.1424    3.0647 C   0  0  0  0  0  0  0  0  0  0  0  0
   -4.5018    1.4407    0.8625 C   0  0  0  0  0  0  0  0  0  0  0  0
   -3.4547    2.2812    0.5158 O   0  0  0  0  0  0  0  0  0  0  0  0
   -4.4016    0.1817    0.6923 N   0  0  0  0  0  0  0  0  0  0  0  0
    4.2927    0.8979   -0.0211 C   0  0  0  0  0  0  0  0  0  0  0  0
    3.5790    0.7404   -1.1729 O   0  0  0  0  0  0  0  0  0  0  0  0
    5.5004    0.5129    0.0889 N   0  0  0  0  0  0  0  0  0  0  0  0
    6.3921   -0.1108   -0.7895 C   0  0  1  0  0  0  0  0  0  0  0  0
    6.1815   -1.5768   -1.0616 C   0  0  0  0  0  0  0  0  0  0  0  0
    6.2835   -2.3426    0.2429 C   0  0  0  0  0  0  0  0  0  0  0  0
    7.2847   -2.1122   -1.9734 C   0  0  0  0  0  0  0  0  0  0  0  0
    6.3669    0.5962   -2.1208 C   0  0  0  0  0  0  0  0  0  0  0  0
    5.7823    1.0567   -3.2739 O   0  0  0  0  0  0  0  0  0  0  0  0
    7.0829    1.2325   -2.9459 N   0  0  0  0  0  0  0  0  0  0  0  0
    8.4332    1.6187   -2.9850 C   0  0  0  0  0  0  0  0  0  0  0  0
    9.2747    1.2416   -1.8242 C   0  0  0  0  0  0  0  0  0  0  0  0
    9.9358    0.0095   -1.8469 C   0  0  0  0  0  0  0  0  0  0  0  0
   10.7567   -0.4721   -0.8504 C   0  0  0  0  0  0  0  0  0  0  0  0
   10.9303    0.3338    0.2472 C   0  0  0  0  0  0  0  0  0  0  0  0
   10.3015    1.5509    0.3122 C   0  0  0  0  0  0  0  0  0  0  0  0
    9.4814    2.0303   -0.6849 C   0  0  0  0  0  0  0  0  0  0  0  0
    3.3119    2.5563    0.8206 H   0  0  0  0  0  0  0  0  0  0  0  0
    5.4636    2.3404    2.0231 H   0  0  0  0  0  0  0  0  0  0  0  0
    4.0217    2.0930    3.1147 H   0  0  0  0  0  0  0  0  0  0  0  0
    4.9208    0.6666    2.5686 H   0  0  0  0  0  0  0  0  0  0  0  0
    2.8178   -0.1010    2.2212 H   0  0  0  0  0  0  0  0  0  0  0  0
    2.0097    1.4308    2.4601 H   0  0  0  0  0  0  0  0  0  0  0  0
    1.5838    0.0020   -0.2199 H   0  0  0  0  0  0  0  0  0  0  0  0
    1.1856    2.5130    0.7577 H   0  0  0  0  0  0  0  0  0  0  0  0
   -0.0523    0.6211    2.2835 H   0  0  0  0  0  0  0  0  0  0  0  0
    1.3506   -1.2796    2.8678 H   0  0  0  0  0  0  0  0  0  0  0  0
   -0.3576   -1.7249    2.7603 H   0  0  0  0  0  0  0  0  0  0  0  0
   -0.0072   -2.9515    0.6711 H   0  0  0  0  0  0  0  0  0  0  0  0
    0.4119   -3.6706    3.1063 H   0  0  0  0  0  0  0  0  0  0  0  0
    2.1286   -3.5126    2.6906 H   0  0  0  0  0  0  0  0  0  0  0  0
    1.1513   -4.6909    1.7435 H   0  0  0  0  0  0  0  0  0  0  0  0
    1.7532   -2.2817   -0.7019 H   0  0  0  0  0  0  0  0  0  0  0  0
    2.4377   -3.5506    0.2883 H   0  0  0  0  0  0  0  0  0  0  0  0
    2.8845   -1.9164    0.7336 H   0  0  0  0  0  0  0  0  0  0  0  0
   -1.8048    0.1306    3.1433 H   0  0  0  0  0  0  0  0  0  0  0  0
   -3.4619   -1.6193    0.1084 H   0  0  0  0  0  0  0  0  0  0  0  0
   -2.4382    1.0397   -1.1692 H   0  0  0  0  0  0  0  0  0  0  0  0
   -1.9580   -0.6812   -1.4754 H   0  0  0  0  0  0  0  0  0  0  0  0
   -3.8369    0.3296   -4.2191 H   0  0  0  0  0  0  0  0  0  0  0  0
   -5.3245   -2.7973   -2.4729 H   0  0  0  0  0  0  0  0  0  0  0  0
   -5.5922   -2.0584   -0.8868 H   0  0  0  0  0  0  0  0  0  0  0  0
   -7.2692   -1.7007   -3.3974 H   0  0  0  0  0  0  0  0  0  0  0  0
   -7.6247   -2.6841   -1.8565 H   0  0  0  0  0  0  0  0  0  0  0  0
   -7.2043    0.3250   -1.9768 H   0  0  0  0  0  0  0  0  0  0  0  0
   -7.5409   -0.6805   -0.5443 H   0  0  0  0  0  0  0  0  0  0  0  0
   -9.4045   -0.2331   -3.0015 H   0  0  0  0  0  0  0  0  0  0  0  0
   -9.7288   -1.3544   -1.6791 H   0  0  0  0  0  0  0  0  0  0  0  0
  -10.9732    0.7946   -1.5671 H   0  0  0  0  0  0  0  0  0  0  0  0
  -10.0952    0.3309   -0.1124 H   0  0  0  0  0  0  0  0  0  0  0  0
   -9.1263    2.3118   -2.2718 H   0  0  0  0  0  0  0  0  0  0  0  0
   -9.9233    2.8111   -0.6988 H   0  0  0  0  0  0  0  0  0  0  0  0
   -7.2284    4.9928    0.6896 H   0  0  0  0  0  0  0  0  0  0  0  0
   -5.5581    2.6237    2.2576 H   0  0  0  0  0  0  0  0  0  0  0  0
   -6.7187   -0.0680    1.5522 H   0  0  0  0  0  0  0  0  0  0  0  0
   -5.0008   -0.8015    2.7761 H   0  0  0  0  0  0  0  0  0  0  0  0
   -5.8761   -0.0609    4.2020 H   0  0  0  0  0  0  0  0  0  0  0  0
   -4.5279    0.8325    3.3612 H   0  0  0  0  0  0  0  0  0  0  0  0
   -8.4170    0.4082    2.9059 H   0  0  0  0  0  0  0  0  0  0  0  0
   -7.9795    2.0966    2.6287 H   0  0  0  0  0  0  0  0  0  0  0  0
   -7.3553    1.2772    4.1417 H   0  0  0  0  0  0  0  0  0  0  0  0
   -2.5361    2.0539    0.9316 H   0  0  0  0  0  0  0  0  0  0  0  0
    3.6452   -0.1215   -1.7149 H   0  0  0  0  0  0  0  0  0  0  0  0
    7.4447    0.0480   -0.4327 H   0  0  0  0  0  0  0  0  0  0  0  0
    5.2469   -1.8484   -1.5335 H   0  0  0  0  0  0  0  0  0  0  0  0
    7.2578   -2.8686    0.3167 H   0  0  0  0  0  0  0  0  0  0  0  0
    5.5118   -3.1355    0.2842 H   0  0  0  0  0  0  0  0  0  0  0  0
    6.1190   -1.6434    1.0887 H   0  0  0  0  0  0  0  0  0  0  0  0
    8.2131   -2.3035   -1.4045 H   0  0  0  0  0  0  0  0  0  0  0  0
    6.9473   -3.1038   -2.3756 H   0  0  0  0  0  0  0  0  0  0  0  0
    7.4251   -1.4788   -2.8731 H   0  0  0  0  0  0  0  0  0  0  0  0
    4.8893    0.6595   -3.5813 H   0  0  0  0  0  0  0  0  0  0  0  0
    8.5178    2.7372   -3.1372 H   0  0  0  0  0  0  0  0  0  0  0  0
    8.9511    1.1854   -3.8809 H   0  0  0  0  0  0  0  0  0  0  0  0
    9.7893   -0.6151   -2.7191 H   0  0  0  0  0  0  0  0  0  0  0  0
   11.2152   -1.4379   -0.9745 H   0  0  0  0  0  0  0  0  0  0  0  0
   11.5824   -0.0687    1.0200 H   0  0  0  0  0  0  0  0  0  0  0  0
   10.4642    2.1628    1.2021 H   0  0  0  0  0  0  0  0  0  0  0  0
    8.9781    2.9764   -0.6609 H   0  0  0  0  0  0  0  0  0  0  0  0
  1  2  1  0
  1  3  1  0
  3  4  1  0
  4  5  1  0
  4  6  1  0
  6  7  1  0
  7  8  1  0
  8  9  1  0
  8 10  1  0
  6 11  1  0
 11 12  2  3
 12 13  1  0
 12 14  1  0
 14 15  1  0
 15 16  1  0
 16 17  1  0
 16 18  2  3
 18 19  1  0
 19 20  1  0
 20 21  1  0
 21 22  1  0
 22 23  1  0
 23 24  1  0
 24 25  1  0
 25 26  1  0
 26 27  1  0
 26 28  2  3
 28 29  1  0
 29 30  1  0
 30 31  1  0
 30 32  1  0
 29 33  1  0
 33 34  1  0
 33 35  2  3
  1 36  1  0
 36 37  1  0
 36 38  2  3
 38 39  1  0
 39 40  1  0
 40 41  1  0
 40 42  1  0
 39 43  1  0
 43 44  1  0
 43 45  2  3
 45 46  1  0
 46 47  1  0
 47 48  2  0
 48 49  1  0
 49 50  2  0
 50 51  1  0
 51 52  2  0
 35 14  1  0
 52 47  1  0
  1 53  1  6
  2 54  1  0
  2 55  1  0
  2 56  1  0
  3 57  1  0
  3 58  1  0
  4 59  1  6
  5 60  1  0
  6 61  1  1
  7 62  1  0
  7 63  1  0
  8 64  1  0
  9 65  1  0
  9 66  1  0
  9 67  1  0
 10 68  1  0
 10 69  1  0
 10 70  1  0
 13 71  1  0
 14 72  1  6
 15 73  1  0
 15 74  1  0
 17 75  1  0
 19 76  1  0
 19 77  1  0
 20 78  1  0
 20 79  1  0
 21 80  1  0
 21 81  1  0
 22 82  1  0
 22 83  1  0
 23 84  1  0
 23 85  1  0
 24 86  1  0
 24 87  1  0
 27 88  1  0
 29 89  1  1
 30 90  1  0
 31 91  1  0
 31 92  1  0
 31 93  1  0
 32 94  1  0
 32 95  1  0
 32 96  1  0
 34 97  1  0
 37 98  1  0
 39 99  1  1
 40100  1  0
 41101  1  0
 41102  1  0
 41103  1  0
 42104  1  0
 42105  1  0
 42106  1  0
 44107  1  0
 46108  1  0
 46109  1  0
 48110  1  0
 49111  1  0
 50112  1  0
 51113  1  0
 52114  1  0
M  END
$$$$
