@<TRIPOS>MOLECULE
*****
 114 115 0 0 0
SMALL
GASTEIGER

@<TRIPOS>ATOM
      1 C           3.6162    1.5399    1.1241 C.3     1  UNL1        0.0342
      2 C           4.6110    1.6827    2.2561 C.3     1  UNL1       -0.0539
      3 C           2.4577    0.7692    1.6612 C.3     1  UNL1       -0.0139
      4 C           1.3334    0.5073    0.6989 C.3     1  UNL1        0.0782
      5 O           0.8102    1.7653    0.2667 O.3     1  UNL1       -0.3897
      6 C           0.1872   -0.1019    1.4925 C.3     1  UNL1        0.0803
      7 C           0.5101   -1.4167    2.1258 C.3     1  UNL1       -0.0257
      8 C           0.8645   -2.5590    1.2756 C.3     1  UNL1       -0.0447
      9 C           1.1316   -3.7279    2.2554 C.3     1  UNL1       -0.0626
     10 C           2.0193   -2.4888    0.3609 C.3     1  UNL1       -0.0626
     11 N          -0.9914   -0.2088    0.6447 N.2     1  UNL1       -0.2470
     12 C          -2.1321   -0.4023    1.1350 C.2     1  UNL1        0.2087
     13 O          -2.2958   -0.5177    2.5075 O.2     1  UNL1       -0.4942
     14 C          -3.2712   -0.5022    0.1533 C.3     1  UNL1        0.1372
     15 C          -2.8033   -0.0007   -1.1706 C.3     1  UNL1        0.0540
     16 C          -3.9234   -0.1599   -2.1676 C.2     1  UNL1        0.1850
     17 O          -4.0161    0.6538   -3.2864 O.2     1  UNL1       -0.4956
     18 N          -4.9520   -0.7829   -2.4956 N.2     1  UNL1       -0.2547
     19 C          -5.6954   -1.8513   -1.9777 C.3     1  UNL1        0.0430
     20 C          -7.1814   -1.7770   -2.3060 C.3     1  UNL1       -0.0333
     21 C          -7.7721   -0.5740   -1.5977 C.3     1  UNL1       -0.0513
     22 C          -9.2124   -0.3754   -1.9125 C.3     1  UNL1       -0.0499
     23 C          -9.9270    0.6788   -1.1563 C.3     1  UNL1       -0.0185
     24 C          -9.3288    2.0558   -1.2096 C.3     1  UNL1        0.0942
     25 O          -8.0444    1.9494   -0.5917 O.2     1  UNL1       -0.4499
     26 C          -7.3405    3.0675   -0.1766 C.2     1  UNL1        0.3841
     27 O          -6.9570    4.3926   -0.0986 O.2     1  UNL1       -0.4658
     28 N          -6.6745    2.4476    0.5637 N.2     1  UNL1       -0.2034
     29 C          -5.8379    1.8595    1.4541 C.3     1  UNL1        0.1346
     30 C          -6.4083    0.7108    2.2742 C.3     1  UNL1       -0.0154
     31 C          -5.3796    0.1402    3.2392 C.3     1  UNL1       -0.0603
     32 C          -7.6068    1.1424    3.0647 C.3     1  UNL1       -0.0603
     33 C          -4.5018    1.4407    0.8625 C.2     1  UNL1        0.2090
     34 O          -3.4547    2.2812    0.5158 O.2     1  UNL1       -0.4942
     35 N          -4.4016    0.1817    0.6923 N.2     1  UNL1       -0.2396
     36 C           4.2927    0.8979   -0.0211 C.2     1  UNL1        0.1862
     37 O           3.5790    0.7404   -1.1729 O.2     1  UNL1       -0.4954
     38 N           5.5004    0.5129    0.0889 N.2     1  UNL1       -0.2414
     39 C           6.3921   -0.1108   -0.7895 C.3     1  UNL1        0.1312
     40 C           6.1815   -1.5768   -1.0616 C.3     1  UNL1       -0.0156
     41 C           6.2835   -2.3426    0.2429 C.3     1  UNL1       -0.0603
     42 C           7.2847   -2.1122   -1.9734 C.3     1  UNL1       -0.0603
     43 C           6.3669    0.5962   -2.1208 C.2     1  UNL1        0.2085
     44 O           5.7823    1.0567   -3.2739 O.2     1  UNL1       -0.4942
     45 N           7.0829    1.2325   -2.9459 N.2     1  UNL1       -0.2482
     46 C           8.4332    1.6187   -2.9850 C.3     1  UNL1        0.0681
     47 C           9.2747    1.2416   -1.8242 C.ar    1  UNL1       -0.0261
     48 C           9.9358    0.0095   -1.8469 C.ar    1  UNL1       -0.0568
     49 C          10.7567   -0.4721   -0.8504 C.ar    1  UNL1       -0.0614
     50 C          10.9303    0.3338    0.2472 C.ar    1  UNL1       -0.0617
     51 C          10.3015    1.5509    0.3122 C.ar    1  UNL1       -0.0614
     52 C           9.4814    2.0303   -0.6849 C.ar    1  UNL1       -0.0568
     53 H           3.3119    2.5563    0.8206 H       1  UNL1        0.0393
     54 H           5.4636    2.3404    2.0231 H       1  UNL1        0.0237
     55 H           4.0217    2.0930    3.1147 H       1  UNL1        0.0237
     56 H           4.9208    0.6666    2.5686 H       1  UNL1        0.0237
     57 H           2.8178   -0.1010    2.2212 H       1  UNL1        0.0298
     58 H           2.0097    1.4308    2.4601 H       1  UNL1        0.0298
     59 H           1.5838    0.0020   -0.2199 H       1  UNL1        0.0615
     60 H           1.1856    2.5130    0.7577 H       1  UNL1        0.2099
     61 H          -0.0523    0.6211    2.2835 H       1  UNL1        0.0571
     62 H           1.3506   -1.2796    2.8678 H       1  UNL1        0.0289
     63 H          -0.3576   -1.7249    2.7603 H       1  UNL1        0.0289
     64 H          -0.0072   -2.9515    0.6711 H       1  UNL1        0.0296
     65 H           0.4119   -3.6706    3.1063 H       1  UNL1        0.0232
     66 H           2.1286   -3.5126    2.6906 H       1  UNL1        0.0232
     67 H           1.1513   -4.6909    1.7435 H       1  UNL1        0.0232
     68 H           1.7532   -2.2817   -0.7019 H       1  UNL1        0.0232
     69 H           2.4377   -3.5506    0.2883 H       1  UNL1        0.0232
     70 H           2.8845   -1.9164    0.7336 H       1  UNL1        0.0232
     71 H          -1.8048    0.1306    3.1433 H       1  UNL1        0.2935
     72 H          -3.4619   -1.6193    0.1084 H       1  UNL1        0.0648
     73 H          -2.4382    1.0397   -1.1692 H       1  UNL1        0.0385
     74 H          -1.9580   -0.6812   -1.4754 H       1  UNL1        0.0385
     75 H          -3.8369    0.3296   -4.2191 H       1  UNL1        0.2934
     76 H          -5.3245   -2.7973   -2.4729 H       1  UNL1        0.0509
     77 H          -5.5922   -2.0584   -0.8868 H       1  UNL1        0.0509
     78 H          -7.2692   -1.7007   -3.3974 H       1  UNL1        0.0283
     79 H          -7.6247   -2.6841   -1.8565 H       1  UNL1        0.0283
     80 H          -7.2043    0.3250   -1.9768 H       1  UNL1        0.0266
     81 H          -7.5409   -0.6805   -0.5443 H       1  UNL1        0.0266
     82 H          -9.4045   -0.2331   -3.0015 H       1  UNL1        0.0266
     83 H          -9.7288   -1.3544   -1.6791 H       1  UNL1        0.0266
     84 H         -10.9732    0.7946   -1.5671 H       1  UNL1        0.0298
     85 H         -10.0952    0.3309   -0.1124 H       1  UNL1        0.0298
     86 H          -9.1263    2.3118   -2.2718 H       1  UNL1        0.0698
     87 H          -9.9233    2.8111   -0.6988 H       1  UNL1        0.0698
     88 H          -7.2284    4.9928    0.6896 H       1  UNL1        0.2969
     89 H          -5.5581    2.6237    2.2576 H       1  UNL1        0.0647
     90 H          -6.7187   -0.0680    1.5522 H       1  UNL1        0.0321
     91 H          -5.0008   -0.8015    2.7761 H       1  UNL1        0.0233
     92 H          -5.8761   -0.0609    4.2020 H       1  UNL1        0.0233
     93 H          -4.5279    0.8325    3.3612 H       1  UNL1        0.0233
     94 H          -8.4170    0.4082    2.9059 H       1  UNL1        0.0233
     95 H          -7.9795    2.0966    2.6287 H       1  UNL1        0.0233
     96 H          -7.3553    1.2772    4.1417 H       1  UNL1        0.0233
     97 H          -2.5361    2.0539    0.9316 H       1  UNL1        0.2935
     98 H           3.6452   -0.1215   -1.7149 H       1  UNL1        0.2934
     99 H           7.4447    0.0480   -0.4327 H       1  UNL1        0.0645
    100 H           5.2469   -1.8484   -1.5335 H       1  UNL1        0.0321
    101 H           7.2578   -2.8686    0.3167 H       1  UNL1        0.0233
    102 H           5.5118   -3.1355    0.2842 H       1  UNL1        0.0233
    103 H           6.1190   -1.6434    1.0887 H       1  UNL1        0.0233
    104 H           8.2131   -2.3035   -1.4045 H       1  UNL1        0.0233
    105 H           6.9473   -3.1038   -2.3756 H       1  UNL1        0.0233
    106 H           7.4251   -1.4788   -2.8731 H       1  UNL1        0.0233
    107 H           4.8893    0.6595   -3.5813 H       1  UNL1        0.2935
    108 H           8.5178    2.7372   -3.1372 H       1  UNL1        0.0559
    109 H           8.9511    1.1854   -3.8809 H       1  UNL1        0.0559
    110 H           9.7893   -0.6151   -2.7191 H       1  UNL1        0.0621
    111 H          11.2152   -1.4379   -0.9745 H       1  UNL1        0.0618
    112 H          11.5824   -0.0687    1.0200 H       1  UNL1        0.0618
    113 H          10.4642    2.1628    1.2021 H       1  UNL1        0.0618
    114 H           8.9781    2.9764   -0.6609 H       1  UNL1        0.0621
@<TRIPOS>BOND
     1     1     2    1
     2     1     3    1
     3     3     4    1
     4     4     5    1
     5     4     6    1
     6     6     7    1
     7     7     8    1
     8     8     9    1
     9     8    10    1
    10     6    11    1
    11    11    12    2
    12    12    13    1
    13    12    14    1
    14    14    15    1
    15    15    16    1
    16    16    17    1
    17    16    18    2
    18    18    19    1
    19    19    20    1
    20    20    21    1
    21    21    22    1
    22    22    23    1
    23    23    24    1
    24    24    25    1
    25    25    26    1
    26    26    27    1
    27    26    28    2
    28    28    29    1
    29    29    30    1
    30    30    31    1
    31    30    32    1
    32    29    33    1
    33    33    34    1
    34    33    35    2
    35     1    36    1
    36    36    37    1
    37    36    38    2
    38    38    39    1
    39    39    40    1
    40    40    41    1
    41    40    42    1
    42    39    43    1
    43    43    44    1
    44    43    45    2
    45    45    46    1
    46    46    47    1
    47    47    48   ar
    48    48    49   ar
    49    49    50   ar
    50    50    51   ar
    51    51    52   ar
    52    35    14    1
    53    52    47   ar
    54     1    53    1
    55     2    54    1
    56     2    55    1
    57     2    56    1
    58     3    57    1
    59     3    58    1
    60     4    59    1
    61     5    60    1
    62     6    61    1
    63     7    62    1
    64     7    63    1
    65     8    64    1
    66     9    65    1
    67     9    66    1
    68     9    67    1
    69    10    68    1
    70    10    69    1
    71    10    70    1
    72    13    71    1
    73    14    72    1
    74    15    73    1
    75    15    74    1
    76    17    75    1
    77    19    76    1
    78    19    77    1
    79    20    78    1
    80    20    79    1
    81    21    80    1
    82    21    81    1
    83    22    82    1
    84    22    83    1
    85    23    84    1
    86    23    85    1
    87    24    86    1
    88    24    87    1
    89    27    88    1
    90    29    89    1
    91    30    90    1
    92    31    91    1
    93    31    92    1
    94    31    93    1
    95    32    94    1
    96    32    95    1
    97    32    96    1
    98    34    97    1
    99    37    98    1
   100    39    99    1
   101    40   100    1
   102    41   101    1
   103    41   102    1
   104    41   103    1
   105    42   104    1
   106    42   105    1
   107    42   106    1
   108    44   107    1
   109    46   108    1
   110    46   109    1
   111    48   110    1
   112    49   111    1
   113    50   112    1
   114    51   113    1
   115    52   114    1
