@<TRIPOS>MOLECULE
*****
 82 83 0 0 0
SMALL
GASTEIGER

@<TRIPOS>ATOM
      1 C           8.1866   -0.6138    3.2942 C.3     1  UNL1       -0.0560
      2 C           8.4745   -1.2136    1.9429 C.3     1  UNL1       -0.0123
      3 C           9.9351   -1.0693    1.5546 C.3     1  UNL1       -0.0560
      4 C           8.1530   -2.6928    1.9701 C.3     1  UNL1       -0.0560
      5 C           7.6230   -0.5964    0.8912 C.ar    1  UNL1       -0.0308
      6 C           6.4001   -1.1694    0.6276 C.ar    1  UNL1        0.0058
      7 C           5.5697   -0.6198   -0.3535 C.ar    1  UNL1        0.1715
      8 N           5.9203    0.4566   -1.0570 N.ar    1  UNL1       -0.2038
      9 C           5.1172    1.0876   -2.0843 C.3     1  UNL1        0.1505
     10 C           4.2648    2.1477   -1.4271 C.3     1  UNL1        0.0069
     11 C           3.3332    1.5805   -0.4288 C.3     1  UNL1       -0.0473
     12 C           2.3555    0.6486   -1.0853 C.3     1  UNL1       -0.0529
     13 C           1.3948    0.0503   -0.0753 C.3     1  UNL1       -0.0531
     14 C           0.4381   -0.8752   -0.7843 C.3     1  UNL1       -0.0531
     15 C          -0.3717   -0.1635   -1.8379 C.3     1  UNL1       -0.0531
     16 C          -1.2019    0.9463   -1.2790 C.3     1  UNL1       -0.0531
     17 C          -1.9756    1.6041   -2.3883 C.3     1  UNL1       -0.0529
     18 C          -2.9042    0.6747   -3.1099 C.3     1  UNL1       -0.0473
     19 C          -3.9323    0.0814   -2.1747 C.3     1  UNL1        0.0069
     20 C          -4.7324    1.1936   -1.5752 C.3     1  UNL1        0.1505
     21 N          -5.7477    0.7333   -0.6615 N.ar    1  UNL1       -0.2038
     22 C          -5.5498    0.5638    0.6491 C.ar    1  UNL1        0.1715
     23 C          -6.5198    0.1243    1.5205 C.ar    1  UNL1        0.0058
     24 C          -7.7684   -0.1559    1.0019 C.ar    1  UNL1       -0.0308
     25 C          -8.8525   -0.6302    1.8809 C.3     1  UNL1       -0.0123
     26 C          -9.6053    0.5649    2.4002 C.3     1  UNL1       -0.0560
     27 C          -8.2038   -1.4248    3.0147 C.3     1  UNL1       -0.0560
     28 C          -9.7663   -1.6002    1.1526 C.3     1  UNL1       -0.0560
     29 C          -8.0045    0.0107   -0.3570 C.ar    1  UNL1        0.0058
     30 C          -6.9714    0.4560   -1.1540 C.ar    1  UNL1        0.1715
     31 C           7.1384    1.0083   -0.7783 C.ar    1  UNL1        0.1715
     32 C           7.9916    0.5054    0.1768 C.ar    1  UNL1        0.0058
     33 H           8.0090    0.4777    3.2482 H       1  UNL1        0.0238
     34 H           9.0605   -0.7656    3.9823 H       1  UNL1        0.0238
     35 H           7.3269   -1.1271    3.7732 H       1  UNL1        0.0238
     36 H          10.4782   -1.9692    1.8641 H       1  UNL1        0.0238
     37 H          10.3656   -0.1388    1.9694 H       1  UNL1        0.0238
     38 H           9.9407   -1.0641    0.4255 H       1  UNL1        0.0238
     39 H           7.8368   -3.0039    0.9634 H       1  UNL1        0.0238
     40 H           7.3289   -2.8592    2.6933 H       1  UNL1        0.0238
     41 H           9.0715   -3.2554    2.2354 H       1  UNL1        0.0238
     42 H           6.0301   -2.0526    1.1545 H       1  UNL1        0.0680
     43 H           4.6142   -1.0808   -0.5537 H       1  UNL1        0.1376
     44 H           5.7889    1.5493   -2.8594 H       1  UNL1        0.1030
     45 H           4.5281    0.2846   -2.5586 H       1  UNL1        0.1030
     46 H           3.6545    2.6477   -2.2146 H       1  UNL1        0.0326
     47 H           4.8904    2.9311   -0.9416 H       1  UNL1        0.0326
     48 H           3.8607    1.0860    0.4300 H       1  UNL1        0.0267
     49 H           2.8019    2.4449    0.0626 H       1  UNL1        0.0267
     50 H           1.7658    1.2715   -1.7999 H       1  UNL1        0.0265
     51 H           2.7965   -0.1511   -1.6871 H       1  UNL1        0.0265
     52 H           1.9607   -0.5678    0.6519 H       1  UNL1        0.0265
     53 H           0.8976    0.8623    0.4621 H       1  UNL1        0.0265
     54 H           1.0660   -1.6333   -1.3252 H       1  UNL1        0.0265
     55 H          -0.2132   -1.4137   -0.0984 H       1  UNL1        0.0265
     56 H          -1.0791   -0.9363   -2.2513 H       1  UNL1        0.0265
     57 H           0.2667    0.1767   -2.6625 H       1  UNL1        0.0265
     58 H          -0.5889    1.7211   -0.7899 H       1  UNL1        0.0265
     59 H          -1.8673    0.5292   -0.4911 H       1  UNL1        0.0265
     60 H          -1.2062    1.9337   -3.1468 H       1  UNL1        0.0265
     61 H          -2.4653    2.5449   -2.0616 H       1  UNL1        0.0265
     62 H          -2.3077   -0.0874   -3.6375 H       1  UNL1        0.0267
     63 H          -3.4500    1.2783   -3.8644 H       1  UNL1        0.0267
     64 H          -4.6066   -0.5406   -2.7946 H       1  UNL1        0.0326
     65 H          -3.3978   -0.5312   -1.4390 H       1  UNL1        0.0326
     66 H          -5.2423    1.7211   -2.4336 H       1  UNL1        0.1030
     67 H          -4.1446    1.9595   -1.0642 H       1  UNL1        0.1030
     68 H          -4.5636    0.7900    1.0309 H       1  UNL1        0.1376
     69 H          -6.2987    0.0032    2.5927 H       1  UNL1        0.0680
     70 H          -9.1851    0.8106    3.3968 H       1  UNL1        0.0238
     71 H          -9.4246    1.4210    1.7470 H       1  UNL1        0.0238
     72 H         -10.7024    0.3985    2.4258 H       1  UNL1        0.0238
     73 H          -8.8650   -2.2712    3.3258 H       1  UNL1        0.0238
     74 H          -7.9572   -0.7578    3.8487 H       1  UNL1        0.0238
     75 H          -7.2625   -1.8973    2.6368 H       1  UNL1        0.0238
     76 H         -10.4154   -1.0496    0.4414 H       1  UNL1        0.0238
     77 H          -9.1258   -2.3521    0.6422 H       1  UNL1        0.0238
     78 H         -10.3895   -2.1663    1.8727 H       1  UNL1        0.0238
     79 H          -8.9965   -0.2098   -0.7797 H       1  UNL1        0.0680
     80 H          -7.1731    0.5814   -2.2176 H       1  UNL1        0.1376
     81 H           7.4462    1.8912   -1.3429 H       1  UNL1        0.1376
     82 H           8.9540    0.9536    0.3868 H       1  UNL1        0.0680
@<TRIPOS>UNITY_ATOM_ATTR
8 1
charge 1
21 1
charge 1
@<TRIPOS>BOND
     1     1     2    1
     2     2     3    1
     3     2     4    1
     4     2     5    1
     5     5     6   ar
     6     6     7   ar
     7     7     8   ar
     8     8     9    1
     9     9    10    1
    10    10    11    1
    11    11    12    1
    12    12    13    1
    13    13    14    1
    14    14    15    1
    15    15    16    1
    16    16    17    1
    17    17    18    1
    18    18    19    1
    19    19    20    1
    20    20    21    1
    21    21    22   ar
    22    22    23   ar
    23    23    24   ar
    24    24    25    1
    25    25    26    1
    26    25    27    1
    27    25    28    1
    28    24    29   ar
    29    29    30   ar
    30     8    31   ar
    31    31    32   ar
    32    32     5   ar
    33    30    21   ar
    34     1    33    1
    35     1    34    1
    36     1    35    1
    37     3    36    1
    38     3    37    1
    39     3    38    1
    40     4    39    1
    41     4    40    1
    42     4    41    1
    43     6    42    1
    44     7    43    1
    45     9    44    1
    46     9    45    1
    47    10    46    1
    48    10    47    1
    49    11    48    1
    50    11    49    1
    51    12    50    1
    52    12    51    1
    53    13    52    1
    54    13    53    1
    55    14    54    1
    56    14    55    1
    57    15    56    1
    58    15    57    1
    59    16    58    1
    60    16    59    1
    61    17    60    1
    62    17    61    1
    63    18    62    1
    64    18    63    1
    65    19    64    1
    66    19    65    1
    67    20    66    1
    68    20    67    1
    69    22    68    1
    70    23    69    1
    71    26    70    1
    72    26    71    1
    73    26    72    1
    74    27    73    1
    75    27    74    1
    76    27    75    1
    77    28    76    1
    78    28    77    1
    79    28    78    1
    80    29    79    1
    81    30    80    1
    82    31    81    1
    83    32    82    1
