
     RDKit          3D

 82 83  0  0  0  0  0  0  0  0999 V2000
    8.1866   -0.6138    3.2942 C   0  0  0  0  0  0  0  0  0  0  0  0
    8.4745   -1.2136    1.9429 C   0  0  0  0  0  0  0  0  0  0  0  0
    9.9351   -1.0693    1.5546 C   0  0  0  0  0  0  0  0  0  0  0  0
    8.1530   -2.6928    1.9701 C   0  0  0  0  0  0  0  0  0  0  0  0
    7.6230   -0.5964    0.8912 C   0  0  0  0  0  0  0  0  0  0  0  0
    6.4001   -1.1694    0.6276 C   0  0  0  0  0  0  0  0  0  0  0  0
    5.5697   -0.6198   -0.3535 C   0  0  0  0  0  0  0  0  0  0  0  0
    5.9203    0.4566   -1.0570 N   0  0  0  0  0  4  0  0  0  0  0  0
    5.1172    1.0876   -2.0843 C   0  0  0  0  0  0  0  0  0  0  0  0
    4.2648    2.1477   -1.4271 C   0  0  0  0  0  0  0  0  0  0  0  0
    3.3332    1.5805   -0.4288 C   0  0  0  0  0  0  0  0  0  0  0  0
    2.3555    0.6486   -1.0853 C   0  0  0  0  0  0  0  0  0  0  0  0
    1.3948    0.0503   -0.0753 C   0  0  0  0  0  0  0  0  0  0  0  0
    0.4381   -0.8752   -0.7843 C   0  0  0  0  0  0  0  0  0  0  0  0
   -0.3717   -0.1635   -1.8379 C   0  0  0  0  0  0  0  0  0  0  0  0
   -1.2019    0.9463   -1.2790 C   0  0  0  0  0  0  0  0  0  0  0  0
   -1.9756    1.6041   -2.3883 C   0  0  0  0  0  0  0  0  0  0  0  0
   -2.9042    0.6747   -3.1099 C   0  0  0  0  0  0  0  0  0  0  0  0
   -3.9323    0.0814   -2.1747 C   0  0  0  0  0  0  0  0  0  0  0  0
   -4.7324    1.1936   -1.5752 C   0  0  0  0  0  0  0  0  0  0  0  0
   -5.7477    0.7333   -0.6615 N   0  0  0  0  0  4  0  0  0  0  0  0
   -5.5498    0.5638    0.6491 C   0  0  0  0  0  0  0  0  0  0  0  0
   -6.5198    0.1243    1.5205 C   0  0  0  0  0  0  0  0  0  0  0  0
   -7.7684   -0.1559    1.0019 C   0  0  0  0  0  0  0  0  0  0  0  0
   -8.8525   -0.6302    1.8809 C   0  0  0  0  0  0  0  0  0  0  0  0
   -9.6053    0.5649    2.4002 C   0  0  0  0  0  0  0  0  0  0  0  0
   -8.2038   -1.4248    3.0147 C   0  0  0  0  0  0  0  0  0  0  0  0
   -9.7663   -1.6002    1.1526 C   0  0  0  0  0  0  0  0  0  0  0  0
   -8.0045    0.0107   -0.3570 C   0  0  0  0  0  0  0  0  0  0  0  0
   -6.9714    0.4560   -1.1540 C   0  0  0  0  0  0  0  0  0  0  0  0
    7.1384    1.0083   -0.7783 C   0  0  0  0  0  0  0  0  0  0  0  0
    7.9916    0.5054    0.1768 C   0  0  0  0  0  0  0  0  0  0  0  0
    8.0090    0.4777    3.2482 H   0  0  0  0  0  0  0  0  0  0  0  0
    9.0605   -0.7656    3.9823 H   0  0  0  0  0  0  0  0  0  0  0  0
    7.3269   -1.1271    3.7732 H   0  0  0  0  0  0  0  0  0  0  0  0
   10.4782   -1.9692    1.8641 H   0  0  0  0  0  0  0  0  0  0  0  0
   10.3656   -0.1388    1.9694 H   0  0  0  0  0  0  0  0  0  0  0  0
    9.9407   -1.0641    0.4255 H   0  0  0  0  0  0  0  0  0  0  0  0
    7.8368   -3.0039    0.9634 H   0  0  0  0  0  0  0  0  0  0  0  0
    7.3289   -2.8592    2.6933 H   0  0  0  0  0  0  0  0  0  0  0  0
    9.0715   -3.2554    2.2354 H   0  0  0  0  0  0  0  0  0  0  0  0
    6.0301   -2.0526    1.1545 H   0  0  0  0  0  0  0  0  0  0  0  0
    4.6142   -1.0808   -0.5537 H   0  0  0  0  0  0  0  0  0  0  0  0
    5.7889    1.5493   -2.8594 H   0  0  0  0  0  0  0  0  0  0  0  0
    4.5281    0.2846   -2.5586 H   0  0  0  0  0  0  0  0  0  0  0  0
    3.6545    2.6477   -2.2146 H   0  0  0  0  0  0  0  0  0  0  0  0
    4.8904    2.9311   -0.9416 H   0  0  0  0  0  0  0  0  0  0  0  0
    3.8607    1.0860    0.4300 H   0  0  0  0  0  0  0  0  0  0  0  0
    2.8019    2.4449    0.0626 H   0  0  0  0  0  0  0  0  0  0  0  0
    1.7658    1.2715   -1.7999 H   0  0  0  0  0  0  0  0  0  0  0  0
    2.7965   -0.1511   -1.6871 H   0  0  0  0  0  0  0  0  0  0  0  0
    1.9607   -0.5678    0.6519 H   0  0  0  0  0  0  0  0  0  0  0  0
    0.8976    0.8623    0.4621 H   0  0  0  0  0  0  0  0  0  0  0  0
    1.0660   -1.6333   -1.3252 H   0  0  0  0  0  0  0  0  0  0  0  0
   -0.2132   -1.4137   -0.0984 H   0  0  0  0  0  0  0  0  0  0  0  0
   -1.0791   -0.9363   -2.2513 H   0  0  0  0  0  0  0  0  0  0  0  0
    0.2667    0.1767   -2.6625 H   0  0  0  0  0  0  0  0  0  0  0  0
   -0.5889    1.7211   -0.7899 H   0  0  0  0  0  0  0  0  0  0  0  0
   -1.8673    0.5292   -0.4911 H   0  0  0  0  0  0  0  0  0  0  0  0
   -1.2062    1.9337   -3.1468 H   0  0  0  0  0  0  0  0  0  0  0  0
   -2.4653    2.5449   -2.0616 H   0  0  0  0  0  0  0  0  0  0  0  0
   -2.3077   -0.0874   -3.6375 H   0  0  0  0  0  0  0  0  0  0  0  0
   -3.4500    1.2783   -3.8644 H   0  0  0  0  0  0  0  0  0  0  0  0
   -4.6066   -0.5406   -2.7946 H   0  0  0  0  0  0  0  0  0  0  0  0
   -3.3978   -0.5312   -1.4390 H   0  0  0  0  0  0  0  0  0  0  0  0
   -5.2423    1.7211   -2.4336 H   0  0  0  0  0  0  0  0  0  0  0  0
   -4.1446    1.9595   -1.0642 H   0  0  0  0  0  0  0  0  0  0  0  0
   -4.5636    0.7900    1.0309 H   0  0  0  0  0  0  0  0  0  0  0  0
   -6.2987    0.0032    2.5927 H   0  0  0  0  0  0  0  0  0  0  0  0
   -9.1851    0.8106    3.3968 H   0  0  0  0  0  0  0  0  0  0  0  0
   -9.4246    1.4210    1.7470 H   0  0  0  0  0  0  0  0  0  0  0  0
  -10.7024    0.3985    2.4258 H   0  0  0  0  0  0  0  0  0  0  0  0
   -8.8650   -2.2712    3.3258 H   0  0  0  0  0  0  0  0  0  0  0  0
   -7.9572   -0.7578    3.8487 H   0  0  0  0  0  0  0  0  0  0  0  0
   -7.2625   -1.8973    2.6368 H   0  0  0  0  0  0  0  0  0  0  0  0
  -10.4154   -1.0496    0.4414 H   0  0  0  0  0  0  0  0  0  0  0  0
   -9.1258   -2.3521    0.6422 H   0  0  0  0  0  0  0  0  0  0  0  0
  -10.3895   -2.1663    1.8727 H   0  0  0  0  0  0  0  0  0  0  0  0
   -8.9965   -0.2098   -0.7797 H   0  0  0  0  0  0  0  0  0  0  0  0
   -7.1731    0.5814   -2.2176 H   0  0  0  0  0  0  0  0  0  0  0  0
    7.4462    1.8912   -1.3429 H   0  0  0  0  0  0  0  0  0  0  0  0
    8.9540    0.9536    0.3868 H   0  0  0  0  0  0  0  0  0  0  0  0
  1  2  1  0
  2  3  1  0
  2  4  1  0
  2  5  1  0
  5  6  2  0
  6  7  1  0
  7  8  2  0
  8  9  1  0
  9 10  1  0
 10 11  1  0
 11 12  1  0
 12 13  1  0
 13 14  1  0
 14 15  1  0
 15 16  1  0
 16 17  1  0
 17 18  1  0
 18 19  1  0
 19 20  1  0
 20 21  1  0
 21 22  2  0
 22 23  1  0
 23 24  2  0
 24 25  1  0
 25 26  1  0
 25 27  1  0
 25 28  1  0
 24 29  1  0
 29 30  2  0
  8 31  1  0
 31 32  2  0
 32  5  1  0
 30 21  1  0
  1 33  1  0
  1 34  1  0
  1 35  1  0
  3 36  1  0
  3 37  1  0
  3 38  1  0
  4 39  1  0
  4 40  1  0
  4 41  1  0
  6 42  1  0
  7 43  1  0
  9 44  1  0
  9 45  1  0
 10 46  1  0
 10 47  1  0
 11 48  1  0
 11 49  1  0
 12 50  1  0
 12 51  1  0
 13 52  1  0
 13 53  1  0
 14 54  1  0
 14 55  1  0
 15 56  1  0
 15 57  1  0
 16 58  1  0
 16 59  1  0
 17 60  1  0
 17 61  1  0
 18 62  1  0
 18 63  1  0
 19 64  1  0
 19 65  1  0
 20 66  1  0
 20 67  1  0
 22 68  1  0
 23 69  1  0
 26 70  1  0
 26 71  1  0
 26 72  1  0
 27 73  1  0
 27 74  1  0
 27 75  1  0
 28 76  1  0
 28 77  1  0
 28 78  1  0
 29 79  1  0
 30 80  1  0
 31 81  1  0
 32 82  1  0
M  CHG  2   8   1  21   1
M  END
$$$$
