@<TRIPOS>MOLECULE
*****
 72 79 0 0 0
SMALL
GASTEIGER

@<TRIPOS>ATOM
      1 C          -5.5469   -4.1316   -0.3240 C.ar    1  UNL1       -0.0617
      2 C          -5.0859   -3.4687    0.7834 C.ar    1  UNL1       -0.0612
      3 C          -5.0575   -2.0667    0.8137 C.ar    1  UNL1       -0.0540
      4 C          -5.4927   -1.3332   -0.2692 C.ar    1  UNL1       -0.0158
      5 C          -5.4442    0.1151   -0.1905 C.ar    1  UNL1        0.0088
      6 C          -6.6038    0.8704   -0.2589 C.ar    1  UNL1       -0.0392
      7 C          -6.5825    2.2412   -0.1919 C.ar    1  UNL1        0.0456
      8 C          -5.3502    2.8658   -0.0517 C.ar    1  UNL1        0.0766
      9 C          -5.3427    4.2504    0.0148 C.ar    1  UNL1       -0.0190
     10 C          -6.5229    4.9858   -0.0561 C.ar    1  UNL1        0.0147
     11 N          -7.6926    4.3376   -0.1917 N.ar    1  UNL1       -0.2884
     12 C          -8.9617    4.7674   -0.2844 C.ar    1  UNL1        0.1241
     13 N          -9.7982    3.7302   -0.4083 N.ar    1  UNL1       -0.1372
     14 N          -9.0413    2.6456   -0.3925 N.ar    1  UNL1       -0.1290
     15 C          -7.7512    2.9988   -0.2607 C.ar    1  UNL1        0.1701
     16 N          -4.2322    2.1514    0.0149 N.ar    1  UNL1       -0.2459
     17 C          -4.2492    0.7859   -0.0512 C.ar    1  UNL1        0.0794
     18 C          -3.0280    0.0088    0.0284 C.ar    1  UNL1        0.0010
     19 C          -2.2224    0.1532    1.1365 C.ar    1  UNL1       -0.0522
     20 C          -1.0414   -0.5974    1.2153 C.ar    1  UNL1       -0.0567
     21 C          -0.6809   -1.4644    0.2145 C.ar    1  UNL1       -0.0333
     22 C           0.5754   -2.2244    0.3323 C.3     1  UNL1        0.0240
     23 N           1.6945   -1.6174   -0.2684 N.3     1  UNL1       -0.2981
     24 C           2.9057   -2.3346   -0.1219 C.3     1  UNL1       -0.0001
     25 C           3.7051   -1.7633    1.0225 C.3     1  UNL1       -0.0304
     26 C           4.1400   -0.3464    0.7427 C.3     1  UNL1        0.0212
     27 C           5.5646   -0.3391    0.2894 C.ar    1  UNL1        0.1344
     28 N           6.0311   -0.9523   -0.8173 N.ar    1  UNL1       -0.1339
     29 N           7.3027   -0.7530   -0.9243 N.ar    1  UNL1       -0.1278
     30 C           7.7272   -0.0030    0.1028 C.ar    1  UNL1        0.1800
     31 C           9.0810    0.4392    0.3448 C.ar    1  UNL1        0.1077
     32 C          10.0809    0.0906   -0.5230 C.ar    1  UNL1       -0.0326
     33 C          11.3912    0.4976   -0.3200 C.ar    1  UNL1       -0.0582
     34 C          11.6911    1.2706    0.7811 C.ar    1  UNL1       -0.0436
     35 C          10.6600    1.6091    1.6433 C.ar    1  UNL1        0.0284
     36 N           9.3912    1.1904    1.4086 N.ar    1  UNL1       -0.2519
     37 N           6.6182    0.2486    0.8578 N.ar    1  UNL1       -0.3237
     38 C           3.2216    0.3470   -0.2238 C.3     1  UNL1       -0.0304
     39 C           1.8460   -0.2391   -0.2719 C.3     1  UNL1       -0.0001
     40 C          -1.4888   -1.6025   -0.8853 C.ar    1  UNL1       -0.0567
     41 C          -2.6535   -0.8637   -0.9653 C.ar    1  UNL1       -0.0522
     42 C          -5.9554   -2.0008   -1.3805 C.ar    1  UNL1       -0.0540
     43 C          -5.9782   -3.3808   -1.3980 C.ar    1  UNL1       -0.0612
     44 H          -5.5717   -5.2293   -0.3541 H       1  UNL1        0.0618
     45 H          -4.7452   -4.0453    1.6311 H       1  UNL1        0.0618
     46 H          -4.6787   -1.6289    1.7271 H       1  UNL1        0.0624
     47 H          -7.5386    0.3581   -0.3670 H       1  UNL1        0.0632
     48 H          -4.3863    4.7431    0.1239 H       1  UNL1        0.0654
     49 H          -6.4753    6.0649   -0.0005 H       1  UNL1        0.0814
     50 H          -9.2308    5.8251   -0.2579 H       1  UNL1        0.1051
     51 H          -2.5004    0.8333    1.9268 H       1  UNL1        0.0624
     52 H          -0.4169   -0.4795    2.0911 H       1  UNL1        0.0621
     53 H           0.3849   -3.2124   -0.1712 H       1  UNL1        0.0476
     54 H           0.8222   -2.4541    1.3905 H       1  UNL1        0.0476
     55 H           2.7735   -3.4150    0.0947 H       1  UNL1        0.0427
     56 H           3.4898   -2.2236   -1.0674 H       1  UNL1        0.0427
     57 H           3.0995   -1.8545    1.9452 H       1  UNL1        0.0284
     58 H           4.5969   -2.4070    1.1537 H       1  UNL1        0.0284
     59 H           4.1111    0.2046    1.6938 H       1  UNL1        0.0380
     60 H           9.8376   -0.5129   -1.3797 H       1  UNL1        0.0640
     61 H          12.1759    0.2270   -0.9964 H       1  UNL1        0.0619
     62 H          12.7008    1.6076    0.9735 H       1  UNL1        0.0633
     63 H          10.8930    2.2160    2.5081 H       1  UNL1        0.0830
     64 H           6.6173    0.8090    1.7293 H       1  UNL1        0.1686
     65 H           3.6645    0.2461   -1.2374 H       1  UNL1        0.0284
     66 H           3.1257    1.4357   -0.0367 H       1  UNL1        0.0284
     67 H           1.3502    0.1622   -1.2114 H       1  UNL1        0.0427
     68 H           1.2347    0.2595    0.5418 H       1  UNL1        0.0427
     69 H          -1.2280   -2.2893   -1.7051 H       1  UNL1        0.0621
     70 H          -3.2662   -1.0105   -1.8671 H       1  UNL1        0.0624
     71 H          -6.3110   -1.4589   -2.2640 H       1  UNL1        0.0624
     72 H          -6.3518   -3.8890   -2.2954 H       1  UNL1        0.0618
@<TRIPOS>BOND
     1     1     2   ar
     2     2     3   ar
     3     3     4   ar
     4     4     5    1
     5     5     6   ar
     6     6     7   ar
     7     7     8   ar
     8     8     9   ar
     9     9    10   ar
    10    10    11   ar
    11    11    12   ar
    12    12    13   ar
    13    13    14   ar
    14    14    15   ar
    15     8    16   ar
    16    16    17   ar
    17    17    18    1
    18    18    19   ar
    19    19    20   ar
    20    20    21   ar
    21    21    22    1
    22    22    23    1
    23    23    24    1
    24    24    25    1
    25    25    26    1
    26    26    27    1
    27    27    28   ar
    28    28    29   ar
    29    29    30   ar
    30    30    31    1
    31    31    32   ar
    32    32    33   ar
    33    33    34   ar
    34    34    35   ar
    35    35    36   ar
    36    30    37   ar
    37    26    38    1
    38    38    39    1
    39    21    40   ar
    40    40    41   ar
    41     4    42   ar
    42    42    43   ar
    43    43     1   ar
    44    17     5   ar
    45    41    18   ar
    46    15     7   ar
    47    39    23    1
    48    15    11   ar
    49    37    27   ar
    50    36    31   ar
    51     1    44    1
    52     2    45    1
    53     3    46    1
    54     6    47    1
    55     9    48    1
    56    10    49    1
    57    12    50    1
    58    19    51    1
    59    20    52    1
    60    22    53    1
    61    22    54    1
    62    24    55    1
    63    24    56    1
    64    25    57    1
    65    25    58    1
    66    26    59    1
    67    32    60    1
    68    33    61    1
    69    34    62    1
    70    35    63    1
    71    37    64    1
    72    38    65    1
    73    38    66    1
    74    39    67    1
    75    39    68    1
    76    40    69    1
    77    41    70    1
    78    42    71    1
    79    43    72    1
