
     RDKit          3D

 32 33  0  0  0  0  0  0  0  0999 V2000
   -0.3303   -2.2285    0.5185 C   0  0  0  0  0  0  0  0  0  0  0  0
   -0.1877   -0.9641   -0.2968 C   0  0  0  0  0  0  0  0  0  0  0  0
   -0.2067   -1.3413   -1.7798 C   0  0  0  0  0  0  0  0  0  0  0  0
   -1.3858   -0.1357   -0.0756 C   0  0  0  0  0  0  0  0  0  0  0  0
   -2.4067   -0.6230    0.7030 C   0  0  0  0  0  0  0  0  0  0  0  0
   -3.5227    0.1522    0.9113 C   0  0  0  0  0  0  0  0  0  0  0  0
   -3.6586    1.4192    0.3604 C   0  0  0  0  0  0  0  0  0  0  0  0
   -2.6289    1.9003   -0.4199 C   0  0  0  0  0  0  0  0  0  0  0  0
   -1.5064    1.1190   -0.6287 C   0  0  0  0  0  0  0  0  0  0  0  0
    1.0905   -0.2719    0.0318 C   0  0  0  0  0  0  0  0  0  0  0  0
    1.7006    0.4612   -0.9562 C   0  0  0  0  0  0  0  0  0  0  0  0
    2.8842    1.1124   -0.6675 C   0  0  0  0  0  0  0  0  0  0  0  0
    3.4613    1.0429    0.5792 C   0  0  0  0  0  0  0  0  0  0  0  0
    4.6669    1.7126    0.8551 O   0  0  0  0  0  0  0  0  0  0  0  0
    2.8424    0.3043    1.5663 C   0  0  0  0  0  0  0  0  0  0  0  0
    1.6427   -0.3611    1.2900 C   0  0  0  0  0  0  0  0  0  0  0  0
   -0.4630   -1.9837    1.5917 H   0  0  0  0  0  0  0  0  0  0  0  0
    0.5710   -2.8687    0.4119 H   0  0  0  0  0  0  0  0  0  0  0  0
   -1.1702   -2.8185    0.0935 H   0  0  0  0  0  0  0  0  0  0  0  0
    0.7808   -1.7317   -2.0287 H   0  0  0  0  0  0  0  0  0  0  0  0
   -0.9925   -2.1196   -1.8695 H   0  0  0  0  0  0  0  0  0  0  0  0
   -0.5370   -0.4660   -2.3511 H   0  0  0  0  0  0  0  0  0  0  0  0
   -2.3980   -1.6015    1.1768 H   0  0  0  0  0  0  0  0  0  0  0  0
   -4.3115   -0.2352    1.5186 H   0  0  0  0  0  0  0  0  0  0  0  0
   -4.5467    1.9701    0.5586 H   0  0  0  0  0  0  0  0  0  0  0  0
   -2.7547    2.8844   -0.8373 H   0  0  0  0  0  0  0  0  0  0  0  0
   -0.7418    1.5610   -1.2496 H   0  0  0  0  0  0  0  0  0  0  0  0
    1.2946    0.5551   -1.9721 H   0  0  0  0  0  0  0  0  0  0  0  0
    3.4050    1.7096   -1.4304 H   0  0  0  0  0  0  0  0  0  0  0  0
    4.9340    2.5287    0.2988 H   0  0  0  0  0  0  0  0  0  0  0  0
    3.2882    0.2490    2.5342 H   0  0  0  0  0  0  0  0  0  0  0  0
    1.1869   -0.9316    2.0946 H   0  0  0  0  0  0  0  0  0  0  0  0
  1  2  1  0
  2  3  1  0
  2  4  1  0
  4  5  2  0
  5  6  1  0
  6  7  2  0
  7  8  1  0
  8  9  2  0
  2 10  1  0
 10 11  2  0
 11 12  1  0
 12 13  2  0
 13 14  1  0
 13 15  1  0
 15 16  2  0
  9  4  1  0
 16 10  1  0
  1 17  1  0
  1 18  1  0
  1 19  1  0
  3 20  1  0
  3 21  1  0
  3 22  1  0
  5 23  1  0
  6 24  1  0
  7 25  1  0
  8 26  1  0
  9 27  1  0
 11 28  1  0
 12 29  1  0
 14 30  1  0
 15 31  1  0
 16 32  1  0
M  END
$$$$
