@<TRIPOS>MOLECULE
*****
 32 33 0 0 0
SMALL
GASTEIGER

@<TRIPOS>ATOM
      1 C          -0.3303   -2.2285    0.5185 C.3     1  UNL1       -0.0517
      2 C          -0.1877   -0.9641   -0.2968 C.3     1  UNL1        0.0151
      3 C          -0.2067   -1.3413   -1.7798 C.3     1  UNL1       -0.0517
      4 C          -1.3858   -0.1357   -0.0756 C.ar    1  UNL1       -0.0374
      5 C          -2.4067   -0.6230    0.7030 C.ar    1  UNL1       -0.0577
      6 C          -3.5227    0.1522    0.9113 C.ar    1  UNL1       -0.0615
      7 C          -3.6586    1.4192    0.3604 C.ar    1  UNL1       -0.0617
      8 C          -2.6289    1.9003   -0.4199 C.ar    1  UNL1       -0.0615
      9 C          -1.5064    1.1190   -0.6287 C.ar    1  UNL1       -0.0577
     10 C           1.0905   -0.2719    0.0318 C.ar    1  UNL1       -0.0372
     11 C           1.7006    0.4612   -0.9562 C.ar    1  UNL1       -0.0543
     12 C           2.8842    1.1124   -0.6675 C.ar    1  UNL1       -0.0199
     13 C           3.4613    1.0429    0.5792 C.ar    1  UNL1        0.1169
     14 O           4.6669    1.7126    0.8551 O.3     1  UNL1       -0.5068
     15 C           2.8424    0.3043    1.5663 C.ar    1  UNL1       -0.0199
     16 C           1.6427   -0.3611    1.2900 C.ar    1  UNL1       -0.0543
     17 H          -0.4630   -1.9837    1.5917 H       1  UNL1        0.0241
     18 H           0.5710   -2.8687    0.4119 H       1  UNL1        0.0241
     19 H          -1.1702   -2.8185    0.0935 H       1  UNL1        0.0241
     20 H           0.7808   -1.7317   -2.0287 H       1  UNL1        0.0241
     21 H          -0.9925   -2.1196   -1.8695 H       1  UNL1        0.0241
     22 H          -0.5370   -0.4660   -2.3511 H       1  UNL1        0.0241
     23 H          -2.3980   -1.6015    1.1768 H       1  UNL1        0.0621
     24 H          -4.3115   -0.2352    1.5186 H       1  UNL1        0.0618
     25 H          -4.5467    1.9701    0.5586 H       1  UNL1        0.0618
     26 H          -2.7547    2.8844   -0.8373 H       1  UNL1        0.0618
     27 H          -0.7418    1.5610   -1.2496 H       1  UNL1        0.0621
     28 H           1.2946    0.5551   -1.9721 H       1  UNL1        0.0622
     29 H           3.4050    1.7096   -1.4304 H       1  UNL1        0.0654
     30 H           4.9340    2.5287    0.2988 H       1  UNL1        0.2921
     31 H           3.2882    0.2490    2.5342 H       1  UNL1        0.0654
     32 H           1.1869   -0.9316    2.0946 H       1  UNL1        0.0622
@<TRIPOS>BOND
     1     1     2    1
     2     2     3    1
     3     2     4    1
     4     4     5   ar
     5     5     6   ar
     6     6     7   ar
     7     7     8   ar
     8     8     9   ar
     9     2    10    1
    10    10    11   ar
    11    11    12   ar
    12    12    13   ar
    13    13    14    1
    14    13    15   ar
    15    15    16   ar
    16     9     4   ar
    17    16    10   ar
    18     1    17    1
    19     1    18    1
    20     1    19    1
    21     3    20    1
    22     3    21    1
    23     3    22    1
    24     5    23    1
    25     6    24    1
    26     7    25    1
    27     8    26    1
    28     9    27    1
    29    11    28    1
    30    12    29    1
    31    14    30    1
    32    15    31    1
    33    16    32    1
