@<TRIPOS>MOLECULE
*****
 30 32 0 0 0
SMALL
GASTEIGER

@<TRIPOS>ATOM
      1 O           0.8979   -0.7901   -0.9427 O.2     1  UNL1       -0.2696
      2 C           1.4429   -0.0646   -0.0182 C.2     1  UNL1        0.2554
      3 N           0.6082    0.6517    0.8511 N.am    1  UNL1       -0.2605
      4 C          -0.8446    0.5281    0.6507 C.ar    1  UNL1        0.1657
      5 N          -1.7502    0.9740    0.1048 N.ar    1  UNL1       -0.2246
      6 C          -3.0245    0.6300    0.1187 C.ar    1  UNL1        0.0805
      7 C          -4.1150    1.1901   -0.5572 C.ar    1  UNL1       -0.0317
      8 C          -5.3749    0.6671   -0.3964 C.ar    1  UNL1       -0.0181
      9 C          -5.6637   -0.4067    0.4083 C.ar    1  UNL1        0.1180
     10 O          -6.9414   -0.8810    0.5263 O.3     1  UNL1       -0.5067
     11 C          -4.5867   -0.9785    1.0908 C.ar    1  UNL1       -0.0043
     12 C          -3.3202   -0.4498    0.9268 C.ar    1  UNL1        0.0442
     13 S          -1.7128   -0.8775    1.6028 S.2     1  UNL1       -0.0519
     14 C           2.8805   -0.0450    0.0517 C.ar    1  UNL1        0.1108
     15 C           3.6185    0.6613    0.9583 C.ar    1  UNL1        0.1385
     16 F           2.9821    1.4229    1.8904 F       1  UNL1       -0.2046
     17 C           5.0321    0.6430    0.9801 C.ar    1  UNL1       -0.0221
     18 C           5.6964   -0.1186    0.0488 C.ar    1  UNL1       -0.0146
     19 C           4.9940   -0.8437   -0.8801 C.ar    1  UNL1        0.1528
     20 O           5.6811   -1.6016   -1.8061 O.3     1  UNL1       -0.5039
     21 C           3.6235   -0.8051   -0.8753 C.ar    1  UNL1        0.1794
     22 F           2.9053   -1.5133   -1.7835 F       1  UNL1       -0.2008
     23 H           0.9627    1.2427    1.6014 H       1  UNL1        0.1571
     24 H          -4.0129    2.0462   -1.2252 H       1  UNL1        0.0640
     25 H          -6.2105    1.1411   -0.9504 H       1  UNL1        0.0655
     26 H          -7.4632   -0.6002    1.3707 H       1  UNL1        0.2921
     27 H          -4.7229   -1.8230    1.7424 H       1  UNL1        0.0666
     28 H           5.5389    1.2373    1.7393 H       1  UNL1        0.0647
     29 H           6.7767   -0.1298    0.0689 H       1  UNL1        0.0656
     30 H           6.1026   -1.1073   -2.5978 H       1  UNL1        0.2923
@<TRIPOS>BOND
     1     1     2    2
     2     2     3   am
     3     3     4    1
     4     4     5   ar
     5     5     6   ar
     6     6     7   ar
     7     7     8   ar
     8     8     9   ar
     9     9    10    1
    10     9    11   ar
    11    11    12   ar
    12    12    13   ar
    13     2    14    1
    14    14    15   ar
    15    15    16    1
    16    15    17   ar
    17    17    18   ar
    18    18    19   ar
    19    19    20    1
    20    19    21   ar
    21    21    22    1
    22    13     4   ar
    23    21    14   ar
    24    12     6   ar
    25     3    23    1
    26     7    24    1
    27     8    25    1
    28    10    26    1
    29    11    27    1
    30    17    28    1
    31    18    29    1
    32    20    30    1
