
     RDKit          3D

 55 59  0  0  0  0  0  0  0  0999 V2000
   -4.1312   -4.4388   -0.9050 C   0  0  0  0  0  0  0  0  0  0  0  0
   -2.9866   -3.5717   -0.6019 N   0  0  0  0  0  0  0  0  0  0  0  0
   -3.0427   -2.4348    0.0876 C   0  0  0  0  0  0  0  0  0  0  0  0
   -1.7069   -1.9514    0.1371 C   0  0  0  0  0  0  0  0  0  0  0  0
   -1.3960   -0.6937    0.7673 C   0  0  0  0  0  0  0  0  0  0  0  0
   -2.2296    0.3552    0.5446 C   0  0  0  0  0  0  0  0  0  0  0  0
   -3.3521    0.2918   -0.2471 O   0  0  0  0  0  0  0  0  0  0  0  0
   -3.9925    1.5271   -0.2719 C   0  0  0  0  0  0  0  0  0  0  0  0
   -5.1325    1.9356   -0.9167 C   0  0  0  0  0  0  0  0  0  0  0  0
   -5.5803    3.2205   -0.7919 C   0  0  0  0  0  0  0  0  0  0  0  0
   -4.9162    4.1686   -0.0174 C   0  0  0  0  0  0  0  0  0  0  0  0
   -3.7664    3.7372    0.6262 C   0  0  0  0  0  0  0  0  0  0  0  0
   -3.0672    4.6464    1.4119 O   0  0  0  0  0  0  0  0  0  0  0  0
   -3.3113    2.4498    0.5052 C   0  0  0  0  0  0  0  0  0  0  0  0
   -2.1538    1.7062    1.0495 C   0  0  0  0  0  0  0  0  0  0  0  0
   -1.2728    2.1675    1.8085 O   0  0  0  0  0  0  0  0  0  0  0  0
   -0.8982   -2.8129   -0.5201 C   0  0  0  0  0  0  0  0  0  0  0  0
    0.4258   -2.8841   -0.8178 C   0  0  0  0  0  0  0  0  0  0  0  0
    1.4013   -1.9416   -0.3265 C   0  0  0  0  0  0  0  0  0  0  0  0
    1.6809   -1.7415    1.0077 C   0  0  0  0  0  0  0  0  0  0  0  0
    2.6383   -0.8588    1.4560 C   0  0  0  0  0  0  0  0  0  0  0  0
    3.3897   -0.1071    0.5637 C   0  0  0  0  0  0  0  0  0  0  0  0
    4.3931    0.8322    1.0790 C   0  0  0  0  0  0  0  0  0  0  0  0
    4.4217    1.0875    2.3348 O   0  0  0  0  0  0  0  0  0  0  0  0
    5.3309    1.4696    0.2632 N   0  0  0  0  0  0  0  0  0  0  0  0
    6.3058    2.4014    0.7655 C   0  0  0  0  0  0  0  0  0  0  0  0
    5.5974    3.5943    1.3475 C   0  0  0  0  0  0  0  0  0  0  0  0
    4.8498    4.1680    0.3128 O   0  0  0  0  0  0  0  0  0  0  0  0
    3.1284   -0.2892   -0.7701 C   0  0  0  0  0  0  0  0  0  0  0  0
    2.1655   -1.1761   -1.2180 C   0  0  0  0  0  0  0  0  0  0  0  0
    0.8792   -3.9719   -1.5751 C   0  0  0  0  0  0  0  0  0  0  0  0
    0.0574   -4.9567   -2.0212 C   0  0  0  0  0  0  0  0  0  0  0  0
   -1.2381   -4.8602   -1.7094 N   0  0  0  0  0  0  0  0  0  0  0  0
   -1.7357   -3.8400   -0.9863 C   0  0  0  0  0  0  0  0  0  0  0  0
   -3.9324   -5.3921   -0.3591 H   0  0  0  0  0  0  0  0  0  0  0  0
   -5.0814   -3.9681   -0.5754 H   0  0  0  0  0  0  0  0  0  0  0  0
   -4.1332   -4.5680   -2.0042 H   0  0  0  0  0  0  0  0  0  0  0  0
   -3.8982   -1.9496    0.5316 H   0  0  0  0  0  0  0  0  0  0  0  0
   -0.5824   -0.5427    1.4094 H   0  0  0  0  0  0  0  0  0  0  0  0
   -5.6579    1.1932   -1.5273 H   0  0  0  0  0  0  0  0  0  0  0  0
   -6.4695    3.5448   -1.2920 H   0  0  0  0  0  0  0  0  0  0  0  0
   -5.2976    5.1773    0.0598 H   0  0  0  0  0  0  0  0  0  0  0  0
   -3.5459    5.4086    1.8782 H   0  0  0  0  0  0  0  0  0  0  0  0
    1.0913   -2.3300    1.7127 H   0  0  0  0  0  0  0  0  0  0  0  0
    2.8383   -0.7202    2.5204 H   0  0  0  0  0  0  0  0  0  0  0  0
    5.3447    1.2709   -0.7656 H   0  0  0  0  0  0  0  0  0  0  0  0
    6.9425    1.9481    1.5573 H   0  0  0  0  0  0  0  0  0  0  0  0
    7.0274    2.7081   -0.0324 H   0  0  0  0  0  0  0  0  0  0  0  0
    4.8761    3.2636    2.1020 H   0  0  0  0  0  0  0  0  0  0  0  0
    6.3162    4.3343    1.7786 H   0  0  0  0  0  0  0  0  0  0  0  0
    5.4100    4.2296   -0.5247 H   0  0  0  0  0  0  0  0  0  0  0  0
    3.7133    0.2969   -1.4854 H   0  0  0  0  0  0  0  0  0  0  0  0
    1.9752   -1.3045   -2.2716 H   0  0  0  0  0  0  0  0  0  0  0  0
    1.9276   -4.0202   -1.8100 H   0  0  0  0  0  0  0  0  0  0  0  0
    0.3811   -5.8087   -2.6086 H   0  0  0  0  0  0  0  0  0  0  0  0
  1  2  1  0
  2  3  1  0
  3  4  2  0
  4  5  1  0
  5  6  2  0
  6  7  1  0
  7  8  1  0
  8  9  2  0
  9 10  1  0
 10 11  2  0
 11 12  1  0
 12 13  1  0
 12 14  2  0
 14 15  1  0
 15 16  2  0
  4 17  1  0
 17 18  2  0
 18 19  1  0
 19 20  2  0
 20 21  1  0
 21 22  2  0
 22 23  1  0
 23 24  2  0
 23 25  1  0
 25 26  1  0
 26 27  1  0
 27 28  1  0
 22 29  1  0
 29 30  2  0
 18 31  1  0
 31 32  2  0
 32 33  1  0
 33 34  2  0
 34  2  1  0
 15  6  1  0
 34 17  1  0
 14  8  1  0
 30 19  1  0
  1 35  1  0
  1 36  1  0
  1 37  1  0
  3 38  1  0
  5 39  1  0
  9 40  1  0
 10 41  1  0
 11 42  1  0
 13 43  1  0
 20 44  1  0
 21 45  1  0
 25 46  1  0
 26 47  1  0
 26 48  1  0
 27 49  1  0
 27 50  1  0
 28 51  1  0
 29 52  1  0
 30 53  1  0
 31 54  1  0
 32 55  1  0
M  END
$$$$
