@<TRIPOS>MOLECULE
*****
 55 59 0 0 0
SMALL
GASTEIGER

@<TRIPOS>ATOM
      1 C          -4.1312   -4.4388   -0.9050 C.3     1  UNL1        0.0132
      2 N          -2.9866   -3.5717   -0.6019 N.ar    1  UNL1       -0.3343
      3 C          -3.0427   -2.4348    0.0876 C.ar    1  UNL1        0.0141
      4 C          -1.7069   -1.9514    0.1371 C.ar    1  UNL1        0.0059
      5 C          -1.3960   -0.6937    0.7673 C.2     1  UNL1       -0.0062
      6 C          -2.2296    0.3552    0.5446 C.2     1  UNL1        0.1763
      7 O          -3.3521    0.2918   -0.2471 O.3     1  UNL1       -0.4513
      8 C          -3.9925    1.5271   -0.2719 C.ar    1  UNL1        0.1430
      9 C          -5.1325    1.9356   -0.9167 C.ar    1  UNL1       -0.0184
     10 C          -5.5803    3.2205   -0.7919 C.ar    1  UNL1       -0.0548
     11 C          -4.9162    4.1686   -0.0174 C.ar    1  UNL1       -0.0192
     12 C          -3.7664    3.7372    0.6262 C.ar    1  UNL1        0.1313
     13 O          -3.0672    4.6464    1.4119 O.3     1  UNL1       -0.5059
     14 C          -3.3113    2.4498    0.5052 C.ar    1  UNL1        0.1088
     15 C          -2.1538    1.7062    1.0495 C.2     1  UNL1        0.2350
     16 O          -1.2728    2.1675    1.8085 O.2     1  UNL1       -0.2831
     17 C          -0.8982   -2.8129   -0.5201 C.ar    1  UNL1        0.0338
     18 C           0.4258   -2.8841   -0.8178 C.ar    1  UNL1       -0.0052
     19 C           1.4013   -1.9416   -0.3265 C.ar    1  UNL1       -0.0171
     20 C           1.6809   -1.7415    1.0077 C.ar    1  UNL1       -0.0533
     21 C           2.6383   -0.8588    1.4560 C.ar    1  UNL1       -0.0491
     22 C           3.3897   -0.1071    0.5637 C.ar    1  UNL1        0.0367
     23 C           4.3931    0.8322    1.0790 C.2     1  UNL1        0.2441
     24 O           4.4217    1.0875    2.3348 O.2     1  UNL1       -0.2702
     25 N           5.3309    1.4696    0.2632 N.am    1  UNL1       -0.3092
     26 C           6.3058    2.4014    0.7655 C.3     1  UNL1        0.0351
     27 C           5.5974    3.5943    1.3475 C.3     1  UNL1        0.0597
     28 O           4.8498    4.1680    0.3128 O.3     1  UNL1       -0.3935
     29 C           3.1284   -0.2892   -0.7701 C.ar    1  UNL1       -0.0491
     30 C           2.1655   -1.1761   -1.2180 C.ar    1  UNL1       -0.0533
     31 C           0.8792   -3.9719   -1.5751 C.ar    1  UNL1       -0.0351
     32 C           0.0574   -4.9567   -2.0212 C.ar    1  UNL1        0.0305
     33 N          -1.2381   -4.8602   -1.7094 N.ar    1  UNL1       -0.2372
     34 C          -1.7357   -3.8400   -0.9863 C.ar    1  UNL1        0.1416
     35 H          -3.9324   -5.3921   -0.3591 H       1  UNL1        0.0456
     36 H          -5.0814   -3.9681   -0.5754 H       1  UNL1        0.0456
     37 H          -4.1332   -4.5680   -2.0042 H       1  UNL1        0.0456
     38 H          -3.8982   -1.9496    0.5316 H       1  UNL1        0.0815
     39 H          -0.5824   -0.5427    1.4094 H       1  UNL1        0.0662
     40 H          -5.6579    1.1932   -1.5273 H       1  UNL1        0.0654
     41 H          -6.4695    3.5448   -1.2920 H       1  UNL1        0.0620
     42 H          -5.2976    5.1773    0.0598 H       1  UNL1        0.0654
     43 H          -3.5459    5.4086    1.8782 H       1  UNL1        0.2922
     44 H           1.0913   -2.3300    1.7127 H       1  UNL1        0.0624
     45 H           2.8383   -0.7202    2.5204 H       1  UNL1        0.0625
     46 H           5.3447    1.2709   -0.7656 H       1  UNL1        0.1491
     47 H           6.9425    1.9481    1.5573 H       1  UNL1        0.0485
     48 H           7.0274    2.7081   -0.0324 H       1  UNL1        0.0485
     49 H           4.8761    3.2636    2.1020 H       1  UNL1        0.0573
     50 H           6.3162    4.3343    1.7786 H       1  UNL1        0.0573
     51 H           5.4100    4.2296   -0.5247 H       1  UNL1        0.2095
     52 H           3.7133    0.2969   -1.4854 H       1  UNL1        0.0625
     53 H           1.9752   -1.3045   -2.2716 H       1  UNL1        0.0624
     54 H           1.9276   -4.0202   -1.8100 H       1  UNL1        0.0639
     55 H           0.3811   -5.8087   -2.6086 H       1  UNL1        0.0830
@<TRIPOS>BOND
     1     1     2    1
     2     2     3   ar
     3     3     4   ar
     4     4     5    1
     5     5     6    2
     6     6     7    1
     7     7     8    1
     8     8     9   ar
     9     9    10   ar
    10    10    11   ar
    11    11    12   ar
    12    12    13    1
    13    12    14   ar
    14    14    15    1
    15    15    16    2
    16     4    17   ar
    17    17    18   ar
    18    18    19    1
    19    19    20   ar
    20    20    21   ar
    21    21    22   ar
    22    22    23    1
    23    23    24    2
    24    23    25   am
    25    25    26    1
    26    26    27    1
    27    27    28    1
    28    22    29   ar
    29    29    30   ar
    30    18    31   ar
    31    31    32   ar
    32    32    33   ar
    33    33    34   ar
    34    34     2   ar
    35    15     6    1
    36    34    17   ar
    37    14     8   ar
    38    30    19   ar
    39     1    35    1
    40     1    36    1
    41     1    37    1
    42     3    38    1
    43     5    39    1
    44     9    40    1
    45    10    41    1
    46    11    42    1
    47    13    43    1
    48    20    44    1
    49    21    45    1
    50    25    46    1
    51    26    47    1
    52    26    48    1
    53    27    49    1
    54    27    50    1
    55    28    51    1
    56    29    52    1
    57    30    53    1
    58    31    54    1
    59    32    55    1
