
     RDKit          3D

 43 46  0  0  0  0  0  0  0  0999 V2000
    4.6243   -0.8201    1.5928 O   0  0  0  0  0  0  0  0  0  0  0  0
    4.9138   -0.8284    0.2315 C   0  0  0  0  0  0  0  0  0  0  0  0
    4.1507    0.2647   -0.4899 C   0  0  0  0  0  0  0  0  0  0  0  0
    2.7250    0.1316   -0.3636 N   0  0  0  0  0  0  0  0  0  0  0  0
    2.0350   -1.0036   -0.8644 C   0  0  0  0  0  0  0  0  0  0  0  0
    2.6925   -1.9965   -1.4911 N   0  0  0  0  0  0  0  0  0  0  0  0
    2.1251   -3.0928   -1.9995 C   0  0  0  0  0  0  0  0  0  0  0  0
    0.7731   -3.2224   -1.8772 N   0  0  0  0  0  0  0  0  0  0  0  0
    0.0226   -2.2950   -1.2724 C   0  0  0  0  0  0  0  0  0  0  0  0
    0.6715   -1.1866   -0.7689 C   0  0  0  0  0  0  0  0  0  0  0  0
   -0.2259   -0.3223   -0.1772 C   0  0  0  0  0  0  0  0  0  0  0  0
   -1.4751   -0.9306   -0.3274 C   0  0  0  0  0  0  0  0  0  0  0  0
   -1.2815   -2.1052   -0.9859 N   0  0  0  0  0  0  0  0  0  0  0  0
   -2.8182   -0.5099    0.0876 C   0  0  0  0  0  0  0  0  0  0  0  0
   -3.3916    0.6373   -0.4213 C   0  0  0  0  0  0  0  0  0  0  0  0
   -4.6561    0.9982   -0.0040 C   0  0  0  0  0  0  0  0  0  0  0  0
   -5.4021    0.2734    0.9076 C   0  0  0  0  0  0  0  0  0  0  0  0
   -4.7687   -0.8653    1.3782 C   0  0  0  0  0  0  0  0  0  0  0  0
   -3.5174   -1.2752    1.0029 C   0  0  0  0  0  0  0  0  0  0  0  0
   -0.1681    0.9444    0.4960 C   0  0  0  0  0  0  0  0  0  0  0  0
   -0.3132    2.1712   -0.1653 C   0  0  0  0  0  0  0  0  0  0  0  0
   -0.2796    3.4084    0.4185 C   0  0  0  0  0  0  0  0  0  0  0  0
   -0.0870    3.4404    1.7658 C   0  0  0  0  0  0  0  0  0  0  0  0
    0.0637    2.3017    2.4907 C   0  0  0  0  0  0  0  0  0  0  0  0
    0.0265    1.0478    1.8772 C   0  0  0  0  0  0  0  0  0  0  0  0
    4.2834   -1.6953    1.9053 H   0  0  0  0  0  0  0  0  0  0  0  0
    6.0083   -0.6721    0.1554 H   0  0  0  0  0  0  0  0  0  0  0  0
    4.6841   -1.7799   -0.2504 H   0  0  0  0  0  0  0  0  0  0  0  0
    4.5443    1.2239   -0.1405 H   0  0  0  0  0  0  0  0  0  0  0  0
    4.3622    0.2378   -1.5932 H   0  0  0  0  0  0  0  0  0  0  0  0
    2.2670    0.9223    0.1120 H   0  0  0  0  0  0  0  0  0  0  0  0
    2.6775   -3.8797   -2.5007 H   0  0  0  0  0  0  0  0  0  0  0  0
   -1.9591   -2.8465   -1.2879 H   0  0  0  0  0  0  0  0  0  0  0  0
   -2.8887    1.2624   -1.1336 H   0  0  0  0  0  0  0  0  0  0  0  0
   -5.1153    1.9140   -0.4095 H   0  0  0  0  0  0  0  0  0  0  0  0
   -6.3907    0.5875    1.2109 H   0  0  0  0  0  0  0  0  0  0  0  0
   -5.2867   -1.4837    2.0924 H   0  0  0  0  0  0  0  0  0  0  0  0
   -3.0651   -2.1847    1.4075 H   0  0  0  0  0  0  0  0  0  0  0  0
   -0.4624    2.0480   -1.2367 H   0  0  0  0  0  0  0  0  0  0  0  0
   -0.4028    4.2927   -0.1873 H   0  0  0  0  0  0  0  0  0  0  0  0
   -0.0556    4.4174    2.2606 H   0  0  0  0  0  0  0  0  0  0  0  0
    0.2178    2.3495    3.5748 H   0  0  0  0  0  0  0  0  0  0  0  0
    0.1424    0.1208    2.4215 H   0  0  0  0  0  0  0  0  0  0  0  0
  1  2  1  0
  2  3  1  0
  3  4  1  0
  4  5  1  0
  5  6  2  0
  6  7  1  0
  7  8  2  0
  8  9  1  0
  9 10  2  0
 10 11  1  0
 11 12  2  0
 12 13  1  0
 12 14  1  0
 14 15  2  0
 15 16  1  0
 16 17  2  0
 17 18  1  0
 18 19  2  0
 11 20  1  0
 20 21  2  0
 21 22  1  0
 22 23  2  0
 23 24  1  0
 24 25  2  0
 10  5  1  0
 19 14  1  0
 25 20  1  0
 13  9  1  0
  1 26  1  0
  2 27  1  0
  2 28  1  0
  3 29  1  0
  3 30  1  0
  4 31  1  0
  7 32  1  0
 13 33  1  0
 15 34  1  0
 16 35  1  0
 17 36  1  0
 18 37  1  0
 19 38  1  0
 21 39  1  0
 22 40  1  0
 23 41  1  0
 24 42  1  0
 25 43  1  0
M  END
$$$$
