@<TRIPOS>MOLECULE
*****
 43 46 0 0 0
SMALL
GASTEIGER

@<TRIPOS>ATOM
      1 O           4.6243   -0.8201    1.5928 O.3     1  UNL1       -0.3935
      2 C           4.9138   -0.8284    0.2315 C.3     1  UNL1        0.0597
      3 C           4.1507    0.2647   -0.4899 C.3     1  UNL1        0.0336
      4 N           2.7250    0.1316   -0.3636 N.pl3   1  UNL1       -0.3263
      5 C           2.0350   -1.0036   -0.8644 C.ar    1  UNL1        0.1319
      6 N           2.6925   -1.9965   -1.4911 N.ar    1  UNL1       -0.2202
      7 C           2.1251   -3.0928   -1.9995 C.ar    1  UNL1        0.1204
      8 N           0.7731   -3.2224   -1.8772 N.ar    1  UNL1       -0.2178
      9 C           0.0226   -2.2950   -1.2724 C.ar    1  UNL1        0.1442
     10 C           0.6715   -1.1866   -0.7689 C.ar    1  UNL1        0.0666
     11 C          -0.2259   -0.3223   -0.1772 C.ar    1  UNL1        0.0200
     12 C          -1.4751   -0.9306   -0.3274 C.ar    1  UNL1        0.0565
     13 N          -1.2815   -2.1052   -0.9859 N.ar    1  UNL1       -0.3384
     14 C          -2.8182   -0.5099    0.0876 C.ar    1  UNL1       -0.0010
     15 C          -3.3916    0.6373   -0.4213 C.ar    1  UNL1       -0.0526
     16 C          -4.6561    0.9982   -0.0040 C.ar    1  UNL1       -0.0611
     17 C          -5.4021    0.2734    0.9076 C.ar    1  UNL1       -0.0617
     18 C          -4.7687   -0.8653    1.3782 C.ar    1  UNL1       -0.0611
     19 C          -3.5174   -1.2752    1.0029 C.ar    1  UNL1       -0.0526
     20 C          -0.1681    0.9444    0.4960 C.ar    1  UNL1       -0.0151
     21 C          -0.3132    2.1712   -0.1653 C.ar    1  UNL1       -0.0539
     22 C          -0.2796    3.4084    0.4185 C.ar    1  UNL1       -0.0612
     23 C          -0.0870    3.4404    1.7658 C.ar    1  UNL1       -0.0617
     24 C           0.0637    2.3017    2.4907 C.ar    1  UNL1       -0.0612
     25 C           0.0265    1.0478    1.8772 C.ar    1  UNL1       -0.0539
     26 H           4.2834   -1.6953    1.9053 H       1  UNL1        0.2095
     27 H           6.0083   -0.6721    0.1554 H       1  UNL1        0.0573
     28 H           4.6841   -1.7799   -0.2504 H       1  UNL1        0.0573
     29 H           4.5443    1.2239   -0.1405 H       1  UNL1        0.0484
     30 H           4.3622    0.2378   -1.5932 H       1  UNL1        0.0484
     31 H           2.2670    0.9223    0.1120 H       1  UNL1        0.1476
     32 H           2.6775   -3.8797   -2.5007 H       1  UNL1        0.1048
     33 H          -1.9591   -2.8465   -1.2879 H       1  UNL1        0.1674
     34 H          -2.8887    1.2624   -1.1336 H       1  UNL1        0.0624
     35 H          -5.1153    1.9140   -0.4095 H       1  UNL1        0.0618
     36 H          -6.3907    0.5875    1.2109 H       1  UNL1        0.0618
     37 H          -5.2867   -1.4837    2.0924 H       1  UNL1        0.0618
     38 H          -3.0651   -2.1847    1.4075 H       1  UNL1        0.0624
     39 H          -0.4624    2.0480   -1.2367 H       1  UNL1        0.0624
     40 H          -0.4028    4.2927   -0.1873 H       1  UNL1        0.0618
     41 H          -0.0556    4.4174    2.2606 H       1  UNL1        0.0618
     42 H           0.2178    2.3495    3.5748 H       1  UNL1        0.0618
     43 H           0.1424    0.1208    2.4215 H       1  UNL1        0.0624
@<TRIPOS>BOND
     1     1     2    1
     2     2     3    1
     3     3     4    1
     4     4     5    1
     5     5     6   ar
     6     6     7   ar
     7     7     8   ar
     8     8     9   ar
     9     9    10   ar
    10    10    11   ar
    11    11    12   ar
    12    12    13   ar
    13    12    14    1
    14    14    15   ar
    15    15    16   ar
    16    16    17   ar
    17    17    18   ar
    18    18    19   ar
    19    11    20    1
    20    20    21   ar
    21    21    22   ar
    22    22    23   ar
    23    23    24   ar
    24    24    25   ar
    25    10     5   ar
    26    19    14   ar
    27    25    20   ar
    28    13     9   ar
    29     1    26    1
    30     2    27    1
    31     2    28    1
    32     3    29    1
    33     3    30    1
    34     4    31    1
    35     7    32    1
    36    13    33    1
    37    15    34    1
    38    16    35    1
    39    17    36    1
    40    18    37    1
    41    19    38    1
    42    21    39    1
    43    22    40    1
    44    23    41    1
    45    24    42    1
    46    25    43    1
