@<TRIPOS>MOLECULE
*****
 71 75 0 0 0
SMALL
GASTEIGER

@<TRIPOS>ATOM
      1 C          -0.9933   -6.6108   -1.7698 C.3     1  UNL1       -0.0455
      2 C          -0.4664   -5.8842   -0.5700 C.3     1  UNL1        0.0387
      3 N          -0.9038   -4.4818   -0.6899 N.ar    1  UNL1       -0.2705
      4 C          -0.2332   -3.4912   -1.2956 C.ar    1  UNL1        0.0338
      5 C          -0.9991   -2.3545   -1.1734 C.ar    1  UNL1        0.0282
      6 C          -0.6094   -1.0650   -1.7040 C.ar    1  UNL1       -0.0022
      7 C          -1.3811   -0.4692   -2.6643 C.ar    1  UNL1       -0.0351
      8 C          -0.9622    0.7652   -3.1367 C.ar    1  UNL1        0.0305
      9 N           0.1532    1.3426   -2.6665 N.ar    1  UNL1       -0.2374
     10 C           0.9213    0.7739   -1.7262 C.ar    1  UNL1        0.1391
     11 N           2.0685    1.1330   -1.0932 N.ar    1  UNL1       -0.3391
     12 C           2.4448    0.1928   -0.2110 C.ar    1  UNL1        0.0486
     13 C           3.6166    0.2122    0.6567 C.ar    1  UNL1       -0.0013
     14 C           3.9146   -0.8102    1.5293 C.ar    1  UNL1       -0.0526
     15 C           5.0229   -0.7792    2.3418 C.ar    1  UNL1       -0.0608
     16 C           5.8722    0.3096    2.2887 C.ar    1  UNL1       -0.0573
     17 C           5.6125    1.3558    1.4296 C.ar    1  UNL1       -0.0328
     18 C           6.5290    2.5350    1.3674 C.3     1  UNL1        0.0235
     19 N           7.5126    2.2865    0.3636 N.3     1  UNL1       -0.3042
     20 C           8.4088    3.4322    0.2736 C.3     1  UNL1       -0.0127
     21 C           8.2378    1.0825    0.6969 C.3     1  UNL1       -0.0127
     22 C           4.4868    1.2785    0.6334 C.ar    1  UNL1       -0.0482
     23 C           1.4955   -0.8012   -0.2902 C.ar    1  UNL1       -0.0265
     24 C           0.5271   -0.4641   -1.2328 C.ar    1  UNL1        0.0271
     25 C          -2.1503   -2.6718   -0.4812 C.ar    1  UNL1        0.1004
     26 C          -3.1927   -1.7150   -0.1661 C.ar    1  UNL1        0.0028
     27 C          -2.8817   -0.6580    0.6579 C.ar    1  UNL1       -0.0507
     28 C          -3.7983    0.3061    1.0160 C.ar    1  UNL1       -0.0398
     29 C          -5.0847    0.2302    0.5425 C.ar    1  UNL1        0.0348
     30 N          -6.0915    1.1762    0.8569 N.am    1  UNL1       -0.2693
     31 C          -6.3213    2.3427    0.0625 C.2     1  UNL1        0.3060
     32 O          -5.5716    2.4773   -0.9375 O.2     1  UNL1       -0.2523
     33 N          -7.3328    3.2894    0.3832 N.am    1  UNL1       -0.2915
     34 C          -8.1876    3.1221    1.5389 C.3     1  UNL1        0.0043
     35 C          -7.4744    4.4371   -0.5012 C.3     1  UNL1        0.0043
     36 C          -5.4169   -0.8224   -0.2855 C.ar    1  UNL1       -0.0398
     37 C          -4.4851   -1.7830   -0.6362 C.ar    1  UNL1       -0.0507
     38 N          -2.0289   -3.9824   -0.2168 N.ar    1  UNL1       -0.1706
     39 H          -0.3357   -7.4356   -2.1063 H       1  UNL1        0.0247
     40 H          -1.0627   -5.9098   -2.6365 H       1  UNL1        0.0247
     41 H          -2.0293   -6.9329   -1.5506 H       1  UNL1        0.0247
     42 H          -0.9494   -6.3117    0.3429 H       1  UNL1        0.0506
     43 H           0.6279   -5.8859   -0.4938 H       1  UNL1        0.0506
     44 H           0.7398   -3.6135   -1.7824 H       1  UNL1        0.0832
     45 H          -2.2702   -0.9741   -3.0108 H       1  UNL1        0.0639
     46 H          -1.5922    1.2130   -3.8961 H       1  UNL1        0.0830
     47 H           2.5546    2.0310   -1.3005 H       1  UNL1        0.1673
     48 H           3.2631   -1.6610    1.5801 H       1  UNL1        0.0624
     49 H           5.2583   -1.5958    3.0369 H       1  UNL1        0.0618
     50 H           6.7327    0.2931    2.9467 H       1  UNL1        0.0621
     51 H           7.0312    2.5972    2.3594 H       1  UNL1        0.0475
     52 H           5.9783    3.4827    1.2293 H       1  UNL1        0.0475
     53 H           8.4944    3.6531   -0.8257 H       1  UNL1        0.0391
     54 H           7.9028    4.2950    0.7232 H       1  UNL1        0.0391
     55 H           9.3944    3.2195    0.7232 H       1  UNL1        0.0391
     56 H           7.5833    0.2195    0.5278 H       1  UNL1        0.0391
     57 H           8.6208    1.1338    1.7452 H       1  UNL1        0.0391
     58 H           9.1053    0.9572    0.0118 H       1  UNL1        0.0391
     59 H           4.2782    2.1140   -0.0533 H       1  UNL1        0.0627
     60 H           1.4952   -1.7019    0.2837 H       1  UNL1        0.0645
     61 H          -1.8805   -0.5722    1.0449 H       1  UNL1        0.0625
     62 H          -3.5433    1.1302    1.6627 H       1  UNL1        0.0636
     63 H          -6.6956    1.0339    1.6919 H       1  UNL1        0.1564
     64 H          -8.5472    2.0582    1.5900 H       1  UNL1        0.0429
     65 H          -7.5984    3.2876    2.4594 H       1  UNL1        0.0429
     66 H          -9.0631    3.7852    1.4762 H       1  UNL1        0.0429
     67 H          -6.7051    4.4523   -1.2836 H       1  UNL1        0.0429
     68 H          -7.3412    5.3710    0.1169 H       1  UNL1        0.0429
     69 H          -8.4748    4.4982   -0.9543 H       1  UNL1        0.0429
     70 H          -6.4317   -0.8900   -0.6641 H       1  UNL1        0.0636
     71 H          -4.7978   -2.5781   -1.2818 H       1  UNL1        0.0625
@<TRIPOS>BOND
     1     1     2    1
     2     2     3    1
     3     3     4   ar
     4     4     5   ar
     5     5     6    1
     6     6     7   ar
     7     7     8   ar
     8     8     9   ar
     9     9    10   ar
    10    10    11   ar
    11    11    12   ar
    12    12    13    1
    13    13    14   ar
    14    14    15   ar
    15    15    16   ar
    16    16    17   ar
    17    17    18    1
    18    18    19    1
    19    19    20    1
    20    19    21    1
    21    17    22   ar
    22    12    23   ar
    23    23    24   ar
    24     5    25   ar
    25    25    26    1
    26    26    27   ar
    27    27    28   ar
    28    28    29   ar
    29    29    30    1
    30    30    31   am
    31    31    32    2
    32    31    33   am
    33    33    34    1
    34    33    35    1
    35    29    36   ar
    36    36    37   ar
    37    25    38   ar
    38    38     3   ar
    39    24     6   ar
    40    37    26   ar
    41    24    10   ar
    42    22    13   ar
    43     1    39    1
    44     1    40    1
    45     1    41    1
    46     2    42    1
    47     2    43    1
    48     4    44    1
    49     7    45    1
    50     8    46    1
    51    11    47    1
    52    14    48    1
    53    15    49    1
    54    16    50    1
    55    18    51    1
    56    18    52    1
    57    20    53    1
    58    20    54    1
    59    20    55    1
    60    21    56    1
    61    21    57    1
    62    21    58    1
    63    22    59    1
    64    23    60    1
    65    27    61    1
    66    28    62    1
    67    30    63    1
    68    34    64    1
    69    34    65    1
    70    34    66    1
    71    35    67    1
    72    35    68    1
    73    35    69    1
    74    36    70    1
    75    37    71    1
