@<TRIPOS>MOLECULE
*****
 66 69 0 0 0
SMALL
GASTEIGER

@<TRIPOS>ATOM
      1 C          -7.3993   -1.6171   -0.2555 C.3     1  UNL1       -0.0377
      2 C          -6.9934   -0.1981    0.0815 C.3     1  UNL1        0.0963
      3 N          -7.1351   -0.0561    1.5322 N.3     1  UNL1       -0.3170
      4 C          -7.8575    0.8065   -0.6457 C.3     1  UNL1        0.0838
      5 O          -9.1938    0.6458   -0.3390 O.3     1  UNL1       -0.2845
      6 P         -10.1937    1.7356   -1.1040 P.3     1  UNL1        0.4724
      7 O          -9.9936    3.1538   -0.6259 O.2     1  UNL1       -0.2275
      8 O         -10.0685    1.7176   -2.7770 O.3     1  UNL1       -0.3026
      9 O         -11.8050    1.3226   -0.7197 O.3     1  UNL1       -0.3026
     10 C          -5.5667   -0.0018   -0.2826 C.ar    1  UNL1        0.1298
     11 N          -4.5420   -0.2335    0.5573 N.ar    1  UNL1       -0.2305
     12 C          -3.3715    0.0340   -0.0544 C.ar    1  UNL1        0.0889
     13 C          -2.0346   -0.0891    0.5128 C.ar    1  UNL1        0.0026
     14 C          -0.9377    0.2272   -0.2525 C.ar    1  UNL1       -0.0490
     15 C           0.3428    0.1076    0.2954 C.ar    1  UNL1       -0.0188
     16 C           0.5480   -0.3218    1.5897 C.ar    1  UNL1        0.1322
     17 O           1.7491   -0.4623    2.1943 O.3     1  UNL1       -0.4911
     18 C           2.9992   -0.2526    1.6926 C.3     1  UNL1        0.0936
     19 C           3.3932   -1.1778    0.5757 C.3     1  UNL1        0.0066
     20 C           4.7842   -0.8216    0.1183 C.ar    1  UNL1       -0.0441
     21 C           4.9612    0.1068   -0.8828 C.ar    1  UNL1       -0.0579
     22 C           6.2506    0.4415   -1.3122 C.ar    1  UNL1       -0.0538
     23 C           7.3600   -0.1483   -0.7446 C.ar    1  UNL1       -0.0179
     24 C           8.7084    0.2054   -1.1974 C.ar    1  UNL1       -0.0179
     25 C           9.0009    1.4883   -1.6603 C.ar    1  UNL1       -0.0540
     26 C          10.2860    1.7677   -2.0744 C.ar    1  UNL1       -0.0612
     27 C          11.2647    0.8094   -2.0357 C.ar    1  UNL1       -0.0617
     28 C          10.9582   -0.4589   -1.5737 C.ar    1  UNL1       -0.0612
     29 C           9.6824   -0.7695   -1.1525 C.ar    1  UNL1       -0.0540
     30 C           7.1744   -1.0783    0.2587 C.ar    1  UNL1       -0.0538
     31 C           5.8899   -1.4096    0.6842 C.ar    1  UNL1       -0.0579
     32 C          -0.5837   -0.6444    2.3697 C.ar    1  UNL1        0.0969
     33 C          -0.3958   -1.1158    3.7885 C.3     1  UNL1        0.4208
     34 F           0.2402   -0.1838    4.5475 F       1  UNL1       -0.1658
     35 F          -1.6601   -1.3139    4.3068 F       1  UNL1       -0.1658
     36 F           0.2316   -2.3425    3.7800 F       1  UNL1       -0.1658
     37 C          -1.8067   -0.5141    1.8005 C.ar    1  UNL1       -0.0373
     38 C          -3.7183    0.4456   -1.3224 C.ar    1  UNL1        0.0293
     39 N          -5.0654    0.4243   -1.4643 N.ar    1  UNL1       -0.3462
     40 H          -8.0865   -1.6597   -1.1157 H       1  UNL1        0.0252
     41 H          -7.9036   -2.1239    0.6138 H       1  UNL1        0.0252
     42 H          -6.5162   -2.2650   -0.4790 H       1  UNL1        0.0252
     43 H          -6.2716   -0.2970    2.0400 H       1  UNL1        0.1192
     44 H          -7.9955   -0.5119    1.8687 H       1  UNL1        0.1192
     45 H          -7.5303    1.8348   -0.5140 H       1  UNL1        0.0588
     46 H          -7.7507    0.5676   -1.7366 H       1  UNL1        0.0588
     47 H          -9.4564    2.4495   -3.0407 H       1  UNL1        0.2220
     48 H         -12.2018    1.9476   -0.0873 H       1  UNL1        0.2220
     49 H          -1.0969    0.5625   -1.2650 H       1  UNL1        0.0625
     50 H           1.1723    0.3907   -0.3402 H       1  UNL1        0.0654
     51 H           3.8156   -0.2699    2.4569 H       1  UNL1        0.0700
     52 H           3.0358    0.8137    1.2969 H       1  UNL1        0.0700
     53 H           2.7293   -1.2266   -0.2680 H       1  UNL1        0.0346
     54 H           3.4850   -2.2235    1.0099 H       1  UNL1        0.0346
     55 H           4.1007    0.5804   -1.3401 H       1  UNL1        0.0620
     56 H           6.3831    1.1740   -2.1019 H       1  UNL1        0.0624
     57 H           8.2013    2.2243   -1.6779 H       1  UNL1        0.0624
     58 H          10.5134    2.7605   -2.4328 H       1  UNL1        0.0618
     59 H          12.2758    1.0265   -2.3609 H       1  UNL1        0.0618
     60 H          11.7213   -1.2336   -1.5351 H       1  UNL1        0.0618
     61 H           9.4214   -1.7508   -0.7890 H       1  UNL1        0.0624
     62 H           8.0403   -1.5363    0.6993 H       1  UNL1        0.0624
     63 H           5.7501   -2.1302    1.4614 H       1  UNL1        0.0620
     64 H          -2.6851   -0.7642    2.4050 H       1  UNL1        0.0631
     65 H          -3.0483    0.7419   -2.0948 H       1  UNL1        0.0829
     66 H          -5.6053    0.6897   -2.3304 H       1  UNL1        0.1666
@<TRIPOS>BOND
     1     1     2    1
     2     2     3    1
     3     2     4    1
     4     4     5    1
     5     5     6    1
     6     6     7    2
     7     6     8    1
     8     6     9    1
     9     2    10    1
    10    10    11   ar
    11    11    12   ar
    12    12    13    1
    13    13    14   ar
    14    14    15   ar
    15    15    16   ar
    16    16    17    1
    17    17    18    1
    18    18    19    1
    19    19    20    1
    20    20    21   ar
    21    21    22   ar
    22    22    23   ar
    23    23    24    1
    24    24    25   ar
    25    25    26   ar
    26    26    27   ar
    27    27    28   ar
    28    28    29   ar
    29    23    30   ar
    30    30    31   ar
    31    16    32   ar
    32    32    33    1
    33    33    34    1
    34    33    35    1
    35    33    36    1
    36    32    37   ar
    37    12    38   ar
    38    38    39   ar
    39    39    10   ar
    40    37    13   ar
    41    31    20   ar
    42    29    24   ar
    43     1    40    1
    44     1    41    1
    45     1    42    1
    46     3    43    1
    47     3    44    1
    48     4    45    1
    49     4    46    1
    50     8    47    1
    51     9    48    1
    52    14    49    1
    53    15    50    1
    54    18    51    1
    55    18    52    1
    56    19    53    1
    57    19    54    1
    58    21    55    1
    59    22    56    1
    60    25    57    1
    61    26    58    1
    62    27    59    1
    63    28    60    1
    64    29    61    1
    65    30    62    1
    66    31    63    1
    67    37    64    1
    68    38    65    1
    69    39    66    1
