
     RDKit          3D

 34 37  0  0  0  0  0  0  0  0999 V2000
   -4.2169    2.4834   -0.1231 C   0  0  0  0  0  0  0  0  0  0  0  0
   -3.1694    1.4832   -0.0158 N   0  0  0  0  0  0  0  0  0  0  0  0
   -1.8788    1.6200   -0.2604 N   0  0  0  0  0  0  0  0  0  0  0  0
   -1.2185    0.4433   -0.0418 C   0  0  0  0  0  0  0  0  0  0  0  0
   -2.2193   -0.4157    0.3543 C   0  0  0  0  0  0  0  0  0  0  0  0
   -2.0290   -1.7403    0.6818 C   0  0  0  0  0  0  0  0  0  0  0  0
   -0.7720   -2.3997    0.6446 N   0  0  0  0  0  0  0  0  0  0  0  0
   -3.1163   -2.4497    1.0467 N   0  0  0  0  0  0  0  0  0  0  0  0
   -4.3407   -1.8439    1.0776 C   0  0  0  0  0  0  0  0  0  0  0  0
   -4.4811   -0.5454    0.7482 N   0  0  0  0  0  0  0  0  0  0  0  0
   -3.4409    0.2240    0.3743 C   0  0  0  0  0  0  0  0  0  0  0  0
    0.2165    0.4075   -0.2700 C   0  0  0  0  0  0  0  0  0  0  0  0
    1.2125   -0.0657    0.5556 C   0  0  0  0  0  0  0  0  0  0  0  0
    2.5390   -0.0516    0.1903 C   0  0  0  0  0  0  0  0  0  0  0  0
    3.4747   -0.5457    1.0768 C   0  0  0  0  0  0  0  0  0  0  0  0
    4.8252   -0.5723    0.7978 C   0  0  0  0  0  0  0  0  0  0  0  0
    5.1934   -0.0701   -0.4346 C   0  0  0  0  0  0  0  0  0  0  0  0
    4.2591    0.4234   -1.3200 C   0  0  0  0  0  0  0  0  0  0  0  0
    2.9218    0.4444   -1.0318 C   0  0  0  0  0  0  0  0  0  0  0  0
    1.9861    0.9295   -1.8977 C   0  0  0  0  0  0  0  0  0  0  0  0
    0.6740    0.8927   -1.4854 C   0  0  0  0  0  0  0  0  0  0  0  0
   -4.5474    2.6646    0.9354 H   0  0  0  0  0  0  0  0  0  0  0  0
   -3.8630    3.4468   -0.5100 H   0  0  0  0  0  0  0  0  0  0  0  0
   -5.0999    2.1010   -0.6728 H   0  0  0  0  0  0  0  0  0  0  0  0
   -0.1101   -2.7844    1.3580 H   0  0  0  0  0  0  0  0  0  0  0  0
   -0.1943   -2.6609   -0.1886 H   0  0  0  0  0  0  0  0  0  0  0  0
   -5.2032   -2.4303    1.3738 H   0  0  0  0  0  0  0  0  0  0  0  0
    0.9055   -0.4401    1.5164 H   0  0  0  0  0  0  0  0  0  0  0  0
    3.1405   -0.9286    2.0298 H   0  0  0  0  0  0  0  0  0  0  0  0
    5.4915   -0.9666    1.5254 H   0  0  0  0  0  0  0  0  0  0  0  0
    6.2453   -0.0778   -0.6814 H   0  0  0  0  0  0  0  0  0  0  0  0
    4.6001    0.8079   -2.2784 H   0  0  0  0  0  0  0  0  0  0  0  0
    2.2623    1.3255   -2.8654 H   0  0  0  0  0  0  0  0  0  0  0  0
   -0.0464    1.2916   -2.2097 H   0  0  0  0  0  0  0  0  0  0  0  0
  1  2  1  0
  2  3  1  0
  3  4  2  0
  4  5  1  0
  5  6  2  0
  6  7  1  0
  6  8  1  0
  8  9  2  0
  9 10  1  0
 10 11  2  0
  4 12  1  0
 12 13  2  0
 13 14  1  0
 14 15  2  0
 15 16  1  0
 16 17  2  0
 17 18  1  0
 18 19  2  0
 19 20  1  0
 20 21  2  0
 11  2  1  0
 21 12  1  0
 11  5  1  0
 19 14  1  0
  1 22  1  0
  1 23  1  0
  1 24  1  0
  7 25  1  0
  7 26  1  0
  9 27  1  0
 13 28  1  0
 15 29  1  0
 16 30  1  0
 17 31  1  0
 18 32  1  0
 20 33  1  0
 21 34  1  0
M  END
$$$$
