@<TRIPOS>MOLECULE
*****
 34 37 0 0 0
SMALL
GASTEIGER

@<TRIPOS>ATOM
      1 C          -4.2169    2.4834   -0.1231 C.3     1  UNL1        0.0325
      2 N          -3.1694    1.4832   -0.0158 N.ar    1  UNL1       -0.2488
      3 N          -1.8788    1.6200   -0.2604 N.ar    1  UNL1       -0.1689
      4 C          -1.2185    0.4433   -0.0418 C.ar    1  UNL1        0.1053
      5 C          -2.2193   -0.4157    0.3543 C.ar    1  UNL1        0.0859
      6 C          -2.0290   -1.7403    0.6818 C.ar    1  UNL1        0.1308
      7 N          -0.7720   -2.3997    0.6446 N.pl3   1  UNL1       -0.3425
      8 N          -3.1163   -2.4497    1.0467 N.ar    1  UNL1       -0.2204
      9 C          -4.3407   -1.8439    1.0776 C.ar    1  UNL1        0.1204
     10 N          -4.4811   -0.5454    0.7482 N.ar    1  UNL1       -0.2162
     11 C          -3.4409    0.2240    0.3743 C.ar    1  UNL1        0.1636
     12 C           0.2165    0.4075   -0.2700 C.ar    1  UNL1        0.0035
     13 C           1.2125   -0.0657    0.5556 C.ar    1  UNL1       -0.0448
     14 C           2.5390   -0.0516    0.1903 C.ar    1  UNL1       -0.0173
     15 C           3.4747   -0.5457    1.0768 C.ar    1  UNL1       -0.0540
     16 C           4.8252   -0.5723    0.7978 C.ar    1  UNL1       -0.0612
     17 C           5.1934   -0.0701   -0.4346 C.ar    1  UNL1       -0.0612
     18 C           4.2591    0.4234   -1.3200 C.ar    1  UNL1       -0.0540
     19 C           2.9218    0.4444   -1.0318 C.ar    1  UNL1       -0.0178
     20 C           1.9861    0.9295   -1.8977 C.ar    1  UNL1       -0.0534
     21 C           0.6740    0.8927   -1.4854 C.ar    1  UNL1       -0.0519
     22 H          -4.5474    2.6646    0.9354 H       1  UNL1        0.0473
     23 H          -3.8630    3.4468   -0.5100 H       1  UNL1        0.0473
     24 H          -5.0999    2.1010   -0.6728 H       1  UNL1        0.0473
     25 H          -0.1101   -2.7844    1.3580 H       1  UNL1        0.1437
     26 H          -0.1943   -2.6609   -0.1886 H       1  UNL1        0.1437
     27 H          -5.2032   -2.4303    1.3738 H       1  UNL1        0.1048
     28 H           0.9055   -0.4401    1.5164 H       1  UNL1        0.0630
     29 H           3.1405   -0.9286    2.0298 H       1  UNL1        0.0624
     30 H           5.4915   -0.9666    1.5254 H       1  UNL1        0.0618
     31 H           6.2453   -0.0778   -0.6814 H       1  UNL1        0.0618
     32 H           4.6001    0.8079   -2.2784 H       1  UNL1        0.0624
     33 H           2.2623    1.3255   -2.8654 H       1  UNL1        0.0624
     34 H          -0.0464    1.2916   -2.2097 H       1  UNL1        0.0624
@<TRIPOS>BOND
     1     1     2    1
     2     2     3   ar
     3     3     4   ar
     4     4     5   ar
     5     5     6   ar
     6     6     7    1
     7     6     8   ar
     8     8     9   ar
     9     9    10   ar
    10    10    11   ar
    11     4    12    1
    12    12    13   ar
    13    13    14   ar
    14    14    15   ar
    15    15    16   ar
    16    16    17   ar
    17    17    18   ar
    18    18    19   ar
    19    19    20   ar
    20    20    21   ar
    21    11     2   ar
    22    21    12   ar
    23    11     5   ar
    24    19    14   ar
    25     1    22    1
    26     1    23    1
    27     1    24    1
    28     7    25    1
    29     7    26    1
    30     9    27    1
    31    13    28    1
    32    15    29    1
    33    16    30    1
    34    17    31    1
    35    18    32    1
    36    20    33    1
    37    21    34    1
