@<TRIPOS>MOLECULE
*****
 52 56 0 0 0
SMALL
GASTEIGER

@<TRIPOS>ATOM
      1 C          -6.4505   -2.3727    1.2126 C.3     1  UNL1        0.0132
      2 N          -5.5565   -1.3612    0.7432 N.ar    1  UNL1       -0.3342
      3 C          -4.2259   -1.4662    0.6212 C.ar    1  UNL1        0.0147
      4 C          -3.6838   -0.2973    0.1343 C.ar    1  UNL1        0.0150
      5 C          -2.2936    0.0121   -0.1611 C.ar    1  UNL1        0.0199
      6 C          -1.8246   -0.3544   -1.4260 C.ar    1  UNL1       -0.0494
      7 C          -0.4997   -0.0723   -1.6953 C.ar    1  UNL1       -0.0393
      8 C           0.3303    0.5382   -0.7800 C.ar    1  UNL1        0.0422
      9 C          -0.1556    0.8961    0.4707 C.ar    1  UNL1        0.0113
     10 C          -1.4668    0.6273    0.7675 C.ar    1  UNL1        0.1361
     11 F          -1.9407    0.9771    1.9986 F       1  UNL1       -0.2045
     12 C           0.9519    1.5449    1.2100 C.3     1  UNL1       -0.0069
     13 C           1.8665    2.0109    0.0862 C.3     1  UNL1        0.0239
     14 N           1.7200    0.9029   -0.8479 N.am    1  UNL1       -0.2704
     15 C           2.7084    0.2789   -1.6426 C.2     1  UNL1        0.2256
     16 O           2.4113   -0.7322   -2.3646 O.2     1  UNL1       -0.2748
     17 C           4.1170    0.7098   -1.7119 C.3     1  UNL1        0.0668
     18 C           4.9206   -0.3893   -1.0818 C.ar    1  UNL1        0.0507
     19 C           5.1544   -1.5696   -1.7418 C.ar    1  UNL1       -0.0399
     20 C           5.9345   -2.5199   -1.0752 C.ar    1  UNL1       -0.0581
     21 C           6.4367   -2.2704    0.1788 C.ar    1  UNL1       -0.0316
     22 C           6.1790   -1.0779    0.8036 C.ar    1  UNL1        0.1438
     23 C           6.6894   -0.7133    2.1620 C.3     1  UNL1        0.4342
     24 F           7.5059    0.4089    1.9738 F       1  UNL1       -0.1644
     25 F           7.4077   -1.7159    2.7453 F       1  UNL1       -0.1644
     26 F           5.6200   -0.2785    2.9149 F       1  UNL1       -0.1644
     27 N           5.4263   -0.1678    0.1553 N.ar    1  UNL1       -0.2471
     28 C          -4.7503    0.5649   -0.0484 C.ar    1  UNL1        0.0661
     29 C          -4.8744    1.8597   -0.4972 C.ar    1  UNL1        0.1292
     30 N          -3.6654    2.5236   -0.8895 N.pl3   1  UNL1       -0.3425
     31 N          -6.0668    2.4512   -0.5651 N.ar    1  UNL1       -0.2204
     32 C          -7.2013    1.7773   -0.1878 C.ar    1  UNL1        0.1204
     33 N          -7.0486    0.5244    0.2437 N.ar    1  UNL1       -0.2176
     34 C          -5.8829   -0.1168    0.3335 C.ar    1  UNL1        0.1461
     35 H          -7.4106   -2.2778    0.6615 H       1  UNL1        0.0456
     36 H          -6.0746   -3.4068    0.9933 H       1  UNL1        0.0456
     37 H          -6.7099   -2.2551    2.2865 H       1  UNL1        0.0456
     38 H          -3.6424   -2.3563    0.8737 H       1  UNL1        0.0816
     39 H          -2.4801   -0.8353   -2.1565 H       1  UNL1        0.0625
     40 H          -0.1083   -0.3498   -2.6769 H       1  UNL1        0.0636
     41 H           0.6109    2.4751    1.7543 H       1  UNL1        0.0330
     42 H           1.4606    0.8313    1.8892 H       1  UNL1        0.0330
     43 H           2.9242    2.0400    0.3983 H       1  UNL1        0.0472
     44 H           1.5532    2.9778   -0.3074 H       1  UNL1        0.0472
     45 H           4.5016    0.8128   -2.7439 H       1  UNL1        0.0422
     46 H           4.2811    1.6511   -1.1348 H       1  UNL1        0.0422
     47 H           4.7652   -1.7743   -2.7239 H       1  UNL1        0.0636
     48 H           6.1279   -3.4563   -1.5792 H       1  UNL1        0.0619
     49 H           7.0362   -2.9983    0.6871 H       1  UNL1        0.0638
     50 H          -3.5043    2.6406   -1.9082 H       1  UNL1        0.1437
     51 H          -2.9588    2.8838   -0.2275 H       1  UNL1        0.1437
     52 H          -8.1647    2.2646   -0.2479 H       1  UNL1        0.1048
@<TRIPOS>BOND
     1     1     2    1
     2     2     3   ar
     3     3     4   ar
     4     4     5    1
     5     5     6   ar
     6     6     7   ar
     7     7     8   ar
     8     8     9   ar
     9     9    10   ar
    10    10    11    1
    11     9    12    1
    12    12    13    1
    13    13    14    1
    14    14    15   am
    15    15    16    2
    16    15    17    1
    17    17    18    1
    18    18    19   ar
    19    19    20   ar
    20    20    21   ar
    21    21    22   ar
    22    22    23    1
    23    23    24    1
    24    23    25    1
    25    23    26    1
    26    22    27   ar
    27     4    28   ar
    28    28    29   ar
    29    29    30    1
    30    29    31   ar
    31    31    32   ar
    32    32    33   ar
    33    33    34   ar
    34    34     2   ar
    35    10     5   ar
    36    27    18   ar
    37    34    28   ar
    38    14     8    1
    39     1    35    1
    40     1    36    1
    41     1    37    1
    42     3    38    1
    43     6    39    1
    44     7    40    1
    45    12    41    1
    46    12    42    1
    47    13    43    1
    48    13    44    1
    49    17    45    1
    50    17    46    1
    51    19    47    1
    52    20    48    1
    53    21    49    1
    54    30    50    1
    55    30    51    1
    56    32    52    1
