
     RDKit          3D

 52 56  0  0  0  0  0  0  0  0999 V2000
   -6.4505   -2.3727    1.2126 C   0  0  0  0  0  0  0  0  0  0  0  0
   -5.5565   -1.3612    0.7432 N   0  0  0  0  0  0  0  0  0  0  0  0
   -4.2259   -1.4662    0.6212 C   0  0  0  0  0  0  0  0  0  0  0  0
   -3.6838   -0.2973    0.1343 C   0  0  0  0  0  0  0  0  0  0  0  0
   -2.2936    0.0121   -0.1611 C   0  0  0  0  0  0  0  0  0  0  0  0
   -1.8246   -0.3544   -1.4260 C   0  0  0  0  0  0  0  0  0  0  0  0
   -0.4997   -0.0723   -1.6953 C   0  0  0  0  0  0  0  0  0  0  0  0
    0.3303    0.5382   -0.7800 C   0  0  0  0  0  0  0  0  0  0  0  0
   -0.1556    0.8961    0.4707 C   0  0  0  0  0  0  0  0  0  0  0  0
   -1.4668    0.6273    0.7675 C   0  0  0  0  0  0  0  0  0  0  0  0
   -1.9407    0.9771    1.9986 F   0  0  0  0  0  0  0  0  0  0  0  0
    0.9519    1.5449    1.2100 C   0  0  0  0  0  0  0  0  0  0  0  0
    1.8665    2.0109    0.0862 C   0  0  0  0  0  0  0  0  0  0  0  0
    1.7200    0.9029   -0.8479 N   0  0  0  0  0  0  0  0  0  0  0  0
    2.7084    0.2789   -1.6426 C   0  0  0  0  0  0  0  0  0  0  0  0
    2.4113   -0.7322   -2.3646 O   0  0  0  0  0  0  0  0  0  0  0  0
    4.1170    0.7098   -1.7119 C   0  0  0  0  0  0  0  0  0  0  0  0
    4.9206   -0.3893   -1.0818 C   0  0  0  0  0  0  0  0  0  0  0  0
    5.1544   -1.5696   -1.7418 C   0  0  0  0  0  0  0  0  0  0  0  0
    5.9345   -2.5199   -1.0752 C   0  0  0  0  0  0  0  0  0  0  0  0
    6.4367   -2.2704    0.1788 C   0  0  0  0  0  0  0  0  0  0  0  0
    6.1790   -1.0779    0.8036 C   0  0  0  0  0  0  0  0  0  0  0  0
    6.6894   -0.7133    2.1620 C   0  0  0  0  0  0  0  0  0  0  0  0
    7.5059    0.4089    1.9738 F   0  0  0  0  0  0  0  0  0  0  0  0
    7.4077   -1.7159    2.7453 F   0  0  0  0  0  0  0  0  0  0  0  0
    5.6200   -0.2785    2.9149 F   0  0  0  0  0  0  0  0  0  0  0  0
    5.4263   -0.1678    0.1553 N   0  0  0  0  0  0  0  0  0  0  0  0
   -4.7503    0.5649   -0.0484 C   0  0  0  0  0  0  0  0  0  0  0  0
   -4.8744    1.8597   -0.4972 C   0  0  0  0  0  0  0  0  0  0  0  0
   -3.6654    2.5236   -0.8895 N   0  0  0  0  0  0  0  0  0  0  0  0
   -6.0668    2.4512   -0.5651 N   0  0  0  0  0  0  0  0  0  0  0  0
   -7.2013    1.7773   -0.1878 C   0  0  0  0  0  0  0  0  0  0  0  0
   -7.0486    0.5244    0.2437 N   0  0  0  0  0  0  0  0  0  0  0  0
   -5.8829   -0.1168    0.3335 C   0  0  0  0  0  0  0  0  0  0  0  0
   -7.4106   -2.2778    0.6615 H   0  0  0  0  0  0  0  0  0  0  0  0
   -6.0746   -3.4068    0.9933 H   0  0  0  0  0  0  0  0  0  0  0  0
   -6.7099   -2.2551    2.2865 H   0  0  0  0  0  0  0  0  0  0  0  0
   -3.6424   -2.3563    0.8737 H   0  0  0  0  0  0  0  0  0  0  0  0
   -2.4801   -0.8353   -2.1565 H   0  0  0  0  0  0  0  0  0  0  0  0
   -0.1083   -0.3498   -2.6769 H   0  0  0  0  0  0  0  0  0  0  0  0
    0.6109    2.4751    1.7543 H   0  0  0  0  0  0  0  0  0  0  0  0
    1.4606    0.8313    1.8892 H   0  0  0  0  0  0  0  0  0  0  0  0
    2.9242    2.0400    0.3983 H   0  0  0  0  0  0  0  0  0  0  0  0
    1.5532    2.9778   -0.3074 H   0  0  0  0  0  0  0  0  0  0  0  0
    4.5016    0.8128   -2.7439 H   0  0  0  0  0  0  0  0  0  0  0  0
    4.2811    1.6511   -1.1348 H   0  0  0  0  0  0  0  0  0  0  0  0
    4.7652   -1.7743   -2.7239 H   0  0  0  0  0  0  0  0  0  0  0  0
    6.1279   -3.4563   -1.5792 H   0  0  0  0  0  0  0  0  0  0  0  0
    7.0362   -2.9983    0.6871 H   0  0  0  0  0  0  0  0  0  0  0  0
   -3.5043    2.6406   -1.9082 H   0  0  0  0  0  0  0  0  0  0  0  0
   -2.9588    2.8838   -0.2275 H   0  0  0  0  0  0  0  0  0  0  0  0
   -8.1647    2.2646   -0.2479 H   0  0  0  0  0  0  0  0  0  0  0  0
  1  2  1  0
  2  3  1  0
  3  4  2  0
  4  5  1  0
  5  6  2  0
  6  7  1  0
  7  8  2  0
  8  9  1  0
  9 10  2  0
 10 11  1  0
  9 12  1  0
 12 13  1  0
 13 14  1  0
 14 15  1  0
 15 16  2  0
 15 17  1  0
 17 18  1  0
 18 19  2  0
 19 20  1  0
 20 21  2  0
 21 22  1  0
 22 23  1  0
 23 24  1  0
 23 25  1  0
 23 26  1  0
 22 27  2  0
  4 28  1  0
 28 29  2  0
 29 30  1  0
 29 31  1  0
 31 32  2  0
 32 33  1  0
 33 34  2  0
 34  2  1  0
 10  5  1  0
 27 18  1  0
 34 28  1  0
 14  8  1  0
  1 35  1  0
  1 36  1  0
  1 37  1  0
  3 38  1  0
  6 39  1  0
  7 40  1  0
 12 41  1  0
 12 42  1  0
 13 43  1  0
 13 44  1  0
 17 45  1  0
 17 46  1  0
 19 47  1  0
 20 48  1  0
 21 49  1  0
 30 50  1  0
 30 51  1  0
 32 52  1  0
M  END
$$$$
