
     RDKit          3D

 49 51  0  0  0  0  0  0  0  0999 V2000
    7.7962   -0.1298    1.1432 C   0  0  0  0  0  0  0  0  0  0  0  0
    6.9336   -0.6045    0.0426 C   0  0  0  0  0  0  0  0  0  0  0  0
    5.6944   -0.0849   -0.1909 C   0  0  0  0  0  0  0  0  0  0  0  0
    4.4275   -0.0456    0.8359 C   0  0  0  0  0  0  0  0  0  0  0  0
    3.5920   -0.2686   -0.3449 N   0  0  0  0  0  0  0  0  0  0  0  0
    2.5605    0.9944   -0.4870 S   0  0  0  0  0  6  0  0  0  0  0  0
    2.4419    1.9231    0.7274 O   0  0  0  0  0  0  0  0  0  0  0  0
    3.5617    1.8467   -1.4652 O   0  0  0  0  0  0  0  0  0  0  0  0
    0.9981    0.8879   -1.1659 C   0  0  0  0  0  0  0  0  0  0  0  0
    0.1063    0.4452   -0.1246 C   0  0  1  0  0  0  0  0  0  0  0  0
   -1.3503    0.8615   -0.4013 C   0  0  0  0  0  0  0  0  0  0  0  0
   -1.7274   -0.3962    0.3090 C   0  0  1  0  0  0  0  0  0  0  0  0
   -2.9971   -0.8577    0.0088 N   0  0  0  0  0  0  0  0  0  0  0  0
   -3.4071   -2.1808    0.5465 C   0  0  0  0  0  0  0  0  0  0  0  0
   -4.0361   -0.2160   -0.6818 C   0  0  0  0  0  0  0  0  0  0  0  0
   -4.2599   -0.2717   -1.9719 N   0  0  0  0  0  0  0  0  0  0  0  0
   -5.4198    0.0437   -2.5697 C   0  0  0  0  0  0  0  0  0  0  0  0
   -6.4610    0.4918   -1.7678 N   0  0  0  0  0  0  0  0  0  0  0  0
   -6.3013    0.5203   -0.5442 C   0  0  0  0  0  0  0  0  0  0  0  0
   -7.2182    0.6472    0.4954 N   0  0  0  0  0  0  0  0  0  0  0  0
   -6.7323    0.4039    1.6292 C   0  0  0  0  0  0  0  0  0  0  0  0
   -5.3351    0.1266    1.5046 C   0  0  0  0  0  0  0  0  0  0  0  0
   -5.1621    0.2074    0.0995 C   0  0  0  0  0  0  0  0  0  0  0  0
   -0.4766   -0.9881   -0.2663 C   0  0  0  0  0  0  0  0  0  0  0  0
    8.7828    0.1612    0.6849 H   0  0  0  0  0  0  0  0  0  0  0  0
    7.9405   -0.8692    1.9323 H   0  0  0  0  0  0  0  0  0  0  0  0
    7.3296    0.7991    1.5339 H   0  0  0  0  0  0  0  0  0  0  0  0
    6.6110   -1.6944    0.3365 H   0  0  0  0  0  0  0  0  0  0  0  0
    7.5054   -0.7808   -0.9164 H   0  0  0  0  0  0  0  0  0  0  0  0
    5.9406    1.2052    0.1417 H   0  0  0  0  0  0  0  0  0  0  0  0
    5.4005    0.1983   -1.2311 H   0  0  0  0  0  0  0  0  0  0  0  0
    4.4438    0.3623    1.6141 H   0  0  0  0  0  0  0  0  0  0  0  0
    4.7673   -1.2729    1.0693 H   0  0  0  0  0  0  0  0  0  0  0  0
    3.3326   -1.1572   -0.6798 H   0  0  0  0  0  0  0  0  0  0  0  0
    0.7942    1.7501   -1.7875 H   0  0  0  0  0  0  0  0  0  0  0  0
    1.1899    0.0250   -2.0057 H   0  0  0  0  0  0  0  0  0  0  0  0
    0.4235    0.6045    0.8855 H   0  0  0  0  0  0  0  0  0  0  0  0
   -1.6860    0.8646   -1.4166 H   0  0  0  0  0  0  0  0  0  0  0  0
   -1.6024    1.7937    0.2119 H   0  0  0  0  0  0  0  0  0  0  0  0
   -1.5781   -0.3265    1.4544 H   0  0  0  0  0  0  0  0  0  0  0  0
   -4.5054   -2.3533    0.4015 H   0  0  0  0  0  0  0  0  0  0  0  0
   -2.8866   -3.0361    0.1765 H   0  0  0  0  0  0  0  0  0  0  0  0
   -3.3088   -2.0387    1.6703 H   0  0  0  0  0  0  0  0  0  0  0  0
   -5.5358   -0.0367   -3.6129 H   0  0  0  0  0  0  0  0  0  0  0  0
   -8.2241    0.9653    0.3148 H   0  0  0  0  0  0  0  0  0  0  0  0
   -7.2337    0.2613    2.6182 H   0  0  0  0  0  0  0  0  0  0  0  0
   -4.6193   -0.0735    2.2036 H   0  0  0  0  0  0  0  0  0  0  0  0
   -0.5518   -1.2444   -1.3380 H   0  0  0  0  0  0  0  0  0  0  0  0
    0.0425   -1.7087    0.3781 H   0  0  0  0  0  0  0  0  0  0  0  0
  1  2  1  0
  2  3  1  0
  3  4  1  0
  4  5  1  0
  5  6  1  0
  6  7  2  0
  6  8  2  0
  6  9  1  0
  9 10  1  0
 10 11  1  0
 11 12  1  0
 12 13  1  0
 13 14  1  0
 13 15  1  0
 15 16  2  0
 16 17  1  0
 17 18  2  0
 18 19  1  0
 19 20  1  0
 20 21  1  0
 21 22  2  0
 22 23  1  0
 12 24  1  0
 24 10  1  0
 23 15  1  0
 23 19  2  0
  1 25  1  0
  1 26  1  0
  1 27  1  0
  2 28  1  0
  2 29  1  0
  3 30  1  0
  3 31  1  0
  4 32  1  0
  4 33  1  0
  5 34  1  0
  9 35  1  0
  9 36  1  0
 10 37  1  1
 11 38  1  0
 11 39  1  0
 12 40  1  1
 14 41  1  0
 14 42  1  0
 14 43  1  0
 17 44  1  0
 20 45  1  0
 21 46  1  0
 22 47  1  0
 24 48  1  0
 24 49  1  0
M  END
$$$$
