@<TRIPOS>MOLECULE
*****
 49 51 0 0 0
SMALL
GASTEIGER

@<TRIPOS>ATOM
      1 C           7.7962   -0.1298    1.1432 C.3     1  UNL1       -0.0652
      2 C           6.9336   -0.6045    0.0426 C.3     1  UNL1       -0.0547
      3 C           5.6944   -0.0849   -0.1909 C.3     1  UNL1       -0.0391
      4 C           4.4275   -0.0456    0.8359 C.3     1  UNL1        0.0171
      5 N           3.5920   -0.2686   -0.3449 N.3     1  UNL1       -0.1945
      6 S           2.5605    0.9944   -0.4870 S.O2    1  UNL1        0.0296
      7 O           2.4419    1.9231    0.7274 O.2     1  UNL1       -0.1582
      8 O           3.5617    1.8467   -1.4652 O.2     1  UNL1       -0.1582
      9 C           0.9981    0.8879   -1.1659 C.3     1  UNL1        0.0846
     10 C           0.1063    0.4452   -0.1246 C.3     1  UNL1       -0.0168
     11 C          -1.3503    0.8615   -0.4013 C.3     1  UNL1       -0.0299
     12 C          -1.7274   -0.3962    0.3090 C.3     1  UNL1        0.0251
     13 N          -2.9971   -0.8577    0.0088 N.pl3   1  UNL1       -0.3146
     14 C          -3.4071   -2.1808    0.5465 C.3     1  UNL1        0.0023
     15 C          -4.0361   -0.2160   -0.6818 C.ar    1  UNL1        0.1337
     16 N          -4.2599   -0.2717   -1.9719 N.ar    1  UNL1       -0.2200
     17 C          -5.4198    0.0437   -2.5697 C.ar    1  UNL1        0.1204
     18 N          -6.4610    0.4918   -1.7678 N.ar    1  UNL1       -0.2178
     19 C          -6.3013    0.5203   -0.5442 C.ar    1  UNL1        0.1432
     20 N          -7.2182    0.6472    0.4954 N.ar    1  UNL1       -0.3457
     21 C          -6.7323    0.4039    1.6292 C.ar    1  UNL1        0.0042
     22 C          -5.3351    0.1266    1.5046 C.ar    1  UNL1       -0.0318
     23 C          -5.1621    0.2074    0.0995 C.ar    1  UNL1        0.0585
     24 C          -0.4766   -0.9881   -0.2663 C.3     1  UNL1       -0.0299
     25 H           8.7828    0.1612    0.6849 H       1  UNL1        0.0230
     26 H           7.9405   -0.8692    1.9323 H       1  UNL1        0.0230
     27 H           7.3296    0.7991    1.5339 H       1  UNL1        0.0230
     28 H           6.6110   -1.6944    0.3365 H       1  UNL1        0.0263
     29 H           7.5054   -0.7808   -0.9164 H       1  UNL1        0.0263
     30 H           5.9406    1.2052    0.1417 H       1  UNL1        0.0278
     31 H           5.4005    0.1983   -1.2311 H       1  UNL1        0.0278
     32 H           4.4438    0.3623    1.6141 H       1  UNL1        0.0441
     33 H           4.7673   -1.2729    1.0693 H       1  UNL1        0.0441
     34 H           3.3326   -1.1572   -0.6798 H       1  UNL1        0.1476
     35 H           0.7942    1.7501   -1.7875 H       1  UNL1        0.0518
     36 H           1.1899    0.0250   -2.0057 H       1  UNL1        0.0518
     37 H           0.4235    0.6045    0.8855 H       1  UNL1        0.0318
     38 H          -1.6860    0.8646   -1.4166 H       1  UNL1        0.0286
     39 H          -1.6024    1.7937    0.2119 H       1  UNL1        0.0286
     40 H          -1.5781   -0.3265    1.4544 H       1  UNL1        0.0500
     41 H          -4.5054   -2.3533    0.4015 H       1  UNL1        0.0428
     42 H          -2.8866   -3.0361    0.1765 H       1  UNL1        0.0428
     43 H          -3.3088   -2.0387    1.6703 H       1  UNL1        0.0428
     44 H          -5.5358   -0.0367   -3.6129 H       1  UNL1        0.1048
     45 H          -8.2241    0.9653    0.3148 H       1  UNL1        0.1668
     46 H          -7.2337    0.2613    2.6182 H       1  UNL1        0.0807
     47 H          -4.6193   -0.0735    2.2036 H       1  UNL1        0.0640
     48 H          -0.5518   -1.2444   -1.3380 H       1  UNL1        0.0286
     49 H           0.0425   -1.7087    0.3781 H       1  UNL1        0.0286
@<TRIPOS>BOND
     1     1     2    1
     2     2     3    1
     3     3     4    1
     4     4     5    1
     5     5     6    1
     6     6     7    2
     7     6     8    2
     8     6     9    1
     9     9    10    1
    10    10    11    1
    11    11    12    1
    12    12    13    1
    13    13    14    1
    14    13    15    1
    15    15    16   ar
    16    16    17   ar
    17    17    18   ar
    18    18    19   ar
    19    19    20   ar
    20    20    21   ar
    21    21    22   ar
    22    22    23   ar
    23    12    24    1
    24    24    10    1
    25    23    15   ar
    26    23    19   ar
    27     1    25    1
    28     1    26    1
    29     1    27    1
    30     2    28    1
    31     2    29    1
    32     3    30    1
    33     3    31    1
    34     4    32    1
    35     4    33    1
    36     5    34    1
    37     9    35    1
    38     9    36    1
    39    10    37    1
    40    11    38    1
    41    11    39    1
    42    12    40    1
    43    14    41    1
    44    14    42    1
    45    14    43    1
    46    17    44    1
    47    20    45    1
    48    21    46    1
    49    22    47    1
    50    24    48    1
    51    24    49    1
