@<TRIPOS>MOLECULE
*****
 28 28 0 0 0
SMALL
GASTEIGER

@<TRIPOS>ATOM
      1 C          -2.8167   -1.2519    0.2143 C.3     1  UNL1       -0.0108
      2 C          -1.3041   -1.1342    0.2714 C.3     1  UNL1        0.0889
      3 N          -0.8488    0.2126    0.0840 N.pl3   1  UNL1       -0.3809
      4 C          -1.5502    1.0950    0.9795 C.3     1  UNL1        0.0813
      5 C          -1.2830    0.5868   -1.2726 C.3     1  UNL1        0.0813
      6 C           0.5488    0.2485    0.2104 C.ar    1  UNL1        0.1491
      7 C           1.3880   -0.8414    0.2375 C.ar    1  UNL1        0.0450
      8 C           2.7547   -0.7901    0.3619 C.ar    1  UNL1        0.1229
      9 O           3.5285   -1.9666    0.3793 O.3     1  UNL1       -0.5066
     10 C           3.3400    0.4543    0.4689 C.ar    1  UNL1       -0.0198
     11 C           2.5512    1.6060    0.4490 C.ar    1  UNL1       -0.0523
     12 C           1.1691    1.4790    0.3200 C.ar    1  UNL1        0.0039
     13 H          -3.3380   -0.8544    1.0841 H       1  UNL1        0.0289
     14 H          -3.0004   -2.3666    0.2147 H       1  UNL1        0.0289
     15 H          -3.1975   -0.9214   -0.7689 H       1  UNL1        0.0289
     16 H          -0.9715   -1.5214    1.2405 H       1  UNL1        0.0965
     17 H          -0.9500   -1.7163   -0.6123 H       1  UNL1        0.0965
     18 H          -1.3675    0.9074    2.0383 H       1  UNL1        0.0931
     19 H          -2.6257    1.0233    0.7255 H       1  UNL1        0.0931
     20 H          -1.2894    2.1645    0.7811 H       1  UNL1        0.0931
     21 H          -0.6811    1.4253   -1.6621 H       1  UNL1        0.0931
     22 H          -1.1994   -0.2946   -1.9542 H       1  UNL1        0.0931
     23 H          -2.3347    0.8770   -1.2084 H       1  UNL1        0.0931
     24 H           0.9376   -1.8216    0.1542 H       1  UNL1        0.0718
     25 H           4.3684   -2.0380   -0.1791 H       1  UNL1        0.2921
     26 H           4.4233    0.4530    0.5656 H       1  UNL1        0.0654
     27 H           3.0693    2.5494    0.5368 H       1  UNL1        0.0621
     28 H           0.6789    2.4361    0.3182 H       1  UNL1        0.0681
@<TRIPOS>UNITY_ATOM_ATTR
3 1
charge 1
@<TRIPOS>BOND
     1     1     2    1
     2     2     3    1
     3     3     4    1
     4     3     5    1
     5     3     6    1
     6     6     7   ar
     7     7     8   ar
     8     8     9    1
     9     8    10   ar
    10    10    11   ar
    11    11    12   ar
    12    12     6   ar
    13     1    13    1
    14     1    14    1
    15     1    15    1
    16     2    16    1
    17     2    17    1
    18     4    18    1
    19     4    19    1
    20     4    20    1
    21     5    21    1
    22     5    22    1
    23     5    23    1
    24     7    24    1
    25     9    25    1
    26    10    26    1
    27    11    27    1
    28    12    28    1
