@<TRIPOS>MOLECULE
*****
 38 39 0 0 0
SMALL
GASTEIGER

@<TRIPOS>ATOM
      1 C           4.3936    1.7382    0.7799 C.3     1  UNL1       -0.0622
      2 C           3.4928    2.2727   -0.3359 C.3     1  UNL1       -0.0215
      3 C           2.1258    1.6249   -0.1761 C.3     1  UNL1        0.0895
      4 O           2.2102    0.2313   -0.2711 O.3     1  UNL1       -0.4883
      5 C           1.0211   -0.5080   -0.1425 C.ar    1  UNL1        0.1623
      6 C          -0.1800    0.1743    0.0723 C.ar    1  UNL1       -0.0093
      7 C          -1.3720   -0.5175    0.2041 C.ar    1  UNL1        0.0008
      8 C          -1.3596   -1.9133    0.1194 C.ar    1  UNL1       -0.0511
      9 C          -0.1694   -2.5660   -0.0921 C.ar    1  UNL1       -0.0159
     10 C           1.0205   -1.8881   -0.2244 C.ar    1  UNL1        0.1615
     11 O           2.2378   -2.4937   -0.4369 O.3     1  UNL1       -0.4915
     12 C           2.4773   -3.8640   -0.5531 C.3     1  UNL1        0.0790
     13 C          -2.6194    0.2564    0.4310 C.3     1  UNL1        0.1527
     14 C          -3.7943   -0.7145    0.5431 C.3     1  UNL1       -0.0190
     15 C          -2.8992    1.1961   -0.7340 C.3     1  UNL1        0.0587
     16 N          -3.7898    2.1442   -0.0897 N.am    1  UNL1       -0.2770
     17 C          -3.4572    2.1218    1.3110 C.2     1  UNL1        0.4013
     18 O          -4.0023    3.0169    2.0291 O.2     1  UNL1       -0.2265
     19 O          -2.5739    1.0765    1.5691 O.3     1  UNL1       -0.4377
     20 H           5.3869    2.2213    0.7244 H       1  UNL1        0.0231
     21 H           3.9320    1.8988    1.7685 H       1  UNL1        0.0231
     22 H           4.4692    0.6345    0.6111 H       1  UNL1        0.0231
     23 H           3.9601    2.0027   -1.2832 H       1  UNL1        0.0295
     24 H           3.4170    3.3730   -0.2446 H       1  UNL1        0.0295
     25 H           1.6909    1.9121    0.8005 H       1  UNL1        0.0696
     26 H           1.4848    2.0133   -1.0058 H       1  UNL1        0.0696
     27 H          -0.1922    1.2606    0.1385 H       1  UNL1        0.0659
     28 H          -2.2791   -2.4556    0.2205 H       1  UNL1        0.0623
     29 H          -0.1725   -3.6477   -0.1558 H       1  UNL1        0.0655
     30 H           2.5937   -4.0986   -1.6367 H       1  UNL1        0.0660
     31 H           1.6834   -4.4948   -0.1158 H       1  UNL1        0.0660
     32 H           3.4366   -4.1424   -0.0624 H       1  UNL1        0.0660
     33 H          -4.7010   -0.1159    0.7160 H       1  UNL1        0.0272
     34 H          -3.8838   -1.2712   -0.4130 H       1  UNL1        0.0272
     35 H          -3.6102   -1.4195    1.3678 H       1  UNL1        0.0272
     36 H          -2.0026    1.6640   -1.1470 H       1  UNL1        0.0506
     37 H          -3.4827    0.5980   -1.4863 H       1  UNL1        0.0506
     38 H          -4.4923    2.6797   -0.6324 H       1  UNL1        0.1522
@<TRIPOS>BOND
     1     1     2    1
     2     2     3    1
     3     3     4    1
     4     4     5    1
     5     5     6   ar
     6     6     7   ar
     7     7     8   ar
     8     8     9   ar
     9     9    10   ar
    10    10    11    1
    11    11    12    1
    12     7    13    1
    13    13    14    1
    14    13    15    1
    15    15    16    1
    16    16    17   am
    17    17    18    2
    18    17    19    1
    19    10     5   ar
    20    19    13    1
    21     1    20    1
    22     1    21    1
    23     1    22    1
    24     2    23    1
    25     2    24    1
    26     3    25    1
    27     3    26    1
    28     6    27    1
    29     8    28    1
    30     9    29    1
    31    12    30    1
    32    12    31    1
    33    12    32    1
    34    14    33    1
    35    14    34    1
    36    14    35    1
    37    15    36    1
    38    15    37    1
    39    16    38    1
