
     RDKit          3D

 50 50  0  0  0  0  0  0  0  0999 V2000
    4.9411    1.5937    1.7203 C   0  0  0  0  0  0  0  0  0  0  0  0
    4.7287    1.6789    0.2101 C   0  0  0  0  0  0  0  0  0  0  0  0
    5.8502    1.0496   -0.5354 C   0  0  0  0  0  0  0  0  0  0  0  0
    3.3545    1.2828   -0.1933 C   0  0  0  0  0  0  0  0  0  0  0  0
    2.9145   -0.0923    0.1482 C   0  0  2  0  0  0  0  0  0  0  0  0
    3.6953   -1.1967   -0.4163 C   0  0  0  0  0  0  0  0  0  0  0  0
    3.1815   -2.0684   -1.0972 O   0  0  0  0  0  0  0  0  0  0  0  0
    1.4976   -0.1962   -0.2044 N   0  0  0  0  0  0  0  0  0  0  0  0
    0.4784   -0.3745    0.7693 C   0  0  0  0  0  0  0  0  0  0  0  0
    0.7576   -0.4516    1.9811 O   0  0  0  0  0  0  0  0  0  0  0  0
   -0.9539   -0.4744    0.3607 C   0  0  1  0  0  0  0  0  0  0  0  0
   -1.0757   -0.3383   -1.0654 N   0  0  0  0  0  0  0  0  0  0  0  0
   -2.0245    1.0143   -1.5391 S   0  0  0  0  0  6  0  0  0  0  0  0
   -2.0550    1.0800   -3.0343 O   0  0  0  0  0  0  0  0  0  0  0  0
   -1.3846    2.2516   -0.9688 O   0  0  0  0  0  0  0  0  0  0  0  0
   -3.6638    0.8847   -0.9496 C   0  0  0  0  0  0  0  0  0  0  0  0
   -3.9935    1.4401    0.2665 C   0  0  0  0  0  0  0  0  0  0  0  0
   -5.2911    1.3327    0.7280 C   0  0  0  0  0  0  0  0  0  0  0  0
   -6.2698    0.6964    0.0290 C   0  0  0  0  0  0  0  0  0  0  0  0
   -7.5313    0.6036    0.5012 F   0  0  0  0  0  0  0  0  0  0  0  0
   -5.9321    0.1388   -1.1949 C   0  0  0  0  0  0  0  0  0  0  0  0
   -4.6418    0.2362   -1.6719 C   0  0  0  0  0  0  0  0  0  0  0  0
   -1.4789   -1.8612    0.7198 C   0  0  0  0  0  0  0  0  0  0  0  0
   -2.9177   -2.0284    0.3363 C   0  0  0  0  0  0  0  0  0  0  0  0
   -0.5919   -2.9368    0.1822 C   0  0  0  0  0  0  0  0  0  0  0  0
    4.9411    0.5676    2.0768 H   0  0  0  0  0  0  0  0  0  0  0  0
    5.9209    2.0761    1.9170 H   0  0  0  0  0  0  0  0  0  0  0  0
    4.1744    2.2478    2.1986 H   0  0  0  0  0  0  0  0  0  0  0  0
    4.7813    2.7967    0.0111 H   0  0  0  0  0  0  0  0  0  0  0  0
    6.6181    1.8340   -0.8090 H   0  0  0  0  0  0  0  0  0  0  0  0
    5.5516    0.6080   -1.4938 H   0  0  0  0  0  0  0  0  0  0  0  0
    6.4278    0.3612    0.1279 H   0  0  0  0  0  0  0  0  0  0  0  0
    2.6437    1.9916    0.3076 H   0  0  0  0  0  0  0  0  0  0  0  0
    3.2574    1.5246   -1.2797 H   0  0  0  0  0  0  0  0  0  0  0  0
    2.9483   -0.1658    1.2759 H   0  0  0  0  0  0  0  0  0  0  0  0
    4.7602   -1.2929   -0.2578 H   0  0  0  0  0  0  0  0  0  0  0  0
    1.1752   -0.1424   -1.2031 H   0  0  0  0  0  0  0  0  0  0  0  0
   -1.4965    0.3163    0.8784 H   0  0  0  0  0  0  0  0  0  0  0  0
   -1.2926   -1.1969   -1.5795 H   0  0  0  0  0  0  0  0  0  0  0  0
   -3.2463    1.9559    0.8541 H   0  0  0  0  0  0  0  0  0  0  0  0
   -5.5409    1.7763    1.6905 H   0  0  0  0  0  0  0  0  0  0  0  0
   -6.6707   -0.3789   -1.7913 H   0  0  0  0  0  0  0  0  0  0  0  0
   -4.3365   -0.1844   -2.6219 H   0  0  0  0  0  0  0  0  0  0  0  0
   -1.4279   -1.9069    1.8426 H   0  0  0  0  0  0  0  0  0  0  0  0
   -2.9921   -1.9788   -0.7663 H   0  0  0  0  0  0  0  0  0  0  0  0
   -3.5938   -1.3673    0.8758 H   0  0  0  0  0  0  0  0  0  0  0  0
   -3.1877   -3.0919    0.5958 H   0  0  0  0  0  0  0  0  0  0  0  0
   -0.9805   -3.3579   -0.7810 H   0  0  0  0  0  0  0  0  0  0  0  0
    0.4293   -2.5305   -0.0703 H   0  0  0  0  0  0  0  0  0  0  0  0
   -0.4575   -3.7258    0.9450 H   0  0  0  0  0  0  0  0  0  0  0  0
  1  2  1  0
  2  3  1  0
  2  4  1  0
  4  5  1  0
  5  6  1  0
  6  7  2  0
  5  8  1  0
  8  9  1  0
  9 10  2  0
  9 11  1  0
 11 12  1  0
 12 13  1  0
 13 14  2  0
 13 15  2  0
 13 16  1  0
 16 17  2  0
 17 18  1  0
 18 19  2  0
 19 20  1  0
 19 21  1  0
 21 22  2  0
 11 23  1  0
 23 24  1  0
 23 25  1  0
 22 16  1  0
  1 26  1  0
  1 27  1  0
  1 28  1  0
  2 29  1  0
  3 30  1  0
  3 31  1  0
  3 32  1  0
  4 33  1  0
  4 34  1  0
  5 35  1  1
  6 36  1  0
  8 37  1  0
 11 38  1  1
 12 39  1  0
 17 40  1  0
 18 41  1  0
 21 42  1  0
 22 43  1  0
 23 44  1  0
 24 45  1  0
 24 46  1  0
 24 47  1  0
 25 48  1  0
 25 49  1  0
 25 50  1  0
M  END
$$$$
