@<TRIPOS>MOLECULE
*****
 50 50 0 0 0
SMALL
GASTEIGER

@<TRIPOS>ATOM
      1 CD1         4.9411    1.5937    1.7203 C.3     1  LEU1       -0.0626
      2 CG          4.7287    1.6789    0.2101 C.3     1  LEU1       -0.0447
      3 CD2         5.8502    1.0496   -0.5354 C.3     1  LEU1       -0.0626
      4 CB          3.3545    1.2828   -0.1933 C.3     1  LEU1       -0.0255
      5 CA          2.9145   -0.0923    0.1482 C.3     1  LEU1        0.0787
      6 C           3.6953   -1.1967   -0.4163 C.2     1  LEU1        0.1404
      7 O           3.1815   -2.0684   -1.0972 O.2     1  LEU1       -0.2991
      8 N           1.4976   -0.1962   -0.2044 N.am    1  LEU1       -0.3046
      9 C           0.4784   -0.3745    0.7693 C.2     0  UNK0        0.2325
     10 O           0.7576   -0.4516    1.9811 O.2     0  UNK0       -0.2740
     11 C          -0.9539   -0.4744    0.3607 C.3     0  UNK0        0.1070
     12 N          -1.0757   -0.3383   -1.0654 N.3     0  UNK0       -0.1778
     13 S          -2.0245    1.0143   -1.5391 S.O2    0  UNK0        0.0591
     14 O          -2.0550    1.0800   -3.0343 O.2     0  UNK0       -0.1530
     15 O          -1.3846    2.2516   -0.9688 O.2     0  UNK0       -0.1530
     16 C          -3.6638    0.8847   -0.9496 C.ar    0  UNK0        0.1054
     17 C          -3.9935    1.4401    0.2665 C.ar    0  UNK0       -0.0326
     18 C          -5.2911    1.3327    0.7280 C.ar    0  UNK0       -0.0246
     19 C          -6.2698    0.6964    0.0290 C.ar    0  UNK0        0.1235
     20 F          -7.5313    0.6036    0.5012 F       0  UNK0       -0.2055
     21 C          -5.9321    0.1388   -1.1949 C.ar    0  UNK0       -0.0246
     22 C          -4.6418    0.2362   -1.6719 C.ar    0  UNK0       -0.0326
     23 C          -1.4789   -1.8612    0.7198 C.3     0  UNK0       -0.0212
     24 C          -2.9177   -2.0284    0.3363 C.3     0  UNK0       -0.0607
     25 C          -0.5919   -2.9368    0.1822 C.3     0  UNK0       -0.0607
     26 HD11        4.9411    0.5676    2.0768 H       1  LEU1        0.0232
     27 HD12        5.9209    2.0761    1.9170 H       1  LEU1        0.0232
     28 HD13        4.1744    2.2478    2.1986 H       1  LEU1        0.0232
     29 HG          4.7813    2.7967    0.0111 H       1  LEU1        0.0296
     30 HD21        6.6181    1.8340   -0.8090 H       1  LEU1        0.0232
     31 HD22        5.5516    0.6080   -1.4938 H       1  LEU1        0.0232
     32 HD23        6.4278    0.3612    0.1279 H       1  LEU1        0.0232
     33 HB1         2.6437    1.9916    0.3076 H       1  LEU1        0.0290
     34 HB2         3.2574    1.5246   -1.2797 H       1  LEU1        0.0290
     35 HA          2.9483   -0.1658    1.2759 H       1  LEU1        0.0574
     36 H           4.7602   -1.2929   -0.2578 H       1  LEU1        0.1046
     37 H           1.1752   -0.1424   -1.2031 H       1  LEU1        0.1494
     38 H          -1.4965    0.3163    0.8784 H       0  UNK0        0.0575
     39 H          -1.2926   -1.1969   -1.5795 H       0  UNK0        0.1489
     40 H          -3.2463    1.9559    0.8541 H       0  UNK0        0.0638
     41 H          -5.5409    1.7763    1.6905 H       0  UNK0        0.0647
     42 H          -6.6707   -0.3789   -1.7913 H       0  UNK0        0.0647
     43 H          -4.3365   -0.1844   -2.6219 H       0  UNK0        0.0638
     44 H          -1.4279   -1.9069    1.8426 H       0  UNK0        0.0316
     45 H          -2.9921   -1.9788   -0.7663 H       0  UNK0        0.0233
     46 H          -3.5938   -1.3673    0.8758 H       0  UNK0        0.0233
     47 H          -3.1877   -3.0919    0.5958 H       0  UNK0        0.0233
     48 H          -0.9805   -3.3579   -0.7810 H       0  UNK0        0.0233
     49 H           0.4293   -2.5305   -0.0703 H       0  UNK0        0.0233
     50 H          -0.4575   -3.7258    0.9450 H       0  UNK0        0.0233
@<TRIPOS>BOND
     1     1     2    1
     2     2     3    1
     3     2     4    1
     4     4     5    1
     5     5     6    1
     6     6     7    2
     7     5     8    1
     8     8     9   am
     9     9    10    2
    10     9    11    1
    11    11    12    1
    12    12    13    1
    13    13    14    2
    14    13    15    2
    15    13    16    1
    16    16    17   ar
    17    17    18   ar
    18    18    19   ar
    19    19    20    1
    20    19    21   ar
    21    21    22   ar
    22    11    23    1
    23    23    24    1
    24    23    25    1
    25    22    16   ar
    26     1    26    1
    27     1    27    1
    28     1    28    1
    29     2    29    1
    30     3    30    1
    31     3    31    1
    32     3    32    1
    33     4    33    1
    34     4    34    1
    35     5    35    1
    36     6    36    1
    37     8    37    1
    38    11    38    1
    39    12    39    1
    40    17    40    1
    41    18    41    1
    42    21    42    1
    43    22    43    1
    44    23    44    1
    45    24    45    1
    46    24    46    1
    47    24    47    1
    48    25    48    1
    49    25    49    1
    50    25    50    1
