@<TRIPOS>MOLECULE
*****
 64 67 0 0 0
SMALL
GASTEIGER

@<TRIPOS>ATOM
      1 C          -2.2624    0.2306   -4.1948 C.3     1  UNL1       -0.0396
      2 C          -1.7723    0.3256   -2.7734 C.ar    1  UNL1       -0.0484
      3 C          -0.4809   -0.0183   -2.4427 C.ar    1  UNL1       -0.0581
      4 C          -0.0528    0.0751   -1.1164 C.ar    1  UNL1       -0.0502
      5 C          -0.8908    0.5059   -0.1138 C.ar    1  UNL1        0.0292
      6 C          -0.7150    0.6840    1.2506 C.ar    1  UNL1        0.1201
      7 C           0.4861    0.4341    2.0386 C.ar    1  UNL1        0.1104
      8 C           0.4444    0.6400    3.4087 C.ar    1  UNL1        0.0575
      9 N           1.5082    0.4197    4.1977 N.ar    1  UNL1       -0.2338
     10 C           2.6738   -0.0138    3.6966 C.ar    1  UNL1        0.1574
     11 N           3.8813   -0.3243    4.1733 N.ar    1  UNL1       -0.3438
     12 C           4.7117   -0.7208    3.1966 C.ar    1  UNL1        0.0178
     13 C           3.9949   -0.6646    2.0008 C.ar    1  UNL1        0.0815
     14 C           4.5336   -1.0163    0.6766 C.2     1  UNL1        0.2481
     15 O           3.8624   -1.6352   -0.1664 O.2     1  UNL1       -0.2701
     16 N           5.8712   -0.6493    0.3149 N.am    1  UNL1       -0.3040
     17 C           6.4973   -0.9366   -0.9334 C.3     1  UNL1        0.0523
     18 C           6.5752   -2.4173   -1.2209 C.3     1  UNL1       -0.0418
     19 C           7.9310   -0.4142   -0.8783 C.3     1  UNL1       -0.0418
     20 C           5.7689   -0.3041   -2.1200 C.3     1  UNL1        0.0649
     21 O           6.4379   -0.6219   -3.3163 O.3     1  UNL1       -0.3929
     22 C           2.7309   -0.2264    2.3106 C.ar    1  UNL1        0.1202
     23 N           1.6459    0.0018    1.5308 N.ar    1  UNL1       -0.2397
     24 N          -1.9136    1.1300    1.6828 N.ar    1  UNL1       -0.1685
     25 N          -2.7744    1.2302    0.7059 N.ar    1  UNL1       -0.2630
     26 C          -4.1496    1.6677    0.8214 C.3     1  UNL1        0.0434
     27 C          -5.0836    0.5092    1.1274 C.3     1  UNL1       -0.0205
     28 C          -6.4785    1.1061    1.2175 C.3     1  UNL1       -0.0000
     29 N          -7.4903    0.1293    1.5116 N.3     1  UNL1       -0.3083
     30 C          -7.6268   -0.7547    0.3692 C.3     1  UNL1       -0.0130
     31 C          -8.7400    0.8375    1.7137 C.3     1  UNL1       -0.0130
     32 C          -2.1875    0.8518   -0.4438 C.ar    1  UNL1        0.0698
     33 C          -2.6058    0.7565   -1.7636 C.ar    1  UNL1       -0.0331
     34 H          -1.4036   -0.0928   -4.8085 H       1  UNL1        0.0278
     35 H          -2.9871   -0.6334   -4.2071 H       1  UNL1        0.0278
     36 H          -2.7201    1.1676   -4.5279 H       1  UNL1        0.0278
     37 H           0.2181   -0.3632   -3.1925 H       1  UNL1        0.0620
     38 H           0.9651   -0.1913   -0.8226 H       1  UNL1        0.0625
     39 H          -0.4681    0.9905    3.8697 H       1  UNL1        0.0853
     40 H           4.1618   -0.2707    5.1848 H       1  UNL1        0.1668
     41 H           5.7563   -1.0399    3.2434 H       1  UNL1        0.0816
     42 H           6.3987   -0.1338    1.0455 H       1  UNL1        0.1496
     43 H           6.6469   -3.0141   -0.2919 H       1  UNL1        0.0251
     44 H           7.5130   -2.5979   -1.7824 H       1  UNL1        0.0251
     45 H           5.7556   -2.7654   -1.8845 H       1  UNL1        0.0251
     46 H           8.5450   -1.2443   -0.4372 H       1  UNL1        0.0251
     47 H           8.3029   -0.3018   -1.9192 H       1  UNL1        0.0251
     48 H           7.9966    0.5275   -0.3053 H       1  UNL1        0.0251
     49 H           5.6760    0.7851   -2.0059 H       1  UNL1        0.0578
     50 H           4.7466   -0.7328   -2.1197 H       1  UNL1        0.0578
     51 H           6.2105    0.0193   -4.0257 H       1  UNL1        0.2095
     52 H          -4.5158    2.1491   -0.0929 H       1  UNL1        0.0509
     53 H          -4.2930    2.3961    1.6524 H       1  UNL1        0.0509
     54 H          -5.0625   -0.2944    0.3918 H       1  UNL1        0.0295
     55 H          -4.8158    0.0675    2.1305 H       1  UNL1        0.0295
     56 H          -6.7168    1.5823    0.2202 H       1  UNL1        0.0427
     57 H          -6.4720    1.9664    1.9284 H       1  UNL1        0.0427
     58 H          -6.8603   -1.5551    0.4473 H       1  UNL1        0.0391
     59 H          -7.3886   -0.1810   -0.5562 H       1  UNL1        0.0391
     60 H          -8.6468   -1.1876    0.3024 H       1  UNL1        0.0391
     61 H          -8.5875    1.9428    1.6778 H       1  UNL1        0.0391
     62 H          -9.2236    0.5369    2.6861 H       1  UNL1        0.0391
     63 H          -9.4456    0.6199    0.8602 H       1  UNL1        0.0391
     64 H          -3.6163    1.0308   -1.9956 H       1  UNL1        0.0641
@<TRIPOS>BOND
     1     1     2    1
     2     2     3   ar
     3     3     4   ar
     4     4     5   ar
     5     5     6   ar
     6     6     7    1
     7     7     8   ar
     8     8     9   ar
     9     9    10   ar
    10    10    11   ar
    11    11    12   ar
    12    12    13   ar
    13    13    14    1
    14    14    15    2
    15    14    16   am
    16    16    17    1
    17    17    18    1
    18    17    19    1
    19    17    20    1
    20    20    21    1
    21    13    22   ar
    22    22    23   ar
    23     6    24   ar
    24    24    25   ar
    25    25    26    1
    26    26    27    1
    27    27    28    1
    28    28    29    1
    29    29    30    1
    30    29    31    1
    31    25    32   ar
    32    32    33   ar
    33    33     2   ar
    34    32     5   ar
    35    23     7   ar
    36    22    10   ar
    37     1    34    1
    38     1    35    1
    39     1    36    1
    40     3    37    1
    41     4    38    1
    42     8    39    1
    43    11    40    1
    44    12    41    1
    45    16    42    1
    46    18    43    1
    47    18    44    1
    48    18    45    1
    49    19    46    1
    50    19    47    1
    51    19    48    1
    52    20    49    1
    53    20    50    1
    54    21    51    1
    55    26    52    1
    56    26    53    1
    57    27    54    1
    58    27    55    1
    59    28    56    1
    60    28    57    1
    61    30    58    1
    62    30    59    1
    63    30    60    1
    64    31    61    1
    65    31    62    1
    66    31    63    1
    67    33    64    1
