@<TRIPOS>MOLECULE
*****
 50 52 0 0 0
SMALL
GASTEIGER

@<TRIPOS>ATOM
      1 C           6.8671   -0.5162    0.1729 C.3     1  UNL1       -0.0517
      2 C           5.8958    0.5237    0.5431 C.3     1  UNL1        0.0153
      3 C           5.7477    0.8794    1.9883 C.3     1  UNL1       -0.0517
      4 C           4.6159    0.1353   -0.0737 C.1     1  UNL1       -0.0941
      5 C           3.3667   -0.2326   -0.6619 C.1     1  UNL1       -0.0660
      6 C           2.2066   -0.5521   -1.1955 C.ar    1  UNL1        0.0253
      7 C           2.0809   -0.3354   -2.6449 C.ar    1  UNL1       -0.0463
      8 C           0.8688   -0.3685   -3.2529 C.ar    1  UNL1       -0.0602
      9 C          -0.2609   -0.5912   -2.6304 C.ar    1  UNL1       -0.0540
     10 C          -0.2489   -0.8096   -1.1500 C.ar    1  UNL1        0.0118
     11 C          -1.4611   -0.8930   -0.3757 C.3     1  UNL1        0.2646
     12 C          -2.0678    0.3398    0.1074 C.ar    1  UNL1        0.0109
     13 C          -3.3013    0.5934    0.2847 C.ar    1  UNL1       -0.0506
     14 C          -4.0510    1.6137    0.6690 C.ar    1  UNL1       -0.0193
     15 C          -3.1515    2.7863    0.9720 C.ar    1  UNL1        0.1269
     16 O          -3.9064    3.8340    1.3695 O.3     1  UNL1       -0.4342
     17 C          -3.6326    5.1376    1.7142 C.3     1  UNL1        0.3893
     18 F          -4.8210    5.8739    1.5528 F       1  UNL1       -0.1663
     19 F          -3.2408    5.1945    3.0906 F       1  UNL1       -0.1663
     20 C          -1.8678    2.6025    0.8223 C.ar    1  UNL1       -0.0193
     21 C          -1.1394    1.5025    0.4168 C.ar    1  UNL1       -0.0506
     22 N          -2.4634   -1.3838   -1.3865 N.2     1  UNL1       -0.0891
     23 C          -2.9770   -2.4407   -0.9739 C.2     1  UNL1        0.3731
     24 N          -3.9927   -3.1556   -1.7580 N.pl3   1  UNL1       -0.2512
     25 N          -2.4567   -2.8910    0.2738 N.am    1  UNL1       -0.1614
     26 C          -2.9564   -4.1134    0.9494 C.3     1  UNL1        0.0573
     27 C          -1.4747   -1.9464    0.6393 C.2     1  UNL1        0.3303
     28 O          -0.7815   -2.0987    1.7089 O.2     1  UNL1       -0.2520
     29 C           1.0048   -0.7686   -0.6287 C.ar    1  UNL1       -0.0386
     30 H           7.1024   -0.4401   -0.9421 H       1  UNL1        0.0241
     31 H           7.8732   -0.3678    0.6748 H       1  UNL1        0.0241
     32 H           6.5493   -1.5670    0.3174 H       1  UNL1        0.0241
     33 H           6.1380    1.5493   -0.0434 H       1  UNL1        0.0428
     34 H           6.7312    1.4063    2.3082 H       1  UNL1        0.0241
     35 H           4.9828    1.7514    2.0642 H       1  UNL1        0.0241
     36 H           5.4859    0.0579    2.6499 H       1  UNL1        0.0241
     37 H           3.0253   -0.1562   -3.1497 H       1  UNL1        0.0630
     38 H           0.8873   -0.1595   -4.3710 H       1  UNL1        0.0618
     39 H          -1.2597   -0.6294   -3.0223 H       1  UNL1        0.0622
     40 H          -3.9493   -0.4020    0.0497 H       1  UNL1        0.0623
     41 H          -5.0846    1.6909    0.7766 H       1  UNL1        0.0654
     42 H          -2.7845    5.5053    1.1229 H       1  UNL1        0.1520
     43 H          -1.2198    3.5071    1.1092 H       1  UNL1        0.0654
     44 H          -0.1389    1.4362    0.2896 H       1  UNL1        0.0623
     45 H          -4.9638   -2.9313   -1.6197 H       1  UNL1        0.2412
     46 H          -3.6327   -3.8557   -2.4342 H       1  UNL1        0.2412
     47 H          -4.0172   -4.0578    1.1986 H       1  UNL1        0.0602
     48 H          -2.3572   -4.3068    1.8534 H       1  UNL1        0.0602
     49 H          -2.8443   -4.9449    0.1739 H       1  UNL1        0.0602
     50 H           1.0752   -1.0058    0.4513 H       1  UNL1        0.0634
@<TRIPOS>BOND
     1     1     2    1
     2     2     3    1
     3     2     4    1
     4     4     5    3
     5     5     6    1
     6     6     7   ar
     7     7     8   ar
     8     8     9   ar
     9     9    10   ar
    10    11    10    1
    11    11    12    1
    12    12    13   ar
    13    13    14   ar
    14    14    15   ar
    15    15    16    1
    16    16    17    1
    17    17    18    1
    18    17    19    1
    19    15    20   ar
    20    20    21   ar
    21    11    22    1
    22    22    23    2
    23    23    24    1
    24    23    25    1
    25    25    26    1
    26    25    27   am
    27    27    28    2
    28    10    29   ar
    29    29     6   ar
    30    27    11    1
    31    21    12   ar
    32     1    30    1
    33     1    31    1
    34     1    32    1
    35     2    33    1
    36     3    34    1
    37     3    35    1
    38     3    36    1
    39     7    37    1
    40     8    38    1
    41     9    39    1
    42    13    40    1
    43    14    41    1
    44    17    42    1
    45    20    43    1
    46    21    44    1
    47    24    45    1
    48    24    46    1
    49    26    47    1
    50    26    48    1
    51    26    49    1
    52    29    50    1
