@<TRIPOS>MOLECULE
*****
 67 72 0 0 0
SMALL
GASTEIGER

@<TRIPOS>ATOM
      1 O          -3.6843    1.2284    0.4613 O.2     1  UNL1       -0.2700
      2 C          -3.3789   -0.0292    0.4790 C.2     1  UNL1        0.2468
      3 C          -1.9799   -0.3060    0.3052 C.ar    1  UNL1        0.0381
      4 C          -1.1029    0.6907   -0.1672 C.ar    1  UNL1       -0.0411
      5 C           0.2209    0.4827   -0.3557 C.ar    1  UNL1        0.0166
      6 C           1.1710    1.5383   -0.8334 C.3     1  UNL1        0.0522
      7 C           1.5915    1.2697   -2.2791 C.3     1  UNL1       -0.0287
      8 C           1.1920    2.5476   -3.0334 C.3     1  UNL1       -0.0352
      9 C          -0.0937    2.8691   -2.2356 C.3     1  UNL1        0.0129
     10 N           0.4364    2.7709   -0.9089 N.pl3   1  UNL1       -0.3225
     11 C           0.2507    3.7124    0.1209 C.ar    1  UNL1        0.0356
     12 C           1.1077    3.8300    1.1991 C.ar    1  UNL1       -0.0052
     13 C           0.9299    4.7335    2.2182 C.ar    1  UNL1        0.1279
     14 F           1.7876    4.8416    3.2782 F       1  UNL1       -0.2053
     15 C          -0.1488    5.5920    2.2082 C.ar    1  UNL1        0.0089
     16 C          -1.0237    5.4911    1.1330 C.ar    1  UNL1        0.1279
     17 F          -2.0821    6.3384    1.1317 F       1  UNL1       -0.2053
     18 C          -0.8443    4.5847    0.1127 C.ar    1  UNL1       -0.0052
     19 C           0.7661   -0.7697   -0.0758 C.ar    1  UNL1        0.1458
     20 O           2.0357   -1.0241   -0.2417 O.2     1  UNL1       -0.4407
     21 C           2.5365   -2.2127    0.0224 C.ar    1  UNL1        0.1931
     22 N           3.9239   -2.4142   -0.1859 N.pl3   1  UNL1       -0.2969
     23 C           4.7904   -1.3044   -0.6149 C.3     1  UNL1        0.0383
     24 C           6.0929   -1.5076    0.1588 C.3     1  UNL1        0.0635
     25 O           5.8109   -2.1592    1.3524 O.3     1  UNL1       -0.3767
     26 C           5.5396   -3.5080    1.1794 C.3     1  UNL1        0.0635
     27 C           4.6042   -3.6756   -0.0215 C.3     1  UNL1        0.0383
     28 C           1.7508   -3.2458    0.4886 C.ar    1  UNL1        0.0434
     29 C           0.4036   -3.0248    0.6820 C.ar    1  UNL1        0.1944
     30 O          -0.3702   -3.9349    1.1089 O.2     1  UNL1       -0.2870
     31 C          -0.0799   -1.7571    0.3884 C.ar    1  UNL1        0.0651
     32 C          -1.4328   -1.5178    0.5729 C.ar    1  UNL1       -0.0352
     33 N          -4.4444   -0.9201    0.6626 N.am    1  UNL1       -0.2932
     34 C          -4.4430   -2.3450    0.7499 C.3     1  UNL1        0.0385
     35 C          -5.9156   -2.8543    0.7386 C.3     1  UNL1        0.0635
     36 O          -6.4914   -2.3598   -0.4104 O.3     1  UNL1       -0.3767
     37 C          -6.6941   -0.9999   -0.2815 C.3     1  UNL1        0.0635
     38 C          -5.8155   -0.3393    0.7699 C.3     1  UNL1        0.0385
     39 H          -1.5333    1.6509   -0.3697 H       1  UNL1        0.0629
     40 H           2.0597    1.5973   -0.1583 H       1  UNL1        0.0551
     41 H           1.0135    0.4536   -2.7460 H       1  UNL1        0.0287
     42 H           2.6627    1.0717   -2.3653 H       1  UNL1        0.0287
     43 H           0.9996    2.3776   -4.0882 H       1  UNL1        0.0281
     44 H           1.9685    3.3149   -2.8514 H       1  UNL1        0.0281
     45 H          -0.4424    3.8948   -2.4985 H       1  UNL1        0.0464
     46 H          -0.7993    2.0931   -2.5401 H       1  UNL1        0.0464
     47 H           1.9625    3.1666    1.2251 H       1  UNL1        0.0665
     48 H          -0.3123    6.3122    2.9979 H       1  UNL1        0.0675
     49 H          -1.5326    4.5135   -0.7221 H       1  UNL1        0.0665
     50 H           4.3328   -0.3279   -0.4479 H       1  UNL1        0.0487
     51 H           4.9835   -1.4897   -1.7026 H       1  UNL1        0.0487
     52 H           6.6003   -0.5433    0.3517 H       1  UNL1        0.0575
     53 H           6.7631   -2.1451   -0.4742 H       1  UNL1        0.0575
     54 H           6.4517   -4.1014    0.9355 H       1  UNL1        0.0575
     55 H           5.1292   -3.9071    2.1073 H       1  UNL1        0.0575
     56 H           5.2128   -3.8099   -0.9544 H       1  UNL1        0.0487
     57 H           3.9454   -4.5381    0.0592 H       1  UNL1        0.0487
     58 H           2.1091   -4.2322    0.7208 H       1  UNL1        0.0707
     59 H          -2.0021   -2.3296    0.9381 H       1  UNL1        0.0633
     60 H          -4.0771   -2.7478    1.7316 H       1  UNL1        0.0487
     61 H          -4.0094   -2.8298   -0.1365 H       1  UNL1        0.0487
     62 H          -5.8059   -3.9711    0.6544 H       1  UNL1        0.0575
     63 H          -6.4270   -2.5931    1.6792 H       1  UNL1        0.0575
     64 H          -7.7615   -0.8176   -0.1194 H       1  UNL1        0.0575
     65 H          -6.4170   -0.5165   -1.2581 H       1  UNL1        0.0575
     66 H          -5.7454    0.7096    0.5020 H       1  UNL1        0.0487
     67 H          -6.2460   -0.5669    1.7518 H       1  UNL1        0.0487
@<TRIPOS>BOND
     1     1     2    2
     2     2     3    1
     3     3     4   ar
     4     4     5   ar
     5     5     6    1
     6     6     7    1
     7     7     8    1
     8     8     9    1
     9     9    10    1
    10    10    11    1
    11    11    12   ar
    12    12    13   ar
    13    13    14    1
    14    13    15   ar
    15    15    16   ar
    16    16    17    1
    17    16    18   ar
    18     5    19   ar
    19    19    20   ar
    20    20    21   ar
    21    21    22    1
    22    22    23    1
    23    23    24    1
    24    24    25    1
    25    25    26    1
    26    26    27    1
    27    21    28   ar
    28    28    29   ar
    29    29    30    2
    30    29    31   ar
    31    31    32   ar
    32     2    33   am
    33    33    34    1
    34    34    35    1
    35    35    36    1
    36    36    37    1
    37    37    38    1
    38    32     3   ar
    39    38    33    1
    40    10     6    1
    41    18    11   ar
    42    31    19   ar
    43    27    22    1
    44     4    39    1
    45     6    40    1
    46     7    41    1
    47     7    42    1
    48     8    43    1
    49     8    44    1
    50     9    45    1
    51     9    46    1
    52    12    47    1
    53    15    48    1
    54    18    49    1
    55    23    50    1
    56    23    51    1
    57    24    52    1
    58    24    53    1
    59    26    54    1
    60    26    55    1
    61    27    56    1
    62    27    57    1
    63    28    58    1
    64    32    59    1
    65    34    60    1
    66    34    61    1
    67    35    62    1
    68    35    63    1
    69    37    64    1
    70    37    65    1
    71    38    66    1
    72    38    67    1
