
     RDKit          3D

 67 72  0  0  0  0  0  0  0  0999 V2000
   -3.6843    1.2284    0.4613 O   0  0  0  0  0  0  0  0  0  0  0  0
   -3.3789   -0.0292    0.4790 C   0  0  0  0  0  0  0  0  0  0  0  0
   -1.9799   -0.3060    0.3052 C   0  0  0  0  0  0  0  0  0  0  0  0
   -1.1029    0.6907   -0.1672 C   0  0  0  0  0  0  0  0  0  0  0  0
    0.2209    0.4827   -0.3557 C   0  0  0  0  0  0  0  0  0  0  0  0
    1.1710    1.5383   -0.8334 C   0  0  1  0  0  0  0  0  0  0  0  0
    1.5915    1.2697   -2.2791 C   0  0  0  0  0  0  0  0  0  0  0  0
    1.1920    2.5476   -3.0334 C   0  0  0  0  0  0  0  0  0  0  0  0
   -0.0937    2.8691   -2.2356 C   0  0  0  0  0  0  0  0  0  0  0  0
    0.4364    2.7709   -0.9089 N   0  0  0  0  0  0  0  0  0  0  0  0
    0.2507    3.7124    0.1209 C   0  0  0  0  0  0  0  0  0  0  0  0
    1.1077    3.8300    1.1991 C   0  0  0  0  0  0  0  0  0  0  0  0
    0.9299    4.7335    2.2182 C   0  0  0  0  0  0  0  0  0  0  0  0
    1.7876    4.8416    3.2782 F   0  0  0  0  0  0  0  0  0  0  0  0
   -0.1488    5.5920    2.2082 C   0  0  0  0  0  0  0  0  0  0  0  0
   -1.0237    5.4911    1.1330 C   0  0  0  0  0  0  0  0  0  0  0  0
   -2.0821    6.3384    1.1317 F   0  0  0  0  0  0  0  0  0  0  0  0
   -0.8443    4.5847    0.1127 C   0  0  0  0  0  0  0  0  0  0  0  0
    0.7661   -0.7697   -0.0758 C   0  0  0  0  0  0  0  0  0  0  0  0
    2.0357   -1.0241   -0.2417 O   0  0  0  0  0  0  0  0  0  0  0  0
    2.5365   -2.2127    0.0224 C   0  0  0  0  0  0  0  0  0  0  0  0
    3.9239   -2.4142   -0.1859 N   0  0  0  0  0  0  0  0  0  0  0  0
    4.7904   -1.3044   -0.6149 C   0  0  0  0  0  0  0  0  0  0  0  0
    6.0929   -1.5076    0.1588 C   0  0  0  0  0  0  0  0  0  0  0  0
    5.8109   -2.1592    1.3524 O   0  0  0  0  0  0  0  0  0  0  0  0
    5.5396   -3.5080    1.1794 C   0  0  0  0  0  0  0  0  0  0  0  0
    4.6042   -3.6756   -0.0215 C   0  0  0  0  0  0  0  0  0  0  0  0
    1.7508   -3.2458    0.4886 C   0  0  0  0  0  0  0  0  0  0  0  0
    0.4036   -3.0248    0.6820 C   0  0  0  0  0  0  0  0  0  0  0  0
   -0.3702   -3.9349    1.1089 O   0  0  0  0  0  0  0  0  0  0  0  0
   -0.0799   -1.7571    0.3884 C   0  0  0  0  0  0  0  0  0  0  0  0
   -1.4328   -1.5178    0.5729 C   0  0  0  0  0  0  0  0  0  0  0  0
   -4.4444   -0.9201    0.6626 N   0  0  0  0  0  0  0  0  0  0  0  0
   -4.4430   -2.3450    0.7499 C   0  0  0  0  0  0  0  0  0  0  0  0
   -5.9156   -2.8543    0.7386 C   0  0  0  0  0  0  0  0  0  0  0  0
   -6.4914   -2.3598   -0.4104 O   0  0  0  0  0  0  0  0  0  0  0  0
   -6.6941   -0.9999   -0.2815 C   0  0  0  0  0  0  0  0  0  0  0  0
   -5.8155   -0.3393    0.7699 C   0  0  0  0  0  0  0  0  0  0  0  0
   -1.5333    1.6509   -0.3697 H   0  0  0  0  0  0  0  0  0  0  0  0
    2.0597    1.5973   -0.1583 H   0  0  0  0  0  0  0  0  0  0  0  0
    1.0135    0.4536   -2.7460 H   0  0  0  0  0  0  0  0  0  0  0  0
    2.6627    1.0717   -2.3653 H   0  0  0  0  0  0  0  0  0  0  0  0
    0.9996    2.3776   -4.0882 H   0  0  0  0  0  0  0  0  0  0  0  0
    1.9685    3.3149   -2.8514 H   0  0  0  0  0  0  0  0  0  0  0  0
   -0.4424    3.8948   -2.4985 H   0  0  0  0  0  0  0  0  0  0  0  0
   -0.7993    2.0931   -2.5401 H   0  0  0  0  0  0  0  0  0  0  0  0
    1.9625    3.1666    1.2251 H   0  0  0  0  0  0  0  0  0  0  0  0
   -0.3123    6.3122    2.9979 H   0  0  0  0  0  0  0  0  0  0  0  0
   -1.5326    4.5135   -0.7221 H   0  0  0  0  0  0  0  0  0  0  0  0
    4.3328   -0.3279   -0.4479 H   0  0  0  0  0  0  0  0  0  0  0  0
    4.9835   -1.4897   -1.7026 H   0  0  0  0  0  0  0  0  0  0  0  0
    6.6003   -0.5433    0.3517 H   0  0  0  0  0  0  0  0  0  0  0  0
    6.7631   -2.1451   -0.4742 H   0  0  0  0  0  0  0  0  0  0  0  0
    6.4517   -4.1014    0.9355 H   0  0  0  0  0  0  0  0  0  0  0  0
    5.1292   -3.9071    2.1073 H   0  0  0  0  0  0  0  0  0  0  0  0
    5.2128   -3.8099   -0.9544 H   0  0  0  0  0  0  0  0  0  0  0  0
    3.9454   -4.5381    0.0592 H   0  0  0  0  0  0  0  0  0  0  0  0
    2.1091   -4.2322    0.7208 H   0  0  0  0  0  0  0  0  0  0  0  0
   -2.0021   -2.3296    0.9381 H   0  0  0  0  0  0  0  0  0  0  0  0
   -4.0771   -2.7478    1.7316 H   0  0  0  0  0  0  0  0  0  0  0  0
   -4.0094   -2.8298   -0.1365 H   0  0  0  0  0  0  0  0  0  0  0  0
   -5.8059   -3.9711    0.6544 H   0  0  0  0  0  0  0  0  0  0  0  0
   -6.4270   -2.5931    1.6792 H   0  0  0  0  0  0  0  0  0  0  0  0
   -7.7615   -0.8176   -0.1194 H   0  0  0  0  0  0  0  0  0  0  0  0
   -6.4170   -0.5165   -1.2581 H   0  0  0  0  0  0  0  0  0  0  0  0
   -5.7454    0.7096    0.5020 H   0  0  0  0  0  0  0  0  0  0  0  0
   -6.2460   -0.5669    1.7518 H   0  0  0  0  0  0  0  0  0  0  0  0
  1  2  2  0
  2  3  1  0
  3  4  2  0
  4  5  1  0
  5  6  1  0
  6  7  1  0
  7  8  1  0
  8  9  1  0
  9 10  1  0
 10 11  1  0
 11 12  2  0
 12 13  1  0
 13 14  1  0
 13 15  2  0
 15 16  1  0
 16 17  1  0
 16 18  2  0
  5 19  2  0
 19 20  1  0
 20 21  1  0
 21 22  1  0
 22 23  1  0
 23 24  1  0
 24 25  1  0
 25 26  1  0
 26 27  1  0
 21 28  2  0
 28 29  1  0
 29 30  2  0
 29 31  1  0
 31 32  2  0
  2 33  1  0
 33 34  1  0
 34 35  1  0
 35 36  1  0
 36 37  1  0
 37 38  1  0
 32  3  1  0
 38 33  1  0
 10  6  1  0
 18 11  1  0
 31 19  1  0
 27 22  1  0
  4 39  1  0
  6 40  1  1
  7 41  1  0
  7 42  1  0
  8 43  1  0
  8 44  1  0
  9 45  1  0
  9 46  1  0
 12 47  1  0
 15 48  1  0
 18 49  1  0
 23 50  1  0
 23 51  1  0
 24 52  1  0
 24 53  1  0
 26 54  1  0
 26 55  1  0
 27 56  1  0
 27 57  1  0
 28 58  1  0
 32 59  1  0
 34 60  1  0
 34 61  1  0
 35 62  1  0
 35 63  1  0
 37 64  1  0
 37 65  1  0
 38 66  1  0
 38 67  1  0
M  END
$$$$
