
     RDKit          3D

 57 61  0  0  0  0  0  0  0  0999 V2000
   -6.0653    2.2147    1.3194 O   0  0  0  0  0  0  0  0  0  0  0  0
   -6.9882    1.4710    0.9656 C   0  0  0  0  0  0  0  0  0  0  0  0
   -8.3670    1.8453    1.1059 N   0  0  0  0  0  0  0  0  0  0  0  0
   -9.1839    0.7624    0.6823 C   0  0  0  0  0  0  0  0  0  0  0  0
   -8.2406   -0.2320    0.1592 C   0  0  0  0  0  0  0  0  0  0  0  0
   -8.5320   -1.4279   -0.4692 C   0  0  0  0  0  0  0  0  0  0  0  0
   -7.5020   -2.2125   -0.8756 C   0  0  0  0  0  0  0  0  0  0  0  0
   -6.2350   -1.8254   -0.6646 C   0  0  0  0  0  0  0  0  0  0  0  0
   -5.8848   -0.6168   -0.0271 C   0  0  0  0  0  0  0  0  0  0  0  0
   -4.4623   -0.3251    0.0955 C   0  0  0  0  0  0  0  0  0  0  0  0
   -3.4914   -0.8402   -0.8087 C   0  0  0  0  0  0  0  0  0  0  0  0
   -2.2514   -0.3536   -0.5085 C   0  0  0  0  0  0  0  0  0  0  0  0
   -0.9763   -0.4964   -1.0193 C   0  0  0  0  0  0  0  0  0  0  0  0
    0.1199    0.1447   -0.4861 C   0  0  0  0  0  0  0  0  0  0  0  0
    1.3830   -0.0284   -1.0324 O   0  0  0  0  0  0  0  0  0  0  0  0
    2.5207    0.5998   -0.5263 C   0  0  0  0  0  0  0  0  0  0  0  0
    3.7238    0.1886   -1.3601 C   0  0  0  0  0  0  0  0  0  0  0  0
    4.9903    0.8420   -0.8547 C   0  0  0  0  0  0  0  0  0  0  0  0
    5.2796    0.4844    0.5149 N   0  0  0  0  0  0  0  0  0  0  0  0
    6.4902    1.1412    0.9179 C   0  0  0  0  0  0  0  0  0  0  0  0
    7.6945    0.7504    0.1230 C   0  0  0  0  0  0  0  0  0  0  0  0
    7.8556   -0.7290   -0.0403 C   0  0  0  0  0  0  0  0  0  0  0  0
    8.6542   -1.2649    0.9879 O   0  0  0  0  0  0  0  0  0  0  0  0
    6.5694   -1.4718   -0.2039 C   0  0  0  0  0  0  0  0  0  0  0  0
    5.4672   -0.9404    0.6833 C   0  0  0  0  0  0  0  0  0  0  0  0
   -0.0703    0.9643    0.6064 C   0  0  0  0  0  0  0  0  0  0  0  0
   -1.3546    1.1170    1.1322 C   0  0  0  0  0  0  0  0  0  0  0  0
   -2.4331    0.4633    0.5784 C   0  0  0  0  0  0  0  0  0  0  0  0
   -3.7707    0.4439    0.8995 N   0  0  0  0  0  0  0  0  0  0  0  0
   -6.9167    0.1643    0.3731 C   0  0  0  0  0  0  0  0  0  0  0  0
   -8.7196    2.7523    1.4566 H   0  0  0  0  0  0  0  0  0  0  0  0
   -9.7542    0.2956    1.5116 H   0  0  0  0  0  0  0  0  0  0  0  0
   -9.8950    1.0367   -0.1348 H   0  0  0  0  0  0  0  0  0  0  0  0
   -9.5696   -1.7202   -0.6274 H   0  0  0  0  0  0  0  0  0  0  0  0
   -7.7428   -3.1596   -1.3751 H   0  0  0  0  0  0  0  0  0  0  0  0
   -5.4190   -2.4638   -0.9937 H   0  0  0  0  0  0  0  0  0  0  0  0
   -3.7279   -1.5109   -1.6019 H   0  0  0  0  0  0  0  0  0  0  0  0
   -0.8263   -1.1323   -1.8675 H   0  0  0  0  0  0  0  0  0  0  0  0
    2.4502    1.7123   -0.6323 H   0  0  0  0  0  0  0  0  0  0  0  0
    2.6917    0.4168    0.5522 H   0  0  0  0  0  0  0  0  0  0  0  0
    3.5819    0.5410   -2.4024 H   0  0  0  0  0  0  0  0  0  0  0  0
    3.7622   -0.9022   -1.3730 H   0  0  0  0  0  0  0  0  0  0  0  0
    5.8021    0.5981   -1.5551 H   0  0  0  0  0  0  0  0  0  0  0  0
    4.8333    1.9371   -0.8852 H   0  0  0  0  0  0  0  0  0  0  0  0
    6.4230    2.2435    0.9152 H   0  0  0  0  0  0  0  0  0  0  0  0
    6.6789    0.8512    1.9888 H   0  0  0  0  0  0  0  0  0  0  0  0
    8.5965    1.1160    0.6965 H   0  0  0  0  0  0  0  0  0  0  0  0
    7.7456    1.3014   -0.8581 H   0  0  0  0  0  0  0  0  0  0  0  0
    8.4549   -0.8895   -0.9776 H   0  0  0  0  0  0  0  0  0  0  0  0
    8.1385   -1.4211    1.8152 H   0  0  0  0  0  0  0  0  0  0  0  0
    6.2605   -1.4771   -1.2828 H   0  0  0  0  0  0  0  0  0  0  0  0
    6.7364   -2.5337    0.0744 H   0  0  0  0  0  0  0  0  0  0  0  0
    4.5692   -1.5343    0.5208 H   0  0  0  0  0  0  0  0  0  0  0  0
    5.7956   -1.1032    1.7315 H   0  0  0  0  0  0  0  0  0  0  0  0
    0.7568    1.4869    1.0581 H   0  0  0  0  0  0  0  0  0  0  0  0
   -1.5289    1.7498    1.9825 H   0  0  0  0  0  0  0  0  0  0  0  0
   -4.1168    0.9768    1.7391 H   0  0  0  0  0  0  0  0  0  0  0  0
  1  2  2  0
  2  3  1  0
  3  4  1  0
  4  5  1  0
  5  6  2  0
  6  7  1  0
  7  8  2  0
  8  9  1  0
  9 10  1  0
 10 11  2  0
 11 12  1  0
 12 13  2  0
 13 14  1  0
 14 15  1  0
 15 16  1  0
 16 17  1  0
 17 18  1  0
 18 19  1  0
 19 20  1  0
 20 21  1  0
 21 22  1  0
 22 23  1  0
 22 24  1  0
 24 25  1  0
 14 26  2  0
 26 27  1  0
 27 28  2  0
 28 29  1  0
  9 30  2  0
 30  2  1  0
 30  5  1  0
 29 10  1  0
 28 12  1  0
 25 19  1  0
  3 31  1  0
  4 32  1  0
  4 33  1  0
  6 34  1  0
  7 35  1  0
  8 36  1  0
 11 37  1  0
 13 38  1  0
 16 39  1  0
 16 40  1  0
 17 41  1  0
 17 42  1  0
 18 43  1  0
 18 44  1  0
 20 45  1  0
 20 46  1  0
 21 47  1  0
 21 48  1  0
 22 49  1  0
 23 50  1  0
 24 51  1  0
 24 52  1  0
 25 53  1  0
 25 54  1  0
 26 55  1  0
 27 56  1  0
 29 57  1  0
M  END
$$$$
