@<TRIPOS>MOLECULE
*****
 57 61 0 0 0
SMALL
GASTEIGER

@<TRIPOS>ATOM
      1 O          -6.0653    2.2147    1.3194 O.2     1  UNL1       -0.2702
      2 C          -6.9882    1.4710    0.9656 C.2     1  UNL1        0.2453
      3 N          -8.3670    1.8453    1.1059 N.am    1  UNL1       -0.3072
      4 C          -9.1839    0.7624    0.6823 C.3     1  UNL1        0.0379
      5 C          -8.2406   -0.2320    0.1592 C.ar    1  UNL1       -0.0176
      6 C          -8.5320   -1.4279   -0.4692 C.ar    1  UNL1       -0.0563
      7 C          -7.5020   -2.2125   -0.8756 C.ar    1  UNL1       -0.0608
      8 C          -6.2350   -1.8254   -0.6646 C.ar    1  UNL1       -0.0519
      9 C          -5.8848   -0.6168   -0.0271 C.ar    1  UNL1        0.0107
     10 C          -4.4623   -0.3251    0.0955 C.ar    1  UNL1        0.0482
     11 C          -3.4914   -0.8402   -0.8087 C.ar    1  UNL1       -0.0285
     12 C          -2.2514   -0.3536   -0.5085 C.ar    1  UNL1        0.0037
     13 C          -0.9763   -0.4964   -1.0193 C.ar    1  UNL1       -0.0108
     14 C           0.1199    0.1447   -0.4861 C.ar    1  UNL1        0.1212
     15 O           1.3830   -0.0284   -1.0324 O.3     1  UNL1       -0.4919
     16 C           2.5207    0.5998   -0.5263 C.3     1  UNL1        0.0907
     17 C           3.7238    0.1886   -1.3601 C.3     1  UNL1       -0.0058
     18 C           4.9903    0.8420   -0.8547 C.3     1  UNL1        0.0020
     19 N           5.2796    0.4844    0.5149 N.3     1  UNL1       -0.3020
     20 C           6.4902    1.1412    0.9179 C.3     1  UNL1        0.0012
     21 C           7.6945    0.7504    0.1230 C.3     1  UNL1       -0.0140
     22 C           7.8556   -0.7290   -0.0403 C.3     1  UNL1        0.0576
     23 O           8.6542   -1.2649    0.9879 O.3     1  UNL1       -0.3917
     24 C           6.5694   -1.4718   -0.2039 C.3     1  UNL1       -0.0140
     25 C           5.4672   -0.9404    0.6833 C.3     1  UNL1        0.0012
     26 C          -0.0703    0.9643    0.6064 C.ar    1  UNL1       -0.0180
     27 C          -1.3546    1.1170    1.1322 C.ar    1  UNL1       -0.0343
     28 C          -2.4331    0.4633    0.5784 C.ar    1  UNL1        0.0471
     29 N          -3.7707    0.4439    0.8995 N.ar    1  UNL1       -0.3541
     30 C          -6.9167    0.1643    0.3731 C.ar    1  UNL1        0.0504
     31 H          -8.7196    2.7523    1.4566 H       1  UNL1        0.1493
     32 H          -9.7542    0.2956    1.5116 H       1  UNL1        0.0512
     33 H          -9.8950    1.0367   -0.1348 H       1  UNL1        0.0512
     34 H          -9.5696   -1.7202   -0.6274 H       1  UNL1        0.0621
     35 H          -7.7428   -3.1596   -1.3751 H       1  UNL1        0.0618
     36 H          -5.4190   -2.4638   -0.9937 H       1  UNL1        0.0624
     37 H          -3.7279   -1.5109   -1.6019 H       1  UNL1        0.0645
     38 H          -0.8263   -1.1323   -1.8675 H       1  UNL1        0.0661
     39 H           2.4502    1.7123   -0.6323 H       1  UNL1        0.0697
     40 H           2.6917    0.4168    0.5522 H       1  UNL1        0.0697
     41 H           3.5819    0.5410   -2.4024 H       1  UNL1        0.0310
     42 H           3.7622   -0.9022   -1.3730 H       1  UNL1        0.0310
     43 H           5.8021    0.5981   -1.5551 H       1  UNL1        0.0428
     44 H           4.8333    1.9371   -0.8852 H       1  UNL1        0.0428
     45 H           6.4230    2.2435    0.9152 H       1  UNL1        0.0427
     46 H           6.6789    0.8512    1.9888 H       1  UNL1        0.0427
     47 H           8.5965    1.1160    0.6965 H       1  UNL1        0.0302
     48 H           7.7456    1.3014   -0.8581 H       1  UNL1        0.0302
     49 H           8.4549   -0.8895   -0.9776 H       1  UNL1        0.0594
     50 H           8.1385   -1.4211    1.8152 H       1  UNL1        0.2098
     51 H           6.2605   -1.4771   -1.2828 H       1  UNL1        0.0302
     52 H           6.7364   -2.5337    0.0744 H       1  UNL1        0.0302
     53 H           4.5692   -1.5343    0.5208 H       1  UNL1        0.0427
     54 H           5.7956   -1.1032    1.7315 H       1  UNL1        0.0427
     55 H           0.7568    1.4869    1.0581 H       1  UNL1        0.0655
     56 H          -1.5289    1.7498    1.9825 H       1  UNL1        0.0639
     57 H          -4.1168    0.9768    1.7391 H       1  UNL1        0.1659
@<TRIPOS>BOND
     1     1     2    2
     2     2     3   am
     3     3     4    1
     4     4     5    1
     5     5     6   ar
     6     6     7   ar
     7     7     8   ar
     8     8     9   ar
     9     9    10    1
    10    10    11   ar
    11    11    12   ar
    12    12    13   ar
    13    13    14   ar
    14    14    15    1
    15    15    16    1
    16    16    17    1
    17    17    18    1
    18    18    19    1
    19    19    20    1
    20    20    21    1
    21    21    22    1
    22    22    23    1
    23    22    24    1
    24    24    25    1
    25    14    26   ar
    26    26    27   ar
    27    27    28   ar
    28    28    29   ar
    29     9    30   ar
    30    30     2    1
    31    30     5   ar
    32    29    10   ar
    33    28    12   ar
    34    25    19    1
    35     3    31    1
    36     4    32    1
    37     4    33    1
    38     6    34    1
    39     7    35    1
    40     8    36    1
    41    11    37    1
    42    13    38    1
    43    16    39    1
    44    16    40    1
    45    17    41    1
    46    17    42    1
    47    18    43    1
    48    18    44    1
    49    20    45    1
    50    20    46    1
    51    21    47    1
    52    21    48    1
    53    22    49    1
    54    23    50    1
    55    24    51    1
    56    24    52    1
    57    25    53    1
    58    25    54    1
    59    26    55    1
    60    27    56    1
    61    29    57    1
