@<TRIPOS>MOLECULE
*****
 55 56 0 0 0
SMALL
GASTEIGER

@<TRIPOS>ATOM
      1 O           2.6820    1.6803    2.1741 O.2     0  UNK0       -0.2737
      2 C           3.0732    2.3901    1.2152 C.2     0  UNK0        0.2362
      3 C           2.8821    1.9848   -0.1847 C.3     0  UNK0        0.0373
      4 C           2.2066    0.6657   -0.3621 C.3     0  UNK0        0.0478
      5 C           2.9226   -0.4976    0.2361 C.3     0  UNK0       -0.0161
      6 C           4.2647   -0.7169   -0.3094 C.ar    0  UNK0       -0.0466
      7 C           5.3465   -0.1243    0.2966 C.ar    0  UNK0       -0.0586
      8 C           6.6000   -0.3504   -0.2494 C.ar    0  UNK0       -0.0615
      9 C           6.7776   -1.1410   -1.3637 C.ar    0  UNK0       -0.0617
     10 C           5.7073   -1.7347   -1.9731 C.ar    0  UNK0       -0.0615
     11 C           4.4553   -1.5169   -1.4389 C.ar    0  UNK0       -0.0586
     12 C           0.7870    0.7476    0.0988 C.2     0  UNK0        0.2175
     13 O           0.3503    1.8345    0.5536 O.2     0  UNK0       -0.2755
     14 N          -0.0941   -0.3539    0.0452 N.am    1  PHE1       -0.3021
     15 CA         -1.5074   -0.2857    0.5003 C.3     1  PHE1        0.1205
     16 CB         -2.4008   -0.3907   -0.6551 C.3     1  PHE1       -0.0213
     17 CG         -3.8417   -0.4002   -0.4144 C.3     1  PHE1       -0.0388
     18 CD1        -4.4585   -1.5502    0.3099 C.3     1  PHE1       -0.0501
     19 CE1        -5.6362   -0.9900    1.1216 C.3     1  PHE1       -0.0528
     20 CZ         -6.3775    0.0203    0.2564 C.3     1  PHE1       -0.0530
     21 CE2        -6.1385   -0.2015   -1.2160 C.3     1  PHE1       -0.0528
     22 CD2        -4.7039   -0.1167   -1.6413 C.3     1  PHE1       -0.0501
     23 C          -1.6851   -1.0941    1.6692 C.2     1  PHE1        0.3253
     24 O          -2.6264   -1.0596    2.5188 O.2     1  PHE1       -0.2489
     25 OXT        -0.6919   -2.0742    1.9402 O.3     1  PHE1       -0.4793
     26 N           3.7228    3.6279    1.5196 N.am    0  UNK0       -0.1975
     27 O           3.9022    4.0077    2.8037 O.3     0  UNK0       -0.2952
     28 H           3.8480    1.9843   -0.7292 H       0  UNK0        0.0366
     29 H           2.2483    2.7425   -0.7314 H       0  UNK0        0.0366
     30 H           2.1621    0.4864   -1.4748 H       0  UNK0        0.0402
     31 H           2.8966   -0.4758    1.3450 H       0  UNK0        0.0321
     32 H           2.3044   -1.4102   -0.0248 H       0  UNK0        0.0321
     33 H           5.2548    0.5139    1.1905 H       0  UNK0        0.0620
     34 H           7.4412    0.1275    0.2451 H       0  UNK0        0.0618
     35 H           7.7777   -1.2965   -1.7655 H       0  UNK0        0.0618
     36 H           5.8530   -2.3630   -2.8591 H       0  UNK0        0.0618
     37 H           3.6174   -1.9983   -1.9392 H       0  UNK0        0.0620
     38 H           0.2650   -1.2531   -0.3303 H       1  PHE1        0.1495
     39 HA         -1.5799    0.8072    0.8464 H       1  PHE1        0.0614
     40 HB1        -2.1571   -1.3795   -1.2046 H       1  PHE1        0.0291
     41 HB2        -2.1059    0.3561   -1.4633 H       1  PHE1        0.0291
     42 HG         -4.0781    0.5168    0.2710 H       1  PHE1        0.0301
     43 HD11       -3.8392   -2.2594    0.8109 H       1  PHE1        0.0268
     44 HD12       -5.0451   -2.1354   -0.5258 H       1  PHE1        0.0268
     45 HE11       -6.2737   -1.7630    1.5450 H       1  PHE1        0.0265
     46 HE12       -5.1929   -0.4031    1.9451 H       1  PHE1        0.0265
     47 HZ1        -7.4600   -0.1335    0.4299 H       1  PHE1        0.0265
     48 HZ2        -6.1430    1.0632    0.5170 H       1  PHE1        0.0265
     49 HE21       -6.6681    0.6549   -1.7295 H       1  PHE1        0.0265
     50 HE22       -6.6631   -1.1098   -1.6005 H       1  PHE1        0.0265
     51 HD21       -4.4052    0.8481   -2.0633 H       1  PHE1        0.0268
     52 HD22       -4.4616   -0.9436   -2.3603 H       1  PHE1        0.0268
     53 HXT        -0.8374   -2.7620    2.6588 H       1  PHE1        0.2951
     54 H           4.0732    4.2670    0.7739 H       0  UNK0        0.1822
     55 H           3.6504    4.9579    2.9442 H       0  UNK0        0.2414
@<TRIPOS>BOND
     1     1     2    2
     2     2     3    1
     3     3     4    1
     4     4     5    1
     5     5     6    1
     6     6     7   ar
     7     7     8   ar
     8     8     9   ar
     9     9    10   ar
    10    10    11   ar
    11     4    12    1
    12    12    13    2
    13    12    14   am
    14    14    15    1
    15    15    16    1
    16    16    17    1
    17    17    18    1
    18    18    19    1
    19    19    20    1
    20    20    21    1
    21    21    22    1
    22    15    23    1
    23    23    24    2
    24    23    25    1
    25     2    26   am
    26    26    27    1
    27    11     6   ar
    28    22    17    1
    29     3    28    1
    30     3    29    1
    31     4    30    1
    32     5    31    1
    33     5    32    1
    34     7    33    1
    35     8    34    1
    36     9    35    1
    37    10    36    1
    38    11    37    1
    39    14    38    1
    40    15    39    1
    41    16    40    1
    42    16    41    1
    43    17    42    1
    44    18    43    1
    45    18    44    1
    46    19    45    1
    47    19    46    1
    48    20    47    1
    49    20    48    1
    50    21    49    1
    51    21    50    1
    52    22    51    1
    53    22    52    1
    54    25    53    1
    55    26    54    1
    56    27    55    1
