
     RDKit          3D

 55 56  0  0  0  0  0  0  0  0999 V2000
    2.6820    1.6803    2.1741 O   0  0  0  0  0  0  0  0  0  0  0  0
    3.0732    2.3901    1.2152 C   0  0  0  0  0  0  0  0  0  0  0  0
    2.8821    1.9848   -0.1847 C   0  0  0  0  0  0  0  0  0  0  0  0
    2.2066    0.6657   -0.3621 C   0  0  1  0  0  0  0  0  0  0  0  0
    2.9226   -0.4976    0.2361 C   0  0  0  0  0  0  0  0  0  0  0  0
    4.2647   -0.7169   -0.3094 C   0  0  0  0  0  0  0  0  0  0  0  0
    5.3465   -0.1243    0.2966 C   0  0  0  0  0  0  0  0  0  0  0  0
    6.6000   -0.3504   -0.2494 C   0  0  0  0  0  0  0  0  0  0  0  0
    6.7776   -1.1410   -1.3637 C   0  0  0  0  0  0  0  0  0  0  0  0
    5.7073   -1.7347   -1.9731 C   0  0  0  0  0  0  0  0  0  0  0  0
    4.4553   -1.5169   -1.4389 C   0  0  0  0  0  0  0  0  0  0  0  0
    0.7870    0.7476    0.0988 C   0  0  0  0  0  0  0  0  0  0  0  0
    0.3503    1.8345    0.5536 O   0  0  0  0  0  0  0  0  0  0  0  0
   -0.0941   -0.3539    0.0452 N   0  0  0  0  0  0  0  0  0  0  0  0
   -1.5074   -0.2857    0.5003 C   0  0  1  0  0  0  0  0  0  0  0  0
   -2.4008   -0.3907   -0.6551 C   0  0  0  0  0  0  0  0  0  0  0  0
   -3.8417   -0.4002   -0.4144 C   0  0  0  0  0  0  0  0  0  0  0  0
   -4.4585   -1.5502    0.3099 C   0  0  0  0  0  0  0  0  0  0  0  0
   -5.6362   -0.9900    1.1216 C   0  0  0  0  0  0  0  0  0  0  0  0
   -6.3775    0.0203    0.2564 C   0  0  0  0  0  0  0  0  0  0  0  0
   -6.1385   -0.2015   -1.2160 C   0  0  0  0  0  0  0  0  0  0  0  0
   -4.7039   -0.1167   -1.6413 C   0  0  0  0  0  0  0  0  0  0  0  0
   -1.6851   -1.0941    1.6692 C   0  0  0  0  0  0  0  0  0  0  0  0
   -2.6264   -1.0596    2.5188 O   0  0  0  0  0  0  0  0  0  0  0  0
   -0.6919   -2.0742    1.9402 O   0  0  0  0  0  0  0  0  0  0  0  0
    3.7228    3.6279    1.5196 N   0  0  0  0  0  0  0  0  0  0  0  0
    3.9022    4.0077    2.8037 O   0  0  0  0  0  0  0  0  0  0  0  0
    3.8480    1.9843   -0.7292 H   0  0  0  0  0  0  0  0  0  0  0  0
    2.2483    2.7425   -0.7314 H   0  0  0  0  0  0  0  0  0  0  0  0
    2.1621    0.4864   -1.4748 H   0  0  0  0  0  0  0  0  0  0  0  0
    2.8966   -0.4758    1.3450 H   0  0  0  0  0  0  0  0  0  0  0  0
    2.3044   -1.4102   -0.0248 H   0  0  0  0  0  0  0  0  0  0  0  0
    5.2548    0.5139    1.1905 H   0  0  0  0  0  0  0  0  0  0  0  0
    7.4412    0.1275    0.2451 H   0  0  0  0  0  0  0  0  0  0  0  0
    7.7777   -1.2965   -1.7655 H   0  0  0  0  0  0  0  0  0  0  0  0
    5.8530   -2.3630   -2.8591 H   0  0  0  0  0  0  0  0  0  0  0  0
    3.6174   -1.9983   -1.9392 H   0  0  0  0  0  0  0  0  0  0  0  0
    0.2650   -1.2531   -0.3303 H   0  0  0  0  0  0  0  0  0  0  0  0
   -1.5799    0.8072    0.8464 H   0  0  0  0  0  0  0  0  0  0  0  0
   -2.1571   -1.3795   -1.2046 H   0  0  0  0  0  0  0  0  0  0  0  0
   -2.1059    0.3561   -1.4633 H   0  0  0  0  0  0  0  0  0  0  0  0
   -4.0781    0.5168    0.2710 H   0  0  0  0  0  0  0  0  0  0  0  0
   -3.8392   -2.2594    0.8109 H   0  0  0  0  0  0  0  0  0  0  0  0
   -5.0451   -2.1354   -0.5258 H   0  0  0  0  0  0  0  0  0  0  0  0
   -6.2737   -1.7630    1.5450 H   0  0  0  0  0  0  0  0  0  0  0  0
   -5.1929   -0.4031    1.9451 H   0  0  0  0  0  0  0  0  0  0  0  0
   -7.4600   -0.1335    0.4299 H   0  0  0  0  0  0  0  0  0  0  0  0
   -6.1430    1.0632    0.5170 H   0  0  0  0  0  0  0  0  0  0  0  0
   -6.6681    0.6549   -1.7295 H   0  0  0  0  0  0  0  0  0  0  0  0
   -6.6631   -1.1098   -1.6005 H   0  0  0  0  0  0  0  0  0  0  0  0
   -4.4052    0.8481   -2.0633 H   0  0  0  0  0  0  0  0  0  0  0  0
   -4.4616   -0.9436   -2.3603 H   0  0  0  0  0  0  0  0  0  0  0  0
   -0.8374   -2.7620    2.6588 H   0  0  0  0  0  0  0  0  0  0  0  0
    4.0732    4.2670    0.7739 H   0  0  0  0  0  0  0  0  0  0  0  0
    3.6504    4.9579    2.9442 H   0  0  0  0  0  0  0  0  0  0  0  0
  1  2  2  0
  2  3  1  0
  3  4  1  0
  4  5  1  0
  5  6  1  0
  6  7  2  0
  7  8  1  0
  8  9  2  0
  9 10  1  0
 10 11  2  0
  4 12  1  0
 12 13  2  0
 12 14  1  0
 14 15  1  0
 15 16  1  0
 16 17  1  0
 17 18  1  0
 18 19  1  0
 19 20  1  0
 20 21  1  0
 21 22  1  0
 15 23  1  0
 23 24  2  0
 23 25  1  0
  2 26  1  0
 26 27  1  0
 11  6  1  0
 22 17  1  0
  3 28  1  0
  3 29  1  0
  4 30  1  6
  5 31  1  0
  5 32  1  0
  7 33  1  0
  8 34  1  0
  9 35  1  0
 10 36  1  0
 11 37  1  0
 14 38  1  0
 15 39  1  1
 16 40  1  0
 16 41  1  0
 17 42  1  0
 18 43  1  0
 18 44  1  0
 19 45  1  0
 19 46  1  0
 20 47  1  0
 20 48  1  0
 21 49  1  0
 21 50  1  0
 22 51  1  0
 22 52  1  0
 25 53  1  0
 26 54  1  0
 27 55  1  0
M  END
$$$$
