@<TRIPOS>MOLECULE
*****
 61 62 0 0 0
SMALL
GASTEIGER

@<TRIPOS>ATOM
      1 C          -3.4391    2.4684    1.5698 C.3     0  UNK0       -0.0308
      2 C          -3.6865    1.0305    1.0275 C.3     0  UNK0        0.1337
      3 N          -5.0983    0.9725    0.7895 N.am    0  UNK0       -0.2907
      4 C          -5.8406   -0.1194    0.3160 C.2     0  UNK0        0.3183
      5 O          -5.2750   -1.1839    0.0567 O.2     0  UNK0       -0.2660
      6 C          -7.3299   -0.0398    0.1084 C.3     0  UNK0        0.4694
      7 F          -7.8249   -1.2274   -0.3591 F       0  UNK0       -0.1620
      8 F          -7.9430    0.1965    1.3344 F       0  UNK0       -0.1620
      9 F          -7.6256    0.9464   -0.8000 F       0  UNK0       -0.1620
     10 C          -3.2850    0.1311    2.1174 C.2     0  UNK0        0.2440
     11 O          -4.2125   -0.5787    2.6785 O.2     0  UNK0       -0.2729
     12 N          -1.9964   -0.0544    2.6365 N.am    0  UNK0       -0.2878
     13 C          -1.4227   -0.8519    3.6947 C.3     0  UNK0        0.0177
     14 C          -0.4603    0.3094    3.9044 C.3     0  UNK0       -0.0099
     15 C          -0.6732    0.4325    2.3934 C.3     0  UNK0        0.1037
     16 C           0.2477   -0.4290    1.6161 C.2     0  UNK0        0.2342
     17 O          -0.1407   -1.5588    1.2505 O.2     0  UNK0       -0.2738
     18 N           1.5589    0.0044    1.2806 N.am    1  ARG1       -0.3044
     19 CA          2.4853   -0.8143    0.5215 C.3     1  ARG1        0.0786
     20 C           3.6708   -1.1980    1.3307 C.2     1  ARG1        0.1404
     21 O           3.7332   -0.7876    2.4973 O.2     1  ARG1       -0.2991
     22 CB          2.8704   -0.1802   -0.7829 C.3     1  ARG1       -0.0249
     23 CG          3.8343   -1.0737   -1.5318 C.3     1  ARG1       -0.0166
     24 CD          4.2307   -0.4410   -2.8672 C.3     1  ARG1        0.1048
     25 NE          5.1476   -1.3254   -3.5444 N.pl3   1  ARG1       -0.1138
     26 CZ          6.3645   -1.4881   -3.2163 C.cat   1  ARG1        0.3765
     27 NH1         7.2061   -2.3750   -3.9294 N.pl3   1  ARG1       -0.2893
     28 NH2         6.8964   -0.7723   -2.1178 N.pl3   1  ARG1       -0.2893
     29 C          -2.8525    0.8452   -0.1908 C.ar    0  UNK0       -0.0156
     30 C          -2.4881    1.9893   -0.8976 C.ar    0  UNK0       -0.0561
     31 C          -1.7095    1.8895   -2.0201 C.ar    0  UNK0       -0.0614
     32 C          -1.2518    0.6804   -2.5047 C.ar    0  UNK0       -0.0617
     33 C          -1.6262   -0.4357   -1.7871 C.ar    0  UNK0       -0.0614
     34 C          -2.4079   -0.3635   -0.6552 C.ar    0  UNK0       -0.0561
     35 H          -3.7246    2.4174    2.6372 H       0  UNK0        0.0258
     36 H          -4.1794    3.1601    1.0729 H       0  UNK0        0.0258
     37 H          -2.4130    2.7789    1.4120 H       0  UNK0        0.0258
     38 H          -5.6901    1.8452    0.9838 H       0  UNK0        0.1503
     39 H          -2.0684   -1.0066    4.5809 H       0  UNK0        0.0465
     40 H          -1.0055   -1.7971    3.3726 H       0  UNK0        0.0465
     41 H          -0.9666    1.1421    4.4043 H       0  UNK0        0.0303
     42 H           0.5457    0.0491    4.2154 H       0  UNK0        0.0303
     43 H          -0.5454    1.4728    2.0533 H       0  UNK0        0.0597
     44 H           1.8180    0.9632    1.6195 H       1  ARG1        0.1494
     45 HA          1.9484   -1.7688    0.2925 H       1  ARG1        0.0574
     46 H           4.4319   -1.8064    0.9055 H       1  ARG1        0.1046
     47 HB1         3.4583    0.7440   -0.5223 H       1  ARG1        0.0288
     48 HB2         2.0043    0.0550   -1.4188 H       1  ARG1        0.0288
     49 HG1         3.4630   -2.0803   -1.7109 H       1  ARG1        0.0298
     50 HG2         4.8078   -1.1669   -0.9776 H       1  ARG1        0.0298
     51 HD1         3.3204   -0.3779   -3.4939 H       1  ARG1        0.0693
     52 HD2         4.6622    0.5650   -2.7036 H       1  ARG1        0.0693
     53 HH11        8.1491   -2.6666   -3.5906 H       1  ARG1        0.2546
     54 HH12        6.9239   -2.7982   -4.8569 H       1  ARG1        0.2546
     55 HH21        6.9249    0.2619   -2.1054 H       1  ARG1        0.2546
     56 HH22        7.2858   -1.2645   -1.2665 H       1  ARG1        0.2546
     57 H          -2.8266    2.9785   -0.5583 H       0  UNK0        0.0621
     58 H          -1.4275    2.8004   -2.5704 H       0  UNK0        0.0618
     59 H          -0.6383    0.6194   -3.3921 H       0  UNK0        0.0618
     60 H          -1.2724   -1.3946   -2.1578 H       0  UNK0        0.0618
     61 H          -2.6424   -1.2736   -0.1440 H       0  UNK0        0.0621
@<TRIPOS>BOND
     1     1     2    1
     2     2     3    1
     3     3     4   am
     4     4     5    2
     5     4     6    1
     6     6     7    1
     7     6     8    1
     8     6     9    1
     9     2    10    1
    10    10    11    2
    11    10    12   am
    12    12    13    1
    13    13    14    1
    14    14    15    1
    15    15    16    1
    16    16    17    2
    17    16    18   am
    18    18    19    1
    19    19    20    1
    20    20    21    2
    21    19    22    1
    22    22    23    1
    23    23    24    1
    24    24    25    1
    25    25    26    2
    26    26    27    1
    27    26    28    1
    28     2    29    1
    29    29    30   ar
    30    30    31   ar
    31    31    32   ar
    32    32    33   ar
    33    33    34   ar
    34    15    12    1
    35    34    29   ar
    36     1    35    1
    37     1    36    1
    38     1    37    1
    39     3    38    1
    40    13    39    1
    41    13    40    1
    42    14    41    1
    43    14    42    1
    44    15    43    1
    45    18    44    1
    46    19    45    1
    47    20    46    1
    48    22    47    1
    49    22    48    1
    50    23    49    1
    51    23    50    1
    52    24    51    1
    53    24    52    1
    54    27    53    1
    55    27    54    1
    56    28    55    1
    57    28    56    1
    58    30    57    1
    59    31    58    1
    60    32    59    1
    61    33    60    1
    62    34    61    1
