
     RDKit          3D

 59 62  0  0  0  0  0  0  0  0999 V2000
   -3.9259    5.8223    0.0188 C   0  0  0  0  0  0  0  0  0  0  0  0
   -4.8274    4.6512   -0.1910 C   0  0  0  0  0  0  0  0  0  0  0  0
   -4.1619    3.4029   -0.0771 O   0  0  0  0  0  0  0  0  0  0  0  0
   -4.9269    2.2662   -0.2579 C   0  0  0  0  0  0  0  0  0  0  0  0
   -6.1556    2.3529   -0.5111 O   0  0  0  0  0  0  0  0  0  0  0  0
   -4.3075    0.9351   -0.1552 C   0  0  0  0  0  0  0  0  0  0  0  0
   -2.9811    0.6784    0.1151 C   0  0  0  0  0  0  0  0  0  0  0  0
   -2.8434   -0.6856    0.1172 C   0  0  0  0  0  0  0  0  0  0  0  0
   -1.6322   -1.4335    0.3540 C   0  0  0  0  0  0  0  0  0  0  0  0
   -1.6538   -2.5259    1.1902 C   0  0  0  0  0  0  0  0  0  0  0  0
   -0.5242   -3.2698    1.4463 C   0  0  0  0  0  0  0  0  0  0  0  0
    0.6566   -2.8958    0.8387 C   0  0  0  0  0  0  0  0  0  0  0  0
    0.6944   -1.8069    0.0008 C   0  0  0  0  0  0  0  0  0  0  0  0
    1.8637   -1.4053   -0.6247 O   0  0  0  0  0  0  0  0  0  0  0  0
    2.7509   -0.4981   -0.0625 C   0  0  0  0  0  0  0  0  0  0  0  0
    2.5099   -0.0010    1.0641 O   0  0  0  0  0  0  0  0  0  0  0  0
    3.9314   -0.1184   -0.7382 N   0  0  0  0  0  0  0  0  0  0  0  0
    4.9046    0.8141   -0.2294 C   0  0  0  0  0  0  0  0  0  0  0  0
    5.1480    1.8510   -1.2943 C   0  0  0  0  0  0  0  0  0  0  0  0
    6.2273    2.8292   -0.9399 C   0  0  0  0  0  0  0  0  0  0  0  0
    7.4762    2.1842   -0.4216 C   0  0  0  0  0  0  0  0  0  0  0  0
    7.2286    1.0072    0.4629 C   0  0  0  0  0  0  0  0  0  0  0  0
    6.2201    0.0402   -0.0739 C   0  0  0  0  0  0  0  0  0  0  0  0
   -0.4445   -1.0734   -0.2449 C   0  0  0  0  0  0  0  0  0  0  0  0
   -4.0530   -1.2388   -0.1445 N   0  0  0  0  0  0  0  0  0  0  0  0
   -4.3084   -2.6354   -0.2246 C   0  0  0  0  0  0  0  0  0  0  0  0
   -5.3590   -3.2044    0.4643 C   0  0  0  0  0  0  0  0  0  0  0  0
   -5.5968   -4.5584    0.3792 C   0  0  0  0  0  0  0  0  0  0  0  0
   -4.8015   -5.3736   -0.3873 C   0  0  0  0  0  0  0  0  0  0  0  0
   -5.1249   -7.0872   -0.4780 Cl  0  0  0  0  0  0  0  0  0  0  0  0
   -3.7418   -4.8232   -1.0868 C   0  0  0  0  0  0  0  0  0  0  0  0
   -3.5124   -3.4709   -0.9956 C   0  0  0  0  0  0  0  0  0  0  0  0
   -4.9266   -0.2408   -0.3064 N   0  0  0  0  0  0  0  0  0  0  0  0
   -4.0969    6.1855    1.0699 H   0  0  0  0  0  0  0  0  0  0  0  0
   -4.2285    6.6902   -0.6306 H   0  0  0  0  0  0  0  0  0  0  0  0
   -2.8669    5.6376   -0.1649 H   0  0  0  0  0  0  0  0  0  0  0  0
   -5.6854    4.6245    0.5263 H   0  0  0  0  0  0  0  0  0  0  0  0
   -5.2323    4.7001   -1.2263 H   0  0  0  0  0  0  0  0  0  0  0  0
   -2.2250    1.4486    0.2869 H   0  0  0  0  0  0  0  0  0  0  0  0
   -2.5667   -2.8545    1.6900 H   0  0  0  0  0  0  0  0  0  0  0  0
   -0.5375   -4.1307    2.1043 H   0  0  0  0  0  0  0  0  0  0  0  0
    1.5958   -3.4350    0.9914 H   0  0  0  0  0  0  0  0  0  0  0  0
    4.1226   -0.5393   -1.6776 H   0  0  0  0  0  0  0  0  0  0  0  0
    4.6559    1.2206    0.7499 H   0  0  0  0  0  0  0  0  0  0  0  0
    5.4083    1.3149   -2.2224 H   0  0  0  0  0  0  0  0  0  0  0  0
    4.2024    2.4194   -1.4165 H   0  0  0  0  0  0  0  0  0  0  0  0
    5.8744    3.6433   -0.2684 H   0  0  0  0  0  0  0  0  0  0  0  0
    6.5112    3.3510   -1.8984 H   0  0  0  0  0  0  0  0  0  0  0  0
    8.1782    1.9078   -1.2503 H   0  0  0  0  0  0  0  0  0  0  0  0
    8.0217    2.9543    0.1791 H   0  0  0  0  0  0  0  0  0  0  0  0
    8.2008    0.4440    0.5532 H   0  0  0  0  0  0  0  0  0  0  0  0
    6.9327    1.2878    1.4901 H   0  0  0  0  0  0  0  0  0  0  0  0
    6.0545   -0.7559    0.6546 H   0  0  0  0  0  0  0  0  0  0  0  0
    6.5061   -0.3269   -1.0854 H   0  0  0  0  0  0  0  0  0  0  0  0
   -0.3956   -0.2103   -0.9143 H   0  0  0  0  0  0  0  0  0  0  0  0
   -6.0005   -2.5844    1.0753 H   0  0  0  0  0  0  0  0  0  0  0  0
   -6.4273   -4.9814    0.9291 H   0  0  0  0  0  0  0  0  0  0  0  0
   -3.1169   -5.4768   -1.6917 H   0  0  0  0  0  0  0  0  0  0  0  0
   -2.6877   -3.0229   -1.5361 H   0  0  0  0  0  0  0  0  0  0  0  0
  1  2  1  0
  2  3  1  0
  3  4  1  0
  4  5  2  0
  4  6  1  0
  6  7  1  0
  7  8  2  0
  8  9  1  0
  9 10  2  0
 10 11  1  0
 11 12  2  0
 12 13  1  0
 13 14  1  0
 14 15  1  0
 15 16  2  0
 15 17  1  0
 17 18  1  0
 18 19  1  0
 19 20  1  0
 20 21  1  0
 21 22  1  0
 22 23  1  0
 13 24  2  0
  8 25  1  0
 25 26  1  0
 26 27  2  0
 27 28  1  0
 28 29  2  0
 29 30  1  0
 29 31  1  0
 31 32  2  0
 25 33  1  0
 33  6  2  0
 24  9  1  0
 32 26  1  0
 23 18  1  0
  1 34  1  0
  1 35  1  0
  1 36  1  0
  2 37  1  0
  2 38  1  0
  7 39  1  0
 10 40  1  0
 11 41  1  0
 12 42  1  0
 17 43  1  0
 18 44  1  0
 19 45  1  0
 19 46  1  0
 20 47  1  0
 20 48  1  0
 21 49  1  0
 21 50  1  0
 22 51  1  0
 22 52  1  0
 23 53  1  0
 23 54  1  0
 24 55  1  0
 27 56  1  0
 28 57  1  0
 31 58  1  0
 32 59  1  0
M  END
$$$$
