@<TRIPOS>MOLECULE
*****
 59 62 0 0 0
SMALL
GASTEIGER

@<TRIPOS>ATOM
      1 C          -3.9259    5.8223    0.0188 C.3     1  UNL1       -0.0306
      2 C          -4.8274    4.6512   -0.1910 C.3     1  UNL1        0.0900
      3 O          -4.1619    3.4029   -0.0771 O.3     1  UNL1       -0.4603
      4 C          -4.9269    2.2662   -0.2579 C.2     1  UNL1        0.3595
      5 O          -6.1556    2.3529   -0.5111 O.2     1  UNL1       -0.2432
      6 C          -4.3075    0.9351   -0.1552 C.ar    1  UNL1        0.1702
      7 C          -2.9811    0.6784    0.1151 C.ar    1  UNL1       -0.0015
      8 C          -2.8434   -0.6856    0.1172 C.ar    1  UNL1        0.0755
      9 C          -1.6322   -1.4335    0.3540 C.ar    1  UNL1        0.0040
     10 C          -1.6538   -2.5259    1.1902 C.ar    1  UNL1       -0.0523
     11 C          -0.5242   -3.2698    1.4463 C.ar    1  UNL1       -0.0577
     12 C           0.6566   -2.8958    0.8387 C.ar    1  UNL1       -0.0191
     13 C           0.6944   -1.8069    0.0008 C.ar    1  UNL1        0.1339
     14 O           1.8637   -1.4053   -0.6247 O.3     1  UNL1       -0.4115
     15 C           2.7509   -0.4981   -0.0625 C.2     1  UNL1        0.4058
     16 O           2.5099   -0.0010    1.0641 O.2     1  UNL1       -0.2260
     17 N           3.9314   -0.1184   -0.7382 N.am    1  UNL1       -0.2779
     18 C           4.9046    0.8141   -0.2294 C.3     1  UNL1        0.0263
     19 C           5.1480    1.8510   -1.2943 C.3     1  UNL1       -0.0344
     20 C           6.2273    2.8292   -0.9399 C.3     1  UNL1       -0.0514
     21 C           7.4762    2.1842   -0.4216 C.3     1  UNL1       -0.0529
     22 C           7.2286    1.0072    0.4629 C.3     1  UNL1       -0.0514
     23 C           6.2201    0.0402   -0.0739 C.3     1  UNL1       -0.0344
     24 C          -0.4445   -1.0734   -0.2449 C.ar    1  UNL1       -0.0100
     25 N          -4.0530   -1.2388   -0.1445 N.ar    1  UNL1       -0.2313
     26 C          -4.3084   -2.6354   -0.2246 C.ar    1  UNL1        0.0661
     27 C          -5.3590   -3.2044    0.4643 C.ar    1  UNL1       -0.0349
     28 C          -5.5968   -4.5584    0.3792 C.ar    1  UNL1       -0.0414
     29 C          -4.8015   -5.3736   -0.3873 C.ar    1  UNL1        0.0411
     30 CL         -5.1249   -7.0872   -0.4780 Cl      1  UNL1       -0.0835
     31 C          -3.7418   -4.8232   -1.0868 C.ar    1  UNL1       -0.0414
     32 C          -3.5124   -3.4709   -0.9956 C.ar    1  UNL1       -0.0349
     33 N          -4.9266   -0.2408   -0.3064 N.ar    1  UNL1       -0.1592
     34 H          -4.0969    6.1855    1.0699 H       1  UNL1        0.0262
     35 H          -4.2285    6.6902   -0.6306 H       1  UNL1        0.0262
     36 H          -2.8669    5.6376   -0.1649 H       1  UNL1        0.0262
     37 H          -5.6854    4.6245    0.5263 H       1  UNL1        0.0695
     38 H          -5.2323    4.7001   -1.2263 H       1  UNL1        0.0695
     39 H          -2.2250    1.4486    0.2869 H       1  UNL1        0.0663
     40 H          -2.5667   -2.8545    1.6900 H       1  UNL1        0.0624
     41 H          -0.5375   -4.1307    2.1043 H       1  UNL1        0.0619
     42 H           1.5958   -3.4350    0.9914 H       1  UNL1        0.0654
     43 H           4.1226   -0.5393   -1.6776 H       1  UNL1        0.1523
     44 H           4.6559    1.2206    0.7499 H       1  UNL1        0.0499
     45 H           5.4083    1.3149   -2.2224 H       1  UNL1        0.0283
     46 H           4.2024    2.4194   -1.4165 H       1  UNL1        0.0283
     47 H           5.8744    3.6433   -0.2684 H       1  UNL1        0.0266
     48 H           6.5112    3.3510   -1.8984 H       1  UNL1        0.0266
     49 H           8.1782    1.9078   -1.2503 H       1  UNL1        0.0265
     50 H           8.0217    2.9543    0.1791 H       1  UNL1        0.0265
     51 H           8.2008    0.4440    0.5532 H       1  UNL1        0.0266
     52 H           6.9327    1.2878    1.4901 H       1  UNL1        0.0266
     53 H           6.0545   -0.7559    0.6546 H       1  UNL1        0.0283
     54 H           6.5061   -0.3269   -1.0854 H       1  UNL1        0.0283
     55 H          -0.3956   -0.2103   -0.9143 H       1  UNL1        0.0661
     56 H          -6.0005   -2.5844    1.0753 H       1  UNL1        0.0639
     57 H          -6.4273   -4.9814    0.9291 H       1  UNL1        0.0633
     58 H          -3.1169   -5.4768   -1.6917 H       1  UNL1        0.0633
     59 H          -2.6877   -3.0229   -1.5361 H       1  UNL1        0.0639
@<TRIPOS>BOND
     1     1     2    1
     2     2     3    1
     3     3     4    1
     4     4     5    2
     5     4     6    1
     6     6     7   ar
     7     7     8   ar
     8     8     9    1
     9     9    10   ar
    10    10    11   ar
    11    11    12   ar
    12    12    13   ar
    13    13    14    1
    14    14    15    1
    15    15    16    2
    16    15    17   am
    17    17    18    1
    18    18    19    1
    19    19    20    1
    20    20    21    1
    21    21    22    1
    22    22    23    1
    23    13    24   ar
    24     8    25   ar
    25    25    26    1
    26    26    27   ar
    27    27    28   ar
    28    28    29   ar
    29    29    30    1
    30    29    31   ar
    31    31    32   ar
    32    25    33   ar
    33    33     6   ar
    34    24     9   ar
    35    32    26   ar
    36    23    18    1
    37     1    34    1
    38     1    35    1
    39     1    36    1
    40     2    37    1
    41     2    38    1
    42     7    39    1
    43    10    40    1
    44    11    41    1
    45    12    42    1
    46    17    43    1
    47    18    44    1
    48    19    45    1
    49    19    46    1
    50    20    47    1
    51    20    48    1
    52    21    49    1
    53    21    50    1
    54    22    51    1
    55    22    52    1
    56    23    53    1
    57    23    54    1
    58    24    55    1
    59    27    56    1
    60    28    57    1
    61    31    58    1
    62    32    59    1
