@<TRIPOS>MOLECULE
*****
 33 34 0 0 0
SMALL
GASTEIGER

@<TRIPOS>ATOM
      1 C          -4.7965    1.1170    0.2672 C.3     1  UNL1       -0.0652
      2 C          -4.7508   -0.3488   -0.0720 C.3     1  UNL1       -0.0528
      3 C          -3.3290   -0.8145   -0.3281 C.3     1  UNL1       -0.0189
      4 C          -2.7475   -0.0429   -1.4755 C.3     1  UNL1        0.0896
      5 O          -1.4618   -0.3314   -1.8474 O.3     1  UNL1       -0.4920
      6 C          -0.2633   -0.2203   -1.2176 C.ar    1  UNL1        0.1205
      7 C           0.8925   -0.6512   -1.9129 C.ar    1  UNL1       -0.0193
      8 C           2.0812   -0.5344   -1.2781 C.ar    1  UNL1       -0.0491
      9 C           2.2639   -0.0266    0.0005 C.ar    1  UNL1        0.0007
     10 C           3.6048    0.0528    0.5917 C.ar    1  UNL1        0.0741
     11 C           3.8480    0.5446    1.8499 C.ar    1  UNL1       -0.0175
     12 C           5.1404    0.6075    2.3867 C.ar    1  UNL1        0.0313
     13 N           6.1483    0.1642    1.6182 N.ar    1  UNL1       -0.2437
     14 C           5.9357   -0.3223    0.3820 C.ar    1  UNL1        0.1166
     15 N           4.6872   -0.3712   -0.1079 N.ar    1  UNL1       -0.2354
     16 C           1.1200    0.3813    0.6431 C.ar    1  UNL1       -0.0491
     17 C          -0.1267    0.2883    0.0473 C.ar    1  UNL1       -0.0193
     18 H          -4.6037    1.7723   -0.5979 H       1  UNL1        0.0230
     19 H          -5.8262    1.3360    0.6200 H       1  UNL1        0.0230
     20 H          -4.0459    1.3373    1.0724 H       1  UNL1        0.0230
     21 H          -5.1617   -0.8978    0.7967 H       1  UNL1        0.0264
     22 H          -5.3566   -0.4878   -0.9918 H       1  UNL1        0.0264
     23 H          -3.3306   -1.8903   -0.6548 H       1  UNL1        0.0298
     24 H          -2.7875   -0.7524    0.6142 H       1  UNL1        0.0298
     25 H          -3.4121   -0.2006   -2.3703 H       1  UNL1        0.0696
     26 H          -2.7954    1.0702   -1.2306 H       1  UNL1        0.0696
     27 H           0.7430   -1.0441   -2.9048 H       1  UNL1        0.0654
     28 H           2.9838   -0.8608   -1.7970 H       1  UNL1        0.0625
     29 H           3.0242    0.8998    2.4607 H       1  UNL1        0.0654
     30 H           5.3107    0.9998    3.3831 H       1  UNL1        0.0831
     31 H           6.8036   -0.6575   -0.1676 H       1  UNL1        0.1047
     32 H           1.1964    0.7873    1.6447 H       1  UNL1        0.0625
     33 H          -0.9885    0.6328    0.5756 H       1  UNL1        0.0654
@<TRIPOS>BOND
     1     1     2    1
     2     2     3    1
     3     3     4    1
     4     4     5    1
     5     5     6    1
     6     6     7   ar
     7     7     8   ar
     8     8     9   ar
     9     9    10    1
    10    10    11   ar
    11    11    12   ar
    12    12    13   ar
    13    13    14   ar
    14    14    15   ar
    15     9    16   ar
    16    16    17   ar
    17    17     6   ar
    18    15    10   ar
    19     1    18    1
    20     1    19    1
    21     1    20    1
    22     2    21    1
    23     2    22    1
    24     3    23    1
    25     3    24    1
    26     4    25    1
    27     4    26    1
    28     7    27    1
    29     8    28    1
    30    11    29    1
    31    12    30    1
    32    14    31    1
    33    16    32    1
    34    17    33    1
