
     RDKit          3D

 33 34  0  0  0  0  0  0  0  0999 V2000
   -4.7965    1.1170    0.2672 C   0  0  0  0  0  0  0  0  0  0  0  0
   -4.7508   -0.3488   -0.0720 C   0  0  0  0  0  0  0  0  0  0  0  0
   -3.3290   -0.8145   -0.3281 C   0  0  0  0  0  0  0  0  0  0  0  0
   -2.7475   -0.0429   -1.4755 C   0  0  0  0  0  0  0  0  0  0  0  0
   -1.4618   -0.3314   -1.8474 O   0  0  0  0  0  0  0  0  0  0  0  0
   -0.2633   -0.2203   -1.2176 C   0  0  0  0  0  0  0  0  0  0  0  0
    0.8925   -0.6512   -1.9129 C   0  0  0  0  0  0  0  0  0  0  0  0
    2.0812   -0.5344   -1.2781 C   0  0  0  0  0  0  0  0  0  0  0  0
    2.2639   -0.0266    0.0005 C   0  0  0  0  0  0  0  0  0  0  0  0
    3.6048    0.0528    0.5917 C   0  0  0  0  0  0  0  0  0  0  0  0
    3.8480    0.5446    1.8499 C   0  0  0  0  0  0  0  0  0  0  0  0
    5.1404    0.6075    2.3867 C   0  0  0  0  0  0  0  0  0  0  0  0
    6.1483    0.1642    1.6182 N   0  0  0  0  0  0  0  0  0  0  0  0
    5.9357   -0.3223    0.3820 C   0  0  0  0  0  0  0  0  0  0  0  0
    4.6872   -0.3712   -0.1079 N   0  0  0  0  0  0  0  0  0  0  0  0
    1.1200    0.3813    0.6431 C   0  0  0  0  0  0  0  0  0  0  0  0
   -0.1267    0.2883    0.0473 C   0  0  0  0  0  0  0  0  0  0  0  0
   -4.6037    1.7723   -0.5979 H   0  0  0  0  0  0  0  0  0  0  0  0
   -5.8262    1.3360    0.6200 H   0  0  0  0  0  0  0  0  0  0  0  0
   -4.0459    1.3373    1.0724 H   0  0  0  0  0  0  0  0  0  0  0  0
   -5.1617   -0.8978    0.7967 H   0  0  0  0  0  0  0  0  0  0  0  0
   -5.3566   -0.4878   -0.9918 H   0  0  0  0  0  0  0  0  0  0  0  0
   -3.3306   -1.8903   -0.6548 H   0  0  0  0  0  0  0  0  0  0  0  0
   -2.7875   -0.7524    0.6142 H   0  0  0  0  0  0  0  0  0  0  0  0
   -3.4121   -0.2006   -2.3703 H   0  0  0  0  0  0  0  0  0  0  0  0
   -2.7954    1.0702   -1.2306 H   0  0  0  0  0  0  0  0  0  0  0  0
    0.7430   -1.0441   -2.9048 H   0  0  0  0  0  0  0  0  0  0  0  0
    2.9838   -0.8608   -1.7970 H   0  0  0  0  0  0  0  0  0  0  0  0
    3.0242    0.8998    2.4607 H   0  0  0  0  0  0  0  0  0  0  0  0
    5.3107    0.9998    3.3831 H   0  0  0  0  0  0  0  0  0  0  0  0
    6.8036   -0.6575   -0.1676 H   0  0  0  0  0  0  0  0  0  0  0  0
    1.1964    0.7873    1.6447 H   0  0  0  0  0  0  0  0  0  0  0  0
   -0.9885    0.6328    0.5756 H   0  0  0  0  0  0  0  0  0  0  0  0
  1  2  1  0
  2  3  1  0
  3  4  1  0
  4  5  1  0
  5  6  1  0
  6  7  2  0
  7  8  1  0
  8  9  2  0
  9 10  1  0
 10 11  2  0
 11 12  1  0
 12 13  2  0
 13 14  1  0
 14 15  2  0
  9 16  1  0
 16 17  2  0
 17  6  1  0
 15 10  1  0
  1 18  1  0
  1 19  1  0
  1 20  1  0
  2 21  1  0
  2 22  1  0
  3 23  1  0
  3 24  1  0
  4 25  1  0
  4 26  1  0
  7 27  1  0
  8 28  1  0
 11 29  1  0
 12 30  1  0
 14 31  1  0
 16 32  1  0
 17 33  1  0
M  END
$$$$
