@<TRIPOS>MOLECULE
*****
 56 58 0 0 0
SMALL
GASTEIGER

@<TRIPOS>ATOM
      1 C           1.9140   -4.1683    1.1347 C.2     1  UNL1       -0.0951
      2 C           1.3226   -3.0875    0.6357 C.2     1  UNL1       -0.0472
      3 C          -0.1425   -3.1215    0.3864 C.3     1  UNL1       -0.0396
      4 C           2.1168   -1.9336    0.2426 C.ar    1  UNL1        0.0166
      5 C           3.5093   -2.0720    0.1113 C.ar    1  UNL1        0.0374
      6 N           4.2519   -1.0577   -0.2555 N.ar    1  UNL1       -0.2542
      7 C           3.8129    0.2046   -0.5468 C.ar    1  UNL1        0.0755
      8 C           4.7703    1.2197   -0.9418 C.ar    1  UNL1        0.0369
      9 C           6.1091    0.8611   -1.0059 C.ar    1  UNL1       -0.0314
     10 C           7.0826    1.7618   -1.3717 C.ar    1  UNL1        0.0418
     11 CL          8.7486    1.2451   -1.4319 Cl      1  UNL1       -0.0835
     12 C           6.7413    3.0554   -1.6858 C.ar    1  UNL1       -0.0406
     13 C           5.4254    3.4400   -1.6317 C.ar    1  UNL1       -0.0244
     14 C           4.4709    2.5058   -1.2589 C.ar    1  UNL1        0.1326
     15 F           3.1980    2.9573   -1.2285 F       1  UNL1       -0.2048
     16 C           2.4611    0.3620   -0.4234 C.ar    1  UNL1       -0.0138
     17 C           1.6257   -0.7012   -0.0294 C.ar    1  UNL1        0.0423
     18 N           0.2361   -0.3461    0.0824 N.pl3   1  UNL1       -0.3133
     19 C          -0.3376   -0.3209    1.3651 C.ar    1  UNL1        0.0465
     20 C           0.4816   -0.5837    2.4831 C.ar    1  UNL1       -0.0217
     21 C           0.0060   -0.5828    3.7671 C.ar    1  UNL1        0.0293
     22 N          -1.2941   -0.3174    3.9283 N.ar    1  UNL1       -0.2624
     23 C          -2.1163   -0.0586    2.8684 C.ar    1  UNL1        0.0415
     24 C          -1.6580   -0.0537    1.5545 C.ar    1  UNL1        0.0758
     25 C          -2.6225    0.2215    0.5157 C.2     1  UNL1        0.2478
     26 O          -2.2673    0.1978   -0.6904 O.2     1  UNL1       -0.2701
     27 N          -3.9852    0.5282    0.7330 N.am    1  UNL1       -0.3040
     28 C          -4.8976    0.7940   -0.3762 C.3     1  UNL1        0.0523
     29 C          -4.9237   -0.4453   -1.2468 C.3     1  UNL1       -0.0418
     30 C          -4.4420    1.9394   -1.2278 C.3     1  UNL1       -0.0418
     31 C          -6.2868    1.0577    0.0988 C.3     1  UNL1        0.0649
     32 O          -7.1213    1.3047   -0.9783 O.3     1  UNL1       -0.3929
     33 H           2.9297   -4.2777    1.3571 H       1  UNL1        0.0538
     34 H           1.2636   -5.0345    1.3323 H       1  UNL1        0.0538
     35 H          -0.3242   -4.1884   -0.0067 H       1  UNL1        0.0278
     36 H          -0.7507   -3.0321    1.2908 H       1  UNL1        0.0278
     37 H          -0.3773   -2.4839   -0.4614 H       1  UNL1        0.0278
     38 H           3.9242   -3.0561    0.3200 H       1  UNL1        0.0836
     39 H           6.3859   -0.1730   -0.7553 H       1  UNL1        0.0639
     40 H           7.5145    3.7901   -1.9819 H       1  UNL1        0.0633
     41 H           5.1661    4.4695   -1.8831 H       1  UNL1        0.0647
     42 H           2.0193    1.3268   -0.6336 H       1  UNL1        0.0658
     43 H          -0.2619   -0.1231   -0.7706 H       1  UNL1        0.1522
     44 H           1.5302   -0.7928    2.3532 H       1  UNL1        0.0651
     45 H           0.6787   -0.7916    4.5968 H       1  UNL1        0.0830
     46 H          -3.1530    0.1440    3.1004 H       1  UNL1        0.0838
     47 H          -4.3541    0.5692    1.6943 H       1  UNL1        0.1496
     48 H          -5.9405   -0.5707   -1.6896 H       1  UNL1        0.0251
     49 H          -4.1392   -0.3450   -2.0069 H       1  UNL1        0.0251
     50 H          -4.7106   -1.3713   -0.6422 H       1  UNL1        0.0251
     51 H          -3.7176    1.6255   -2.0056 H       1  UNL1        0.0251
     52 H          -5.3595    2.3732   -1.7073 H       1  UNL1        0.0251
     53 H          -4.0108    2.7870   -0.6267 H       1  UNL1        0.0251
     54 H          -6.2670    1.9673    0.7322 H       1  UNL1        0.0578
     55 H          -6.6643    0.2131    0.7399 H       1  UNL1        0.0578
     56 H          -7.5706    2.1688   -0.8970 H       1  UNL1        0.2095
@<TRIPOS>BOND
     1     1     2    2
     2     2     3    1
     3     2     4    1
     4     4     5   ar
     5     5     6   ar
     6     6     7   ar
     7     7     8    1
     8     8     9   ar
     9     9    10   ar
    10    10    11    1
    11    10    12   ar
    12    12    13   ar
    13    13    14   ar
    14    14    15    1
    15     7    16   ar
    16    16    17   ar
    17    17    18    1
    18    18    19    1
    19    19    20   ar
    20    20    21   ar
    21    21    22   ar
    22    22    23   ar
    23    23    24   ar
    24    24    25    1
    25    25    26    2
    26    25    27   am
    27    27    28    1
    28    28    29    1
    29    28    30    1
    30    28    31    1
    31    31    32    1
    32    17     4   ar
    33    24    19   ar
    34    14     8   ar
    35     1    33    1
    36     1    34    1
    37     3    35    1
    38     3    36    1
    39     3    37    1
    40     5    38    1
    41     9    39    1
    42    12    40    1
    43    13    41    1
    44    16    42    1
    45    18    43    1
    46    20    44    1
    47    21    45    1
    48    23    46    1
    49    27    47    1
    50    29    48    1
    51    29    49    1
    52    29    50    1
    53    30    51    1
    54    30    52    1
    55    30    53    1
    56    31    54    1
    57    31    55    1
    58    32    56    1
