@<TRIPOS>MOLECULE
*****
 56 59 0 0 0
SMALL
GASTEIGER

@<TRIPOS>ATOM
      1 C           1.8615    0.7210    0.1590 C.3     1  UNL1       -0.0298
      2 C           2.7126    1.3134   -0.9319 C.3     1  UNL1       -0.0468
      3 C           4.0694    0.6764   -0.7068 C.3     1  UNL1       -0.0235
      4 C           3.8316   -0.4535    0.3021 C.3     1  UNL1        0.0689
      5 C           4.1333    0.0821    1.6679 C.3     1  UNL1       -0.0356
      6 O           4.6313   -1.5486    0.0304 O.3     1  UNL1       -0.3883
      7 C           2.3810   -0.7206    0.0690 C.3     1  UNL1       -0.0004
      8 C           2.2307   -1.3163   -1.2876 C.3     1  UNL1       -0.0567
      9 C           1.6973   -1.5753    1.0683 C.3     1  UNL1       -0.0445
     10 C           0.2345   -1.5853    0.6670 C.3     1  UNL1       -0.0488
     11 C          -0.2836   -0.2044    0.8043 C.3     1  UNL1       -0.0319
     12 C           0.3991    0.7983   -0.0810 C.3     1  UNL1       -0.0343
     13 C          -0.0948    2.1746    0.1385 C.3     1  UNL1       -0.0494
     14 C          -1.5051    2.3611    0.5402 C.3     1  UNL1       -0.0490
     15 C          -2.1874    1.1950    1.1533 C.3     1  UNL1       -0.0281
     16 C          -3.6626    1.3845    1.2167 C.3     1  UNL1        0.0136
     17 C          -4.4553    0.2409    0.6980 C.2     1  UNL1        0.1624
     18 O          -5.6858    0.5170    0.5424 O.2     1  UNL1       -0.2923
     19 C          -3.9327   -1.0990    0.3769 C.2     1  UNL1        0.0295
     20 C          -2.5449   -1.2734    0.9231 C.3     1  UNL1       -0.0156
     21 C          -1.7584   -0.0797    0.4826 C.3     1  UNL1       -0.0216
     22 C          -1.9258    0.0542   -1.0323 C.3     1  UNL1       -0.0587
     23 C          -4.6706   -1.9600   -0.3077 C.2     1  UNL1        0.0873
     24 O          -5.9359   -1.5388   -0.6972 O.2     1  UNL1       -0.5139
     25 H           2.1803    1.1518    1.1057 H       1  UNL1        0.0310
     26 H           2.2884    0.9052   -1.8950 H       1  UNL1        0.0269
     27 H           2.7302    2.4112   -0.9203 H       1  UNL1        0.0269
     28 H           4.7899    1.3974   -0.2667 H       1  UNL1        0.0293
     29 H           4.4963    0.2539   -1.6279 H       1  UNL1        0.0293
     30 H           4.4511    1.1563    1.6393 H       1  UNL1        0.0257
     31 H           3.3136    0.0277    2.3908 H       1  UNL1        0.0257
     32 H           4.9936   -0.4588    2.1523 H       1  UNL1        0.0257
     33 H           5.2029   -1.4497   -0.7595 H       1  UNL1        0.2102
     34 H           1.3916   -0.9738   -1.8865 H       1  UNL1        0.0236
     35 H           2.0757   -2.4286   -1.1687 H       1  UNL1        0.0236
     36 H           3.1458   -1.2465   -1.9231 H       1  UNL1        0.0236
     37 H           1.7240   -1.2215    2.1096 H       1  UNL1        0.0272
     38 H           2.1350   -2.6077    0.9761 H       1  UNL1        0.0272
     39 H          -0.2682   -2.2220    1.4223 H       1  UNL1        0.0268
     40 H           0.0928   -1.9211   -0.3652 H       1  UNL1        0.0268
     41 H          -0.1246    0.1397    1.8545 H       1  UNL1        0.0309
     42 H           0.2185    0.5167   -1.1359 H       1  UNL1        0.0306
     43 H           0.0304    2.7431   -0.8277 H       1  UNL1        0.0268
     44 H           0.6062    2.7056    0.8340 H       1  UNL1        0.0268
     45 H          -1.5477    3.1896    1.2972 H       1  UNL1        0.0268
     46 H          -2.1682    2.7270   -0.2939 H       1  UNL1        0.0268
     47 H          -1.7954    1.1195    2.2097 H       1  UNL1        0.0310
     48 H          -3.9507    2.3051    0.6888 H       1  UNL1        0.0348
     49 H          -4.0133    1.5186    2.2805 H       1  UNL1        0.0348
     50 H          -2.5491   -1.3999    2.0137 H       1  UNL1        0.0321
     51 H          -2.0735   -2.1734    0.4736 H       1  UNL1        0.0321
     52 H          -1.3546   -0.7040   -1.5798 H       1  UNL1        0.0235
     53 H          -1.7283    1.0651   -1.4028 H       1  UNL1        0.0235
     54 H          -3.0016   -0.1515   -1.2870 H       1  UNL1        0.0235
     55 H          -4.1483   -2.8902   -0.4595 H       1  UNL1        0.1024
     56 H          -6.6819   -1.6485   -0.0421 H       1  UNL1        0.2912
@<TRIPOS>BOND
     1     1     2    1
     2     2     3    1
     3     3     4    1
     4     4     5    1
     5     4     6    1
     6     4     7    1
     7     7     8    1
     8     7     9    1
     9     9    10    1
    10    10    11    1
    11    11    12    1
    12    12    13    1
    13    13    14    1
    14    14    15    1
    15    15    16    1
    16    16    17    1
    17    17    18    2
    18    17    19    1
    19    19    20    1
    20    20    21    1
    21    21    22    1
    22    19    23    2
    23    23    24    1
    24     7     1    1
    25    21    11    1
    26    12     1    1
    27    21    15    1
    28     1    25    1
    29     2    26    1
    30     2    27    1
    31     3    28    1
    32     3    29    1
    33     5    30    1
    34     5    31    1
    35     5    32    1
    36     6    33    1
    37     8    34    1
    38     8    35    1
    39     8    36    1
    40     9    37    1
    41     9    38    1
    42    10    39    1
    43    10    40    1
    44    11    41    1
    45    12    42    1
    46    13    43    1
    47    13    44    1
    48    14    45    1
    49    14    46    1
    50    15    47    1
    51    16    48    1
    52    16    49    1
    53    20    50    1
    54    20    51    1
    55    22    52    1
    56    22    53    1
    57    22    54    1
    58    23    55    1
    59    24    56    1
