
     RDKit          3D

 56 59  0  0  0  0  0  0  0  0999 V2000
    1.8615    0.7210    0.1590 C   0  0  2  0  0  0  0  0  0  0  0  0
    2.7126    1.3134   -0.9319 C   0  0  0  0  0  0  0  0  0  0  0  0
    4.0694    0.6764   -0.7068 C   0  0  0  0  0  0  0  0  0  0  0  0
    3.8316   -0.4535    0.3021 C   0  0  2  0  0  0  0  0  0  0  0  0
    4.1333    0.0821    1.6679 C   0  0  0  0  0  0  0  0  0  0  0  0
    4.6313   -1.5486    0.0304 O   0  0  0  0  0  0  0  0  0  0  0  0
    2.3810   -0.7206    0.0690 C   0  0  2  0  0  0  0  0  0  0  0  0
    2.2307   -1.3163   -1.2876 C   0  0  0  0  0  0  0  0  0  0  0  0
    1.6973   -1.5753    1.0683 C   0  0  0  0  0  0  0  0  0  0  0  0
    0.2345   -1.5853    0.6670 C   0  0  0  0  0  0  0  0  0  0  0  0
   -0.2836   -0.2044    0.8043 C   0  0  1  0  0  0  0  0  0  0  0  0
    0.3991    0.7983   -0.0810 C   0  0  1  0  0  0  0  0  0  0  0  0
   -0.0948    2.1746    0.1385 C   0  0  0  0  0  0  0  0  0  0  0  0
   -1.5051    2.3611    0.5402 C   0  0  0  0  0  0  0  0  0  0  0  0
   -2.1874    1.1950    1.1533 C   0  0  1  0  0  0  0  0  0  0  0  0
   -3.6626    1.3845    1.2167 C   0  0  0  0  0  0  0  0  0  0  0  0
   -4.4553    0.2409    0.6980 C   0  0  0  0  0  0  0  0  0  0  0  0
   -5.6858    0.5170    0.5424 O   0  0  0  0  0  0  0  0  0  0  0  0
   -3.9327   -1.0990    0.3769 C   0  0  0  0  0  0  0  0  0  0  0  0
   -2.5449   -1.2734    0.9231 C   0  0  0  0  0  0  0  0  0  0  0  0
   -1.7584   -0.0797    0.4826 C   0  0  2  0  0  0  0  0  0  0  0  0
   -1.9258    0.0542   -1.0323 C   0  0  0  0  0  0  0  0  0  0  0  0
   -4.6706   -1.9600   -0.3077 C   0  0  0  0  0  0  0  0  0  0  0  0
   -5.9359   -1.5388   -0.6972 O   0  0  0  0  0  0  0  0  0  0  0  0
    2.1803    1.1518    1.1057 H   0  0  0  0  0  0  0  0  0  0  0  0
    2.2884    0.9052   -1.8950 H   0  0  0  0  0  0  0  0  0  0  0  0
    2.7302    2.4112   -0.9203 H   0  0  0  0  0  0  0  0  0  0  0  0
    4.7899    1.3974   -0.2667 H   0  0  0  0  0  0  0  0  0  0  0  0
    4.4963    0.2539   -1.6279 H   0  0  0  0  0  0  0  0  0  0  0  0
    4.4511    1.1563    1.6393 H   0  0  0  0  0  0  0  0  0  0  0  0
    3.3136    0.0277    2.3908 H   0  0  0  0  0  0  0  0  0  0  0  0
    4.9936   -0.4588    2.1523 H   0  0  0  0  0  0  0  0  0  0  0  0
    5.2029   -1.4497   -0.7595 H   0  0  0  0  0  0  0  0  0  0  0  0
    1.3916   -0.9738   -1.8865 H   0  0  0  0  0  0  0  0  0  0  0  0
    2.0757   -2.4286   -1.1687 H   0  0  0  0  0  0  0  0  0  0  0  0
    3.1458   -1.2465   -1.9231 H   0  0  0  0  0  0  0  0  0  0  0  0
    1.7240   -1.2215    2.1096 H   0  0  0  0  0  0  0  0  0  0  0  0
    2.1350   -2.6077    0.9761 H   0  0  0  0  0  0  0  0  0  0  0  0
   -0.2682   -2.2220    1.4223 H   0  0  0  0  0  0  0  0  0  0  0  0
    0.0928   -1.9211   -0.3652 H   0  0  0  0  0  0  0  0  0  0  0  0
   -0.1246    0.1397    1.8545 H   0  0  0  0  0  0  0  0  0  0  0  0
    0.2185    0.5167   -1.1359 H   0  0  0  0  0  0  0  0  0  0  0  0
    0.0304    2.7431   -0.8277 H   0  0  0  0  0  0  0  0  0  0  0  0
    0.6062    2.7056    0.8340 H   0  0  0  0  0  0  0  0  0  0  0  0
   -1.5477    3.1896    1.2972 H   0  0  0  0  0  0  0  0  0  0  0  0
   -2.1682    2.7270   -0.2939 H   0  0  0  0  0  0  0  0  0  0  0  0
   -1.7954    1.1195    2.2097 H   0  0  0  0  0  0  0  0  0  0  0  0
   -3.9507    2.3051    0.6888 H   0  0  0  0  0  0  0  0  0  0  0  0
   -4.0133    1.5186    2.2805 H   0  0  0  0  0  0  0  0  0  0  0  0
   -2.5491   -1.3999    2.0137 H   0  0  0  0  0  0  0  0  0  0  0  0
   -2.0735   -2.1734    0.4736 H   0  0  0  0  0  0  0  0  0  0  0  0
   -1.3546   -0.7040   -1.5798 H   0  0  0  0  0  0  0  0  0  0  0  0
   -1.7283    1.0651   -1.4028 H   0  0  0  0  0  0  0  0  0  0  0  0
   -3.0016   -0.1515   -1.2870 H   0  0  0  0  0  0  0  0  0  0  0  0
   -4.1483   -2.8902   -0.4595 H   0  0  0  0  0  0  0  0  0  0  0  0
   -6.6819   -1.6485   -0.0421 H   0  0  0  0  0  0  0  0  0  0  0  0
  1  2  1  0
  2  3  1  0
  3  4  1  0
  4  5  1  0
  4  6  1  6
  4  7  1  0
  7  8  1  6
  7  9  1  0
  9 10  1  0
 10 11  1  0
 11 12  1  0
 12 13  1  0
 13 14  1  0
 14 15  1  0
 15 16  1  0
 16 17  1  0
 17 18  2  0
 17 19  1  0
 19 20  1  0
 20 21  1  0
 21 22  1  6
 19 23  2  0
 23 24  1  0
  7  1  1  0
 21 11  1  0
 12  1  1  0
 21 15  1  0
  1 25  1  1
  2 26  1  0
  2 27  1  0
  3 28  1  0
  3 29  1  0
  5 30  1  0
  5 31  1  0
  5 32  1  0
  6 33  1  0
  8 34  1  0
  8 35  1  0
  8 36  1  0
  9 37  1  0
  9 38  1  0
 10 39  1  0
 10 40  1  0
 11 41  1  1
 12 42  1  6
 13 43  1  0
 13 44  1  0
 14 45  1  0
 14 46  1  0
 15 47  1  1
 16 48  1  0
 16 49  1  0
 20 50  1  0
 20 51  1  0
 22 52  1  0
 22 53  1  0
 22 54  1  0
 23 55  1  0
 24 56  1  0
M  END
$$$$
