@<TRIPOS>MOLECULE
*****
 65 69 0 0 0
SMALL
GASTEIGER

@<TRIPOS>ATOM
      1 O           1.0435   -4.2032    1.8146 O.2     1  UNL1       -0.2817
      2 C           1.4925   -3.3270    1.0253 C.2     1  UNL1        0.2496
      3 C           2.6123   -3.4584    0.1013 C.2     1  UNL1        0.2915
      4 O           3.3293   -4.4621   -0.0759 O.2     1  UNL1       -0.2661
      5 N           2.7261   -2.1929   -0.5690 N.am    1  UNL1       -0.2598
      6 C           3.7352   -1.9350   -1.5739 C.3     1  UNL1        0.0452
      7 C           4.9828   -1.4071   -1.0179 C.ar    1  UNL1       -0.0295
      8 C           5.9976   -2.2555   -0.6176 C.ar    1  UNL1       -0.0536
      9 C           7.1515   -1.7479   -0.1051 C.ar    1  UNL1       -0.0196
     10 C           7.3507   -0.3573    0.0340 C.ar    1  UNL1        0.1206
     11 O           8.5204    0.0910    0.5549 O.3     1  UNL1       -0.4911
     12 C           9.0130    1.3394    0.7754 C.3     1  UNL1        0.0991
     13 C           9.2602    2.1182   -0.4870 C.3     1  UNL1        0.0375
     14 BR          9.9482    3.8838    0.0056 Br      1  UNL1       -0.0883
     15 C           6.3458    0.4931   -0.3606 C.ar    1  UNL1       -0.0196
     16 C           5.1843   -0.0595   -0.8787 C.ar    1  UNL1       -0.0536
     17 C           1.7238   -1.3031   -0.0902 C.ar    1  UNL1        0.0481
     18 C           1.3915    0.0049   -0.3890 C.ar    1  UNL1       -0.0377
     19 C           0.3336    0.6606    0.2431 C.ar    1  UNL1       -0.0335
     20 C          -0.4174    0.0039    1.1985 C.ar    1  UNL1        0.1063
     21 S          -1.7667    0.7771    2.0312 S.O2    1  UNL1        0.0612
     22 O          -1.7922    0.2398    3.4321 O.2     1  UNL1       -0.1528
     23 O          -1.3924    2.2352    2.1469 O.2     1  UNL1       -0.1528
     24 N          -3.1672    0.5063    1.1633 N.3     1  UNL1       -0.1703
     25 C          -3.5943   -0.8184    0.9800 C.3     1  UNL1        0.0210
     26 C          -3.6073   -0.9580   -0.5296 C.3     1  UNL1       -0.0370
     27 C          -3.1866    0.3755   -1.1058 C.3     1  UNL1       -0.0313
     28 C          -3.4402    1.3214    0.0493 C.3     1  UNL1        0.0659
     29 C          -4.8698    1.7907   -0.0574 C.3     1  UNL1        0.1067
     30 O          -5.7834    0.7418   -0.1558 O.3     1  UNL1       -0.4904
     31 C          -7.1477    0.9614   -0.2630 C.ar    1  UNL1        0.1206
     32 C          -8.0180   -0.1076   -0.3584 C.ar    1  UNL1       -0.0199
     33 C          -9.3853    0.0713   -0.4667 C.ar    1  UNL1       -0.0583
     34 C          -9.9344    1.3293   -0.4836 C.ar    1  UNL1       -0.0615
     35 C          -9.0777    2.4116   -0.3889 C.ar    1  UNL1       -0.0583
     36 C          -7.7114    2.2213   -0.2810 C.ar    1  UNL1       -0.0199
     37 C          -0.0607   -1.2982    1.4733 C.ar    1  UNL1       -0.0226
     38 C           0.9781   -1.9654    0.8631 C.ar    1  UNL1        0.0502
     39 H           3.2771   -1.2311   -2.3131 H       1  UNL1        0.0518
     40 H           3.9667   -2.8600   -2.1671 H       1  UNL1        0.0518
     41 H           5.8957   -3.3186   -0.7021 H       1  UNL1        0.0622
     42 H           7.9541   -2.4005    0.2124 H       1  UNL1        0.0654
     43 H           9.9964    1.3377    1.3271 H       1  UNL1        0.0705
     44 H           8.3132    1.9389    1.4434 H       1  UNL1        0.0705
     45 H          10.0857    1.5825   -1.0276 H       1  UNL1        0.0415
     46 H           8.3775    2.1874   -1.1056 H       1  UNL1        0.0415
     47 H           6.4290    1.5679   -0.2547 H       1  UNL1        0.0654
     48 H           4.4141    0.6090   -1.1817 H       1  UNL1        0.0622
     49 H           1.9939    0.4948   -1.1389 H       1  UNL1        0.0637
     50 H           0.1005    1.6717   -0.0088 H       1  UNL1        0.0638
     51 H          -2.8714   -1.5616    1.3924 H       1  UNL1        0.0444
     52 H          -4.5739   -1.0749    1.4284 H       1  UNL1        0.0444
     53 H          -2.9064   -1.7554   -0.8539 H       1  UNL1        0.0279
     54 H          -4.6376   -1.1686   -0.8545 H       1  UNL1        0.0279
     55 H          -3.7799    0.6480   -2.0021 H       1  UNL1        0.0282
     56 H          -2.0994    0.3823   -1.3047 H       1  UNL1        0.0282
     57 H          -2.7460    2.1815    0.0432 H       1  UNL1        0.0513
     58 H          -5.1411    2.4587    0.7980 H       1  UNL1        0.0713
     59 H          -4.9742    2.4201   -0.9658 H       1  UNL1        0.0713
     60 H          -7.6067   -1.1167   -0.3475 H       1  UNL1        0.0654
     61 H         -10.0573   -0.7858   -0.5411 H       1  UNL1        0.0619
     62 H         -11.0077    1.4661   -0.5687 H       1  UNL1        0.0618
     63 H          -9.5099    3.3834   -0.4026 H       1  UNL1        0.0619
     64 H          -7.0265    3.0526   -0.2062 H       1  UNL1        0.0654
     65 H          -0.6338   -1.8305    2.2162 H       1  UNL1        0.0645
@<TRIPOS>BOND
     1     1     2    2
     2     2     3    1
     3     3     4    2
     4     3     5   am
     5     5     6    1
     6     6     7    1
     7     7     8   ar
     8     8     9   ar
     9     9    10   ar
    10    10    11    1
    11    11    12    1
    12    12    13    1
    13    13    14    1
    14    10    15   ar
    15    15    16   ar
    16     5    17    1
    17    17    18   ar
    18    18    19   ar
    19    19    20   ar
    20    20    21    1
    21    21    22    2
    22    21    23    2
    23    21    24    1
    24    24    25    1
    25    25    26    1
    26    26    27    1
    27    27    28    1
    28    28    29    1
    29    29    30    1
    30    30    31    1
    31    31    32   ar
    32    32    33   ar
    33    33    34   ar
    34    34    35   ar
    35    35    36   ar
    36    20    37   ar
    37    37    38   ar
    38    38     2    1
    39    16     7   ar
    40    38    17   ar
    41    28    24    1
    42    36    31   ar
    43     6    39    1
    44     6    40    1
    45     8    41    1
    46     9    42    1
    47    12    43    1
    48    12    44    1
    49    13    45    1
    50    13    46    1
    51    15    47    1
    52    16    48    1
    53    18    49    1
    54    19    50    1
    55    25    51    1
    56    25    52    1
    57    26    53    1
    58    26    54    1
    59    27    55    1
    60    27    56    1
    61    28    57    1
    62    29    58    1
    63    29    59    1
    64    32    60    1
    65    33    61    1
    66    34    62    1
    67    35    63    1
    68    36    64    1
    69    37    65    1
