
     RDKit          3D

 54 56  0  0  0  0  0  0  0  0999 V2000
    5.2997   -0.9089    1.7137 C   0  0  0  0  0  0  0  0  0  0  0  0
    5.1220    0.1838    0.6972 C   0  0  0  0  0  0  0  0  0  0  0  0
    5.3318    1.5086    1.0723 C   0  0  0  0  0  0  0  0  0  0  0  0
    5.1858    2.5680    0.2071 C   0  0  0  0  0  0  0  0  0  0  0  0
    4.8127    2.2788   -1.0893 C   0  0  0  0  0  0  0  0  0  0  0  0
    4.5979    0.9803   -1.4912 C   0  0  0  0  0  0  0  0  0  0  0  0
    4.7497   -0.0595   -0.6112 C   0  0  0  0  0  0  0  0  0  0  0  0
    4.5531   -1.4604   -1.0521 C   0  0  0  0  0  0  0  0  0  0  0  0
    3.4590   -2.1226   -0.6066 O   0  0  0  0  0  0  0  0  0  0  0  0
    2.1059   -1.9636   -0.7216 C   0  0  0  0  0  0  0  0  0  0  0  0
    1.4833   -0.9627   -1.4231 C   0  0  0  0  0  0  0  0  0  0  0  0
    0.1268   -0.8742   -1.4867 C   0  0  0  0  0  0  0  0  0  0  0  0
   -0.6846   -1.7672   -0.8631 C   0  0  0  0  0  0  0  0  0  0  0  0
   -2.4281   -1.6073   -0.9836 S   0  0  0  0  0  6  0  0  0  0  0  0
   -2.8033   -1.1324   -2.3464 O   0  0  0  0  0  0  0  0  0  0  0  0
   -2.9796   -3.0223   -0.8615 O   0  0  0  0  0  0  0  0  0  0  0  0
   -3.1331   -0.6589    0.2037 N   0  0  0  0  0  0  0  0  0  0  0  0
   -3.0069   -1.0626    1.5461 C   0  0  0  0  0  0  0  0  0  0  0  0
   -4.0144   -0.3280    2.3992 C   0  0  0  0  0  0  0  0  0  0  0  0
   -4.0077    1.0862    2.2586 N   0  0  0  0  0  0  0  0  0  0  0  0
   -3.4573    1.6165    1.0592 C   0  0  1  0  0  0  0  0  0  0  0  0
   -2.0443    2.0836    1.3230 C   0  0  0  0  0  0  0  0  0  0  0  0
   -3.5220    0.6558   -0.0960 C   0  0  2  0  0  0  0  0  0  0  0  0
   -4.8705    0.6813   -0.6759 C   0  0  0  0  0  0  0  0  0  0  0  0
   -5.4915   -0.4021   -0.8227 O   0  0  0  0  0  0  0  0  0  0  0  0
   -5.5458    1.8581   -1.0944 N   0  0  0  0  0  0  0  0  0  0  0  0
   -6.7910    1.7898   -1.6195 O   0  0  0  0  0  0  0  0  0  0  0  0
   -0.1064   -2.7988   -0.1406 C   0  0  0  0  0  0  0  0  0  0  0  0
    1.2558   -2.8883   -0.0760 C   0  0  0  0  0  0  0  0  0  0  0  0
    6.3073   -0.7502    2.1575 H   0  0  0  0  0  0  0  0  0  0  0  0
    4.4934   -0.8122    2.4725 H   0  0  0  0  0  0  0  0  0  0  0  0
    5.3128   -1.9093    1.2563 H   0  0  0  0  0  0  0  0  0  0  0  0
    5.6247    1.7157    2.0959 H   0  0  0  0  0  0  0  0  0  0  0  0
    5.3654    3.5853    0.5622 H   0  0  0  0  0  0  0  0  0  0  0  0
    4.6958    3.1123   -1.7778 H   0  0  0  0  0  0  0  0  0  0  0  0
    4.3016    0.8149   -2.5405 H   0  0  0  0  0  0  0  0  0  0  0  0
    5.4708   -2.0474   -0.7382 H   0  0  0  0  0  0  0  0  0  0  0  0
    4.6404   -1.4756   -2.1769 H   0  0  0  0  0  0  0  0  0  0  0  0
    2.1246   -0.2294   -1.9467 H   0  0  0  0  0  0  0  0  0  0  0  0
   -0.3148   -0.0676   -2.0516 H   0  0  0  0  0  0  0  0  0  0  0  0
   -3.2814   -2.1515    1.6155 H   0  0  0  0  0  0  0  0  0  0  0  0
   -1.9811   -1.0030    1.9660 H   0  0  0  0  0  0  0  0  0  0  0  0
   -5.0131   -0.7891    2.1568 H   0  0  0  0  0  0  0  0  0  0  0  0
   -3.8116   -0.6397    3.4593 H   0  0  0  0  0  0  0  0  0  0  0  0
   -3.6067    1.5282    3.1076 H   0  0  0  0  0  0  0  0  0  0  0  0
   -4.0123    2.5425    0.7226 H   0  0  0  0  0  0  0  0  0  0  0  0
   -1.3473    1.2767    1.5734 H   0  0  0  0  0  0  0  0  0  0  0  0
   -2.0324    2.8006    2.1693 H   0  0  0  0  0  0  0  0  0  0  0  0
   -1.6975    2.6829    0.4331 H   0  0  0  0  0  0  0  0  0  0  0  0
   -2.8366    1.0537   -0.9009 H   0  0  0  0  0  0  0  0  0  0  0  0
   -5.0811    2.7626   -0.9956 H   0  0  0  0  0  0  0  0  0  0  0  0
   -7.4672    1.9209   -0.9209 H   0  0  0  0  0  0  0  0  0  0  0  0
   -0.7777   -3.4986    0.3476 H   0  0  0  0  0  0  0  0  0  0  0  0
    1.7268   -3.6935    0.4885 H   0  0  0  0  0  0  0  0  0  0  0  0
  1  2  1  0
  2  3  2  0
  3  4  1  0
  4  5  2  0
  5  6  1  0
  6  7  2  0
  7  8  1  0
  8  9  1  0
  9 10  1  0
 10 11  2  0
 11 12  1  0
 12 13  2  0
 13 14  1  0
 14 15  2  0
 14 16  2  0
 14 17  1  0
 17 18  1  0
 18 19  1  0
 19 20  1  0
 20 21  1  0
 21 22  1  0
 21 23  1  0
 23 24  1  0
 24 25  2  0
 24 26  1  0
 26 27  1  0
 13 28  1  0
 28 29  2  0
  7  2  1  0
 29 10  1  0
 23 17  1  0
  1 30  1  0
  1 31  1  0
  1 32  1  0
  3 33  1  0
  4 34  1  0
  5 35  1  0
  6 36  1  0
  8 37  1  0
  8 38  1  0
 11 39  1  0
 12 40  1  0
 18 41  1  0
 18 42  1  0
 19 43  1  0
 19 44  1  0
 20 45  1  0
 21 46  1  6
 22 47  1  0
 22 48  1  0
 22 49  1  0
 23 50  1  6
 26 51  1  0
 27 52  1  0
 28 53  1  0
 29 54  1  0
M  END
$$$$
