@<TRIPOS>MOLECULE
*****
 54 56 0 0 0
SMALL
GASTEIGER

@<TRIPOS>ATOM
      1 C           5.2997   -0.9089    1.7137 C.3     1  UNL1       -0.0393
      2 C           5.1220    0.1838    0.6972 C.ar    1  UNL1       -0.0441
      3 C           5.3318    1.5086    1.0723 C.ar    1  UNL1       -0.0585
      4 C           5.1858    2.5680    0.2071 C.ar    1  UNL1       -0.0615
      5 C           4.8127    2.2788   -1.0893 C.ar    1  UNL1       -0.0614
      6 C           4.5979    0.9803   -1.4912 C.ar    1  UNL1       -0.0551
      7 C           4.7497   -0.0595   -0.6112 C.ar    1  UNL1       -0.0075
      8 C           4.5531   -1.4604   -1.0521 C.3     1  UNL1        0.1149
      9 O           3.4590   -2.1226   -0.6066 O.3     1  UNL1       -0.4874
     10 C           2.1059   -1.9636   -0.7216 C.ar    1  UNL1        0.1211
     11 C           1.4833   -0.9627   -1.4231 C.ar    1  UNL1       -0.0181
     12 C           0.1268   -0.8742   -1.4867 C.ar    1  UNL1       -0.0319
     13 C          -0.6846   -1.7672   -0.8631 C.ar    1  UNL1        0.1057
     14 S          -2.4281   -1.6073   -0.9836 S.O2    1  UNL1        0.0616
     15 O          -2.8033   -1.1324   -2.3464 O.2     1  UNL1       -0.1528
     16 O          -2.9796   -3.0223   -0.8615 O.2     1  UNL1       -0.1528
     17 N          -3.1331   -0.6589    0.2037 N.3     1  UNL1       -0.1619
     18 C          -3.0069   -1.0626    1.5461 C.3     1  UNL1        0.0339
     19 C          -4.0144   -0.3280    2.3992 C.3     1  UNL1        0.0107
     20 N          -4.0077    1.0862    2.2586 N.3     1  UNL1       -0.3102
     21 C          -3.4573    1.6165    1.0592 C.3     1  UNL1        0.0306
     22 C          -2.0443    2.0836    1.3230 C.3     1  UNL1       -0.0477
     23 C          -3.5220    0.6558   -0.0960 C.3     1  UNL1        0.1247
     24 C          -4.8705    0.6813   -0.6759 C.2     1  UNL1        0.2558
     25 O          -5.4915   -0.4021   -0.8227 O.2     1  UNL1       -0.2719
     26 N          -5.5458    1.8581   -1.0944 N.am    1  UNL1       -0.1961
     27 O          -6.7910    1.7898   -1.6195 O.3     1  UNL1       -0.2951
     28 C          -0.1064   -2.7988   -0.1406 C.ar    1  UNL1       -0.0319
     29 C           1.2558   -2.8883   -0.0760 C.ar    1  UNL1       -0.0181
     30 H           6.3073   -0.7502    2.1575 H       1  UNL1        0.0278
     31 H           4.4934   -0.8122    2.4725 H       1  UNL1        0.0278
     32 H           5.3128   -1.9093    1.2563 H       1  UNL1        0.0278
     33 H           5.6247    1.7157    2.0959 H       1  UNL1        0.0620
     34 H           5.3654    3.5853    0.5622 H       1  UNL1        0.0618
     35 H           4.6958    3.1123   -1.7778 H       1  UNL1        0.0618
     36 H           4.3016    0.8149   -2.5405 H       1  UNL1        0.0621
     37 H           5.4708   -2.0474   -0.7382 H       1  UNL1        0.0748
     38 H           4.6404   -1.4756   -2.1769 H       1  UNL1        0.0748
     39 H           2.1246   -0.2294   -1.9467 H       1  UNL1        0.0655
     40 H          -0.3148   -0.0676   -2.0516 H       1  UNL1        0.0638
     41 H          -3.2814   -2.1515    1.6155 H       1  UNL1        0.0457
     42 H          -1.9811   -1.0030    1.9660 H       1  UNL1        0.0457
     43 H          -5.0131   -0.7891    2.1568 H       1  UNL1        0.0437
     44 H          -3.8116   -0.6397    3.4593 H       1  UNL1        0.0437
     45 H          -3.6067    1.5282    3.1076 H       1  UNL1        0.1223
     46 H          -4.0123    2.5425    0.7226 H       1  UNL1        0.0478
     47 H          -1.3473    1.2767    1.5734 H       1  UNL1        0.0245
     48 H          -2.0324    2.8006    2.1693 H       1  UNL1        0.0245
     49 H          -1.6975    2.6829    0.4331 H       1  UNL1        0.0245
     50 H          -2.8366    1.0537   -0.9009 H       1  UNL1        0.0592
     51 H          -5.0811    2.7626   -0.9956 H       1  UNL1        0.1822
     52 H          -7.4672    1.9209   -0.9209 H       1  UNL1        0.2414
     53 H          -0.7777   -3.4986    0.3476 H       1  UNL1        0.0638
     54 H           1.7268   -3.6935    0.4885 H       1  UNL1        0.0655
@<TRIPOS>BOND
     1     1     2    1
     2     2     3   ar
     3     3     4   ar
     4     4     5   ar
     5     5     6   ar
     6     6     7   ar
     7     7     8    1
     8     8     9    1
     9     9    10    1
    10    10    11   ar
    11    11    12   ar
    12    12    13   ar
    13    13    14    1
    14    14    15    2
    15    14    16    2
    16    14    17    1
    17    17    18    1
    18    18    19    1
    19    19    20    1
    20    20    21    1
    21    21    22    1
    22    21    23    1
    23    23    24    1
    24    24    25    2
    25    24    26   am
    26    26    27    1
    27    13    28   ar
    28    28    29   ar
    29     7     2   ar
    30    29    10   ar
    31    23    17    1
    32     1    30    1
    33     1    31    1
    34     1    32    1
    35     3    33    1
    36     4    34    1
    37     5    35    1
    38     6    36    1
    39     8    37    1
    40     8    38    1
    41    11    39    1
    42    12    40    1
    43    18    41    1
    44    18    42    1
    45    19    43    1
    46    19    44    1
    47    20    45    1
    48    21    46    1
    49    22    47    1
    50    22    48    1
    51    22    49    1
    52    23    50    1
    53    26    51    1
    54    27    52    1
    55    28    53    1
    56    29    54    1
