
     RDKit          3D

227232  0  0  0  0  0  0  0  0999 V2000
    3.7869    2.8947   -6.2439 C   0  0  0  0  0  0  0  0  0  0  0  0
    5.4567    2.7975   -5.5613 S   0  0  0  0  0  0  0  0  0  0  0  0
    5.4378    3.1826   -3.7864 C   0  0  0  0  0  0  0  0  0  0  0  0
    4.8271    2.1085   -2.9227 C   0  0  0  0  0  0  0  0  0  0  0  0
    4.8987    2.6561   -1.4633 C   0  0  2  0  0  0  0  0  0  0  0  0
    4.3495    1.6333   -0.6197 N   0  0  0  0  0  0  0  0  0  0  0  0
    5.2500    0.5860   -0.1708 C   0  0  0  0  0  0  0  0  0  0  0  0
    6.4593    0.5755   -0.5593 O   0  0  0  0  0  0  0  0  0  0  0  0
    4.6587   -0.4062    0.7384 C   0  0  2  0  0  0  0  0  0  0  0  0
    4.7212    0.4230    2.1221 C   0  0  0  0  0  0  0  0  0  0  0  0
    6.0363    0.7062    2.3969 O   0  0  0  0  0  0  0  0  0  0  0  0
    5.4569   -1.5771    1.0176 N   0  0  0  0  0  0  0  0  0  0  0  0
    4.6523   -2.5580    1.6891 C   0  0  0  0  0  0  0  0  0  0  0  0
    3.4230   -2.5652    2.0407 O   0  0  0  0  0  0  0  0  0  0  0  0
    4.4998   -3.8530    2.3225 C   0  0  2  0  0  0  0  0  0  0  0  0
    4.7459   -5.1037    1.5528 C   0  0  0  0  0  0  0  0  0  0  0  0
    6.0663   -5.3218    0.9802 C   0  0  0  0  0  0  0  0  0  0  0  0
    6.5215   -5.1198   -0.3035 C   0  0  0  0  0  0  0  0  0  0  0  0
    7.7840   -5.3318   -0.8040 C   0  0  0  0  0  0  0  0  0  0  0  0
    8.6852   -5.8117    0.1482 C   0  0  0  0  0  0  0  0  0  0  0  0
    9.9717   -6.0196   -0.3853 O   0  0  0  0  0  0  0  0  0  0  0  0
    8.3458   -6.0518    1.4545 C   0  0  0  0  0  0  0  0  0  0  0  0
    7.0220   -5.8113    1.9045 C   0  0  0  0  0  0  0  0  0  0  0  0
    3.0873   -3.9657    2.7730 N   0  0  0  0  0  0  0  0  0  0  0  0
    2.6664   -4.0439    4.1291 C   0  0  0  0  0  0  0  0  0  0  0  0
    3.4414   -4.0167    5.1503 O   0  0  0  0  0  0  0  0  0  0  0  0
    1.3451   -4.1673    4.7123 C   0  0  2  0  0  0  0  0  0  0  0  0
    0.2837   -3.2444    4.2004 C   0  0  0  0  0  0  0  0  0  0  0  0
   -0.9645   -3.7333    4.6733 O   0  0  0  0  0  0  0  0  0  0  0  0
    1.3197   -4.1744    6.1549 N   0  0  0  0  0  0  0  0  0  0  0  0
    1.0411   -4.9705    7.2832 C   0  0  0  0  0  0  0  0  0  0  0  0
    1.2005   -4.3750    8.6480 C   0  0  0  0  0  0  0  0  0  0  0  0
    0.6692   -6.1528    7.0916 O   0  0  0  0  0  0  0  0  0  0  0  0
    4.1188    3.9246   -1.4227 C   0  0  0  0  0  0  0  0  0  0  0  0
    4.3767    5.0939   -1.8631 O   0  0  0  0  0  0  0  0  0  0  0  0
    2.8168    4.1155   -0.8535 N   0  0  0  0  0  0  0  0  0  0  0  0
    1.9859    5.2855   -0.8278 C   0  0  1  0  0  0  0  0  0  0  0  0
    0.6666    5.0703   -1.5482 C   0  0  0  0  0  0  0  0  0  0  0  0
    0.8868    4.6773   -2.9863 C   0  0  0  0  0  0  0  0  0  0  0  0
    1.6192    5.6883   -3.7494 C   0  0  0  0  0  0  0  0  0  0  0  0
    2.6363    6.3604   -4.4209 O   0  0  0  0  0  0  0  0  0  0  0  0
    1.0060    6.7407   -4.1238 O   0  0  0  0  0  0  0  0  0  0  0  0
    1.6656    5.8067    0.5251 C   0  0  0  0  0  0  0  0  0  0  0  0
    2.1569    5.1882    1.4953 O   0  0  0  0  0  0  0  0  0  0  0  0
    0.8187    6.9741    0.6239 N   0  0  0  0  0  0  0  0  0  0  0  0
    0.5359    7.4368    1.9453 C   0  0  0  0  0  0  0  0  0  0  0  0
    1.6530    8.0587    2.6931 C   0  0  0  0  0  0  0  0  0  0  0  0
    2.2112    9.2591    2.0221 C   0  0  0  0  0  0  0  0  0  0  0  0
    1.9277    9.9437    0.8617 C   0  0  0  0  0  0  0  0  0  0  0  0
    2.7600   10.9922    0.7083 N   0  0  0  0  0  0  0  0  0  0  0  0
    3.5754   10.9662    1.7893 C   0  0  0  0  0  0  0  0  0  0  0  0
    3.2380    9.9278    2.5707 N   0  0  0  0  0  0  0  0  0  0  0  0
   -0.1649    6.4233    2.7988 C   0  0  0  0  0  0  0  0  0  0  0  0
   -0.2058    6.8057    4.0023 O   0  0  0  0  0  0  0  0  0  0  0  0
   -0.7451    5.1576    2.3940 N   0  0  0  0  0  0  0  0  0  0  0  0
   -1.3480    4.3370    3.4178 C   0  0  1  0  0  0  0  0  0  0  0  0
   -2.8146    4.4464    3.5856 C   0  0  0  0  0  0  0  0  0  0  0  0
   -3.6959    4.1223    2.4875 C   0  0  0  0  0  0  0  0  0  0  0  0
   -4.2064    2.8180    2.3752 C   0  0  0  0  0  0  0  0  0  0  0  0
   -5.0633    2.5127    1.3277 C   0  0  0  0  0  0  0  0  0  0  0  0
   -5.4321    3.4446    0.3951 C   0  0  0  0  0  0  0  0  0  0  0  0
   -4.9451    4.7357    0.4810 C   0  0  0  0  0  0  0  0  0  0  0  0
   -4.0844    5.0493    1.5266 C   0  0  0  0  0  0  0  0  0  0  0  0
   -0.8268    2.9753    3.2944 C   0  0  0  0  0  0  0  0  0  0  0  0
   -1.3572    2.3098    4.2462 O   0  0  0  0  0  0  0  0  0  0  0  0
    0.0751    2.4644    2.3386 N   0  0  0  0  0  0  0  0  0  0  0  0
    0.7584    1.2480    2.0100 C   0  0  1  0  0  0  0  0  0  0  0  0
    0.7651    0.3102    3.2165 C   0  0  0  0  0  0  0  0  0  0  0  0
    1.5396    0.9943    4.3142 C   0  0  0  0  0  0  0  0  0  0  0  0
    1.6623    0.2017    5.5916 C   0  0  0  0  0  0  0  0  0  0  0  0
    2.4461    1.0403    6.5257 N   0  0  0  0  0  0  0  0  0  0  0  0
    2.6832    0.5144    7.8118 C   0  0  0  0  0  0  0  0  0  0  0  0
    2.8295    1.3627    8.9400 N   0  0  0  0  0  0  0  0  0  0  0  0
    2.7582   -0.6698    7.9344 N   0  0  0  0  0  0  0  0  0  0  0  0
    0.3234    0.7107    0.7524 C   0  0  0  0  0  0  0  0  0  0  0  0
   -0.3222    1.8099    0.5479 O   0  0  0  0  0  0  0  0  0  0  0  0
    0.2770   -0.3335   -0.2449 N   0  0  0  0  0  0  0  0  0  0  0  0
   -0.5194    0.0300   -1.3889 C   0  0  1  0  0  0  0  0  0  0  0  0
   -0.1982   -0.7181   -2.6302 C   0  0  0  0  0  0  0  0  0  0  0  0
    1.0761   -0.6516   -3.3005 C   0  0  0  0  0  0  0  0  0  0  0  0
    1.1669   -0.0207   -4.5361 C   0  0  0  0  0  0  0  0  0  0  0  0
    2.4107   -0.0983   -5.0722 N   0  0  0  0  0  0  0  0  0  0  0  0
    3.1597   -0.7875   -4.1889 C   0  0  0  0  0  0  0  0  0  0  0  0
    4.4867   -1.1437   -4.2740 C   0  0  0  0  0  0  0  0  0  0  0  0
    5.0432   -1.8671   -3.2469 C   0  0  0  0  0  0  0  0  0  0  0  0
    4.2160   -2.1848   -2.1932 C   0  0  0  0  0  0  0  0  0  0  0  0
    2.8668   -1.8378   -2.0785 C   0  0  0  0  0  0  0  0  0  0  0  0
    2.3585   -1.1197   -3.1197 C   0  0  0  0  0  0  0  0  0  0  0  0
   -2.0152   -0.1830   -1.1189 C   0  0  0  0  0  0  0  0  0  0  0  0
   -2.5943    0.5296   -2.0232 O   0  0  0  0  0  0  0  0  0  0  0  0
   -2.8202   -0.9389   -0.1771 N   0  0  0  0  0  0  0  0  0  0  0  0
   -4.1946   -0.6604   -0.6035 C   0  0  0  0  0  0  0  0  0  0  0  0
   -4.3739   -1.1362   -2.0238 C   0  0  0  0  0  0  0  0  0  0  0  0
   -3.2925   -1.6688   -2.3611 O   0  0  0  0  0  0  0  0  0  0  0  0
   -5.5584   -0.9956   -2.8333 N   0  0  0  0  0  0  0  0  0  0  0  0
   -5.5652   -1.4597   -4.2049 C   0  0  1  0  0  0  0  0  0  0  0  0
   -4.3543   -0.9603   -4.9399 C   0  0  0  0  0  0  0  0  0  0  0  0
   -4.3289    0.5709   -4.9267 C   0  0  0  0  0  0  0  0  0  0  0  0
   -3.1000    1.0313   -5.6397 C   0  0  0  0  0  0  0  0  0  0  0  0
   -2.9602    2.5367   -5.6312 C   0  0  0  0  0  0  0  0  0  0  0  0
   -4.0899    3.1316   -6.2938 N   0  0  0  0  0  0  0  0  0  0  0  0
   -5.8079   -2.8857   -4.3932 C   0  0  0  0  0  0  0  0  0  0  0  0
   -5.4809   -3.3199   -5.5261 O   0  0  0  0  0  0  0  0  0  0  0  0
   -6.3634   -3.9025   -3.5335 N   0  0  0  0  0  0  0  0  0  0  0  0
   -6.4180   -5.2524   -4.0348 C   0  0  0  0  0  0  0  0  0  0  0  0
   -7.6633   -5.7822   -3.3118 C   0  0  0  0  0  0  0  0  0  0  0  0
   -8.2168   -4.6401   -2.4934 C   0  0  0  0  0  0  0  0  0  0  0  0
   -6.9630   -3.7605   -2.2192 C   0  0  1  0  0  0  0  0  0  0  0  0
   -6.2632   -4.3683   -1.1178 C   0  0  0  0  0  0  0  0  0  0  0  0
   -6.6015   -3.7768   -0.0252 O   0  0  0  0  0  0  0  0  0  0  0  0
   -5.3586   -5.3592   -0.8028 N   0  0  0  0  0  0  0  0  0  0  0  0
   -4.6814   -5.9154    0.3168 C   0  0  1  0  0  0  0  0  0  0  0  0
   -5.3910   -7.1591    0.8671 C   0  0  0  0  0  0  0  0  0  0  0  0
   -5.5139   -8.2669   -0.1621 C   0  0  0  0  0  0  0  0  0  0  0  0
   -6.7277   -6.8059    1.4498 C   0  0  0  0  0  0  0  0  0  0  0  0
   -3.2607   -6.2539    0.0779 C   0  0  0  0  0  0  0  0  0  0  0  0
   -2.6107   -6.7313    1.2486 N   0  0  0  0  0  0  0  0  0  0  0  0
   -2.3596   -6.2807   -0.8177 O   0  0  0  0  0  0  0  0  0  0  0  0
    3.0154    2.5909   -5.5325 H   0  0  0  0  0  0  0  0  0  0  0  0
    3.6400    2.2879   -7.1656 H   0  0  0  0  0  0  0  0  0  0  0  0
    3.5333    3.9602   -6.5088 H   0  0  0  0  0  0  0  0  0  0  0  0
    6.3956    3.5353   -3.3976 H   0  0  0  0  0  0  0  0  0  0  0  0
    4.7327    4.0571   -3.7205 H   0  0  0  0  0  0  0  0  0  0  0  0
    5.3836    1.1767   -2.8987 H   0  0  0  0  0  0  0  0  0  0  0  0
    3.7674    2.0364   -3.1575 H   0  0  0  0  0  0  0  0  0  0  0  0
    5.9616    2.8690   -1.3437 H   0  0  0  0  0  0  0  0  0  0  0  0
    3.3658    1.6048   -0.3205 H   0  0  0  0  0  0  0  0  0  0  0  0
    3.5859   -0.5398    0.6746 H   0  0  0  0  0  0  0  0  0  0  0  0
    4.1827   -0.1880    2.8487 H   0  0  0  0  0  0  0  0  0  0  0  0
    4.1605    1.3279    1.8844 H   0  0  0  0  0  0  0  0  0  0  0  0
    6.1675    1.6931    2.2979 H   0  0  0  0  0  0  0  0  0  0  0  0
    6.3358   -2.1279    0.9974 H   0  0  0  0  0  0  0  0  0  0  0  0
    5.0696   -3.8935    3.2973 H   0  0  0  0  0  0  0  0  0  0  0  0
    3.9355   -5.2132    0.7792 H   0  0  0  0  0  0  0  0  0  0  0  0
    4.5258   -5.9535    2.2630 H   0  0  0  0  0  0  0  0  0  0  0  0
    5.7579   -4.7687   -0.9864 H   0  0  0  0  0  0  0  0  0  0  0  0
    8.0067   -5.1289   -1.8401 H   0  0  0  0  0  0  0  0  0  0  0  0
   10.0356   -6.6518   -1.1940 H   0  0  0  0  0  0  0  0  0  0  0  0
    9.1183   -6.4233    2.1166 H   0  0  0  0  0  0  0  0  0  0  0  0
    6.8697   -6.0294    2.9427 H   0  0  0  0  0  0  0  0  0  0  0  0
    2.2167   -4.0169    2.1888 H   0  0  0  0  0  0  0  0  0  0  0  0
    0.9695   -5.2078    4.4251 H   0  0  0  0  0  0  0  0  0  0  0  0
    0.1816   -3.2311    3.1004 H   0  0  0  0  0  0  0  0  0  0  0  0
    0.3862   -2.2188    4.5547 H   0  0  0  0  0  0  0  0  0  0  0  0
   -1.4601   -3.0403    5.1244 H   0  0  0  0  0  0  0  0  0  0  0  0
    1.6465   -3.1837    6.3411 H   0  0  0  0  0  0  0  0  0  0  0  0
    1.1092   -3.2675    8.5472 H   0  0  0  0  0  0  0  0  0  0  0  0
    2.2032   -4.5942    9.0077 H   0  0  0  0  0  0  0  0  0  0  0  0
    0.3774   -4.6964    9.3238 H   0  0  0  0  0  0  0  0  0  0  0  0
    2.3338    3.2943   -0.3649 H   0  0  0  0  0  0  0  0  0  0  0  0
    2.5023    6.0907   -1.3639 H   0  0  0  0  0  0  0  0  0  0  0  0
    0.1893    6.0808   -1.6035 H   0  0  0  0  0  0  0  0  0  0  0  0
   -0.0437    4.4560   -0.9978 H   0  0  0  0  0  0  0  0  0  0  0  0
   -0.0641    4.4644   -3.5337 H   0  0  0  0  0  0  0  0  0  0  0  0
    1.4034    3.6812   -2.9719 H   0  0  0  0  0  0  0  0  0  0  0  0
    3.4968    6.6593   -4.0171 H   0  0  0  0  0  0  0  0  0  0  0  0
    0.4279    7.4660   -0.2166 H   0  0  0  0  0  0  0  0  0  0  0  0
   -0.2622    8.2408    1.8160 H   0  0  0  0  0  0  0  0  0  0  0  0
    2.4977    7.3630    2.8884 H   0  0  0  0  0  0  0  0  0  0  0  0
    1.2899    8.3420    3.7138 H   0  0  0  0  0  0  0  0  0  0  0  0
    1.1611    9.6767    0.1985 H   0  0  0  0  0  0  0  0  0  0  0  0
    4.3678   11.6750    1.9833 H   0  0  0  0  0  0  0  0  0  0  0  0
    3.7455    9.7184    3.4815 H   0  0  0  0  0  0  0  0  0  0  0  0
   -0.6517    5.0084    1.3575 H   0  0  0  0  0  0  0  0  0  0  0  0
   -0.9297    4.7808    4.3833 H   0  0  0  0  0  0  0  0  0  0  0  0
   -3.0186    5.5040    3.9390 H   0  0  0  0  0  0  0  0  0  0  0  0
   -3.0537    3.8406    4.5227 H   0  0  0  0  0  0  0  0  0  0  0  0
   -3.8938    2.0966    3.1405 H   0  0  0  0  0  0  0  0  0  0  0  0
   -5.3690    1.4531    1.3693 H   0  0  0  0  0  0  0  0  0  0  0  0
   -6.1018    3.1059   -0.3894 H   0  0  0  0  0  0  0  0  0  0  0  0
   -5.2380    5.4741   -0.2405 H   0  0  0  0  0  0  0  0  0  0  0  0
   -3.6652    6.0217    1.6685 H   0  0  0  0  0  0  0  0  0  0  0  0
    0.3009    3.2066    1.6798 H   0  0  0  0  0  0  0  0  0  0  0  0
    1.9012    1.5177    1.9861 H   0  0  0  0  0  0  0  0  0  0  0  0
   -0.2867    0.2242    3.5438 H   0  0  0  0  0  0  0  0  0  0  0  0
    1.2793   -0.6194    2.9764 H   0  0  0  0  0  0  0  0  0  0  0  0
    1.1122    1.9729    4.6056 H   0  0  0  0  0  0  0  0  0  0  0  0
    2.5875    1.1461    3.9158 H   0  0  0  0  0  0  0  0  0  0  0  0
    0.6625    0.1179    6.0126 H   0  0  0  0  0  0  0  0  0  0  0  0
    2.1272   -0.7788    5.4985 H   0  0  0  0  0  0  0  0  0  0  0  0
    2.8241    2.0075    6.2609 H   0  0  0  0  0  0  0  0  0  0  0  0
    2.8483    1.2308    9.9596 H   0  0  0  0  0  0  0  0  0  0  0  0
    2.9480    2.0803    9.7318 H   0  0  0  0  0  0  0  0  0  0  0  0
    2.8448   -1.5932    8.2027 H   0  0  0  0  0  0  0  0  0  0  0  0
    0.8856   -0.9952    0.3104 H   0  0  0  0  0  0  0  0  0  0  0  0
   -0.4291    1.1148   -1.5481 H   0  0  0  0  0  0  0  0  0  0  0  0
   -1.0229   -0.4573   -3.3688 H   0  0  0  0  0  0  0  0  0  0  0  0
   -0.4662   -1.8451   -2.4514 H   0  0  0  0  0  0  0  0  0  0  0  0
    0.4371    0.5178   -5.1238 H   0  0  0  0  0  0  0  0  0  0  0  0
    2.7617    0.2696   -5.9783 H   0  0  0  0  0  0  0  0  0  0  0  0
    5.1254   -0.8623   -5.1287 H   0  0  0  0  0  0  0  0  0  0  0  0
    6.0734   -2.1516   -3.2899 H   0  0  0  0  0  0  0  0  0  0  0  0
    4.6495   -2.7463   -1.3825 H   0  0  0  0  0  0  0  0  0  0  0  0
    2.2165   -2.0877   -1.2682 H   0  0  0  0  0  0  0  0  0  0  0  0
   -2.0943   -1.3788    0.4298 H   0  0  0  0  0  0  0  0  0  0  0  0
   -4.8883   -1.2645    0.0120 H   0  0  0  0  0  0  0  0  0  0  0  0
   -4.4067    0.4121   -0.5440 H   0  0  0  0  0  0  0  0  0  0  0  0
   -6.2653   -0.5439   -2.2043 H   0  0  0  0  0  0  0  0  0  0  0  0
   -6.4536   -0.8607   -4.6681 H   0  0  0  0  0  0  0  0  0  0  0  0
   -3.4355   -1.3385   -4.5176 H   0  0  0  0  0  0  0  0  0  0  0  0
   -4.3887   -1.3123   -5.9973 H   0  0  0  0  0  0  0  0  0  0  0  0
   -4.4512    0.9508   -3.9187 H   0  0  0  0  0  0  0  0  0  0  0  0
   -5.2330    0.8666   -5.5376 H   0  0  0  0  0  0  0  0  0  0  0  0
   -2.1738    0.6010   -5.2202 H   0  0  0  0  0  0  0  0  0  0  0  0
   -3.1110    0.6617   -6.7167 H   0  0  0  0  0  0  0  0  0  0  0  0
   -1.9996    2.7738   -6.1403 H   0  0  0  0  0  0  0  0  0  0  0  0
   -2.8763    2.8557   -4.5631 H   0  0  0  0  0  0  0  0  0  0  0  0
   -4.0308    4.1758   -6.0517 H   0  0  0  0  0  0  0  0  0  0  0  0
   -4.9987    2.8449   -5.8861 H   0  0  0  0  0  0  0  0  0  0  0  0
   -6.5896   -5.2523   -5.1522 H   0  0  0  0  0  0  0  0  0  0  0  0
   -5.5402   -5.8662   -3.8175 H   0  0  0  0  0  0  0  0  0  0  0  0
   -7.4422   -6.6808   -2.7002 H   0  0  0  0  0  0  0  0  0  0  0  0
   -8.3757   -6.0887   -4.1369 H   0  0  0  0  0  0  0  0  0  0  0  0
   -8.7360   -4.9048   -1.5844 H   0  0  0  0  0  0  0  0  0  0  0  0
   -8.8196   -4.0354   -3.2317 H   0  0  0  0  0  0  0  0  0  0  0  0
   -7.2955   -2.7121   -2.0430 H   0  0  0  0  0  0  0  0  0  0  0  0
   -5.0504   -5.8929   -1.6338 H   0  0  0  0  0  0  0  0  0  0  0  0
   -4.7307   -5.1932    1.1692 H   0  0  0  0  0  0  0  0  0  0  0  0
   -4.7494   -7.5662    1.7022 H   0  0  0  0  0  0  0  0  0  0  0  0
   -4.9337   -9.1807    0.1197 H   0  0  0  0  0  0  0  0  0  0  0  0
   -5.1125   -7.9628   -1.1759 H   0  0  0  0  0  0  0  0  0  0  0  0
   -6.5696   -8.6205   -0.2744 H   0  0  0  0  0  0  0  0  0  0  0  0
   -6.5907   -6.2429    2.4183 H   0  0  0  0  0  0  0  0  0  0  0  0
   -7.3731   -6.2669    0.7381 H   0  0  0  0  0  0  0  0  0  0  0  0
   -7.2454   -7.7609    1.7154 H   0  0  0  0  0  0  0  0  0  0  0  0
   -2.1684   -6.7818    2.1886 H   0  0  0  0  0  0  0  0  0  0  0  0
   -2.3159   -7.7390    1.3325 H   0  0  0  0  0  0  0  0  0  0  0  0
  1  2  1  0
  2  3  1  0
  3  4  1  0
  4  5  1  0
  5  6  1  0
  6  7  1  0
  7  8  2  0
  7  9  1  0
  9 10  1  0
 10 11  1  0
  9 12  1  0
 12 13  1  0
 13 14  2  0
 13 15  1  0
 15 16  1  0
 16 17  1  0
 17 18  2  0
 18 19  1  0
 19 20  2  0
 20 21  1  0
 20 22  1  0
 22 23  2  0
 15 24  1  0
 24 25  1  0
 25 26  2  0
 25 27  1  0
 27 28  1  0
 28 29  1  0
 27 30  1  0
 30 31  1  0
 31 32  1  0
 31 33  2  0
  5 34  1  0
 34 35  2  0
 34 36  1  0
 36 37  1  0
 37 38  1  0
 38 39  1  0
 39 40  1  0
 40 41  1  0
 40 42  2  0
 37 43  1  0
 43 44  2  0
 43 45  1  0
 45 46  1  0
 46 47  1  0
 47 48  1  0
 48 49  2  0
 49 50  1  0
 50 51  2  0
 51 52  1  0
 46 53  1  0
 53 54  2  0
 53 55  1  0
 55 56  1  0
 56 57  1  0
 57 58  1  0
 58 59  2  0
 59 60  1  0
 60 61  2  0
 61 62  1  0
 62 63  2  0
 56 64  1  0
 64 65  2  0
 64 66  1  0
 66 67  1  0
 67 68  1  0
 68 69  1  0
 69 70  1  0
 70 71  1  0
 71 72  1  0
 72 73  1  0
 72 74  2  3
 67 75  1  0
 75 76  2  0
 75 77  1  0
 77 78  1  0
 78 79  1  0
 79 80  1  0
 80 81  2  0
 81 82  1  0
 82 83  1  0
 83 84  2  0
 84 85  1  0
 85 86  2  0
 86 87  1  0
 87 88  2  0
 78 89  1  0
 89 90  2  0
 89 91  1  0
 91 92  1  0
 92 93  1  0
 93 94  2  0
 93 95  1  0
 95 96  1  0
 96 97  1  0
 97 98  1  0
 98 99  1  0
 99100  1  0
100101  1  0
 96102  1  0
102103  2  0
102104  1  0
104105  1  0
105106  1  0
106107  1  0
107108  1  0
108109  1  0
109110  2  0
109111  1  0
111112  1  0
112113  1  0
113114  1  0
113115  1  0
112116  1  0
116117  1  0
116118  2  0
 23 17  1  0
 52 48  1  0
 63 58  1  0
 88 80  1  0
108104  1  0
 88 83  1  0
  1119  1  0
  1120  1  0
  1121  1  0
  3122  1  0
  3123  1  0
  4124  1  0
  4125  1  0
  5126  1  1
  6127  1  0
  9128  1  6
 10129  1  0
 10130  1  0
 11131  1  0
 12132  1  0
 15133  1  1
 16134  1  0
 16135  1  0
 18136  1  0
 19137  1  0
 21138  1  0
 22139  1  0
 23140  1  0
 24141  1  0
 27142  1  6
 28143  1  0
 28144  1  0
 29145  1  0
 30146  1  0
 32147  1  0
 32148  1  0
 32149  1  0
 36150  1  0
 37151  1  6
 38152  1  0
 38153  1  0
 39154  1  0
 39155  1  0
 41156  1  0
 45157  1  0
 46158  1  0
 47159  1  0
 47160  1  0
 49161  1  0
 51162  1  0
 52163  1  0
 55164  1  0
 56165  1  1
 57166  1  0
 57167  1  0
 59168  1  0
 60169  1  0
 61170  1  0
 62171  1  0
 63172  1  0
 66173  1  0
 67174  1  6
 68175  1  0
 68176  1  0
 69177  1  0
 69178  1  0
 70179  1  0
 70180  1  0
 71181  1  0
 73182  1  0
 73183  1  0
 74184  1  0
 77185  1  0
 78186  1  6
 79187  1  0
 79188  1  0
 81189  1  0
 82190  1  0
 84191  1  0
 85192  1  0
 86193  1  0
 87194  1  0
 91195  1  0
 92196  1  0
 92197  1  0
 95198  1  0
 96199  1  6
 97200  1  0
 97201  1  0
 98202  1  0
 98203  1  0
 99204  1  0
 99205  1  0
100206  1  0
100207  1  0
101208  1  0
101209  1  0
105210  1  0
105211  1  0
106212  1  0
106213  1  0
107214  1  0
107215  1  0
108216  1  1
111217  1  0
112218  1  1
113219  1  0
114220  1  0
114221  1  0
114222  1  0
115223  1  0
115224  1  0
115225  1  0
117226  1  0
117227  1  0
M  END
$$$$
