@<TRIPOS>MOLECULE
*****
 227 232 0 0 0
SMALL
GASTEIGER

@<TRIPOS>ATOM
      1 C           3.7869    2.8947   -6.2439 C.3     1  UNK1       -0.0181
      2 S           5.4567    2.7975   -5.5613 S.3     1  UNK1       -0.1641
      3 C           5.4378    3.1826   -3.7864 C.3     1  UNK1       -0.0044
      4 C           4.8271    2.1085   -2.9227 C.3     1  UNK1       -0.0169
      5 C           4.8987    2.6561   -1.4633 C.3     1  UNK1        0.1002
      6 N           4.3495    1.6333   -0.6197 N.am    1  UNK1       -0.3024
      7 C           5.2500    0.5860   -0.1708 C.2     1  UNK1        0.2362
      8 O           6.4593    0.5755   -0.5593 O.2     1  UNK1       -0.2737
      9 C           4.6587   -0.4062    0.7384 C.3     1  UNK1        0.1226
     10 C           4.7212    0.4230    2.1221 C.3     1  UNK1        0.0711
     11 O           6.0363    0.7062    2.3969 O.3     1  UNK1       -0.3927
     12 N           5.4569   -1.5771    1.0176 N.am    1  UNK1       -0.3006
     13 C           4.6523   -2.5580    1.6891 C.2     1  UNK1        0.2343
     14 O           3.4230   -2.5652    2.0407 O.2     1  UNK1       -0.2738
     15 C           4.4998   -3.8530    2.3225 C.3     1  UNK1        0.1034
     16 C           4.7459   -5.1037    1.5528 C.3     1  UNK1       -0.0007
     17 C           6.0663   -5.3218    0.9802 C.ar    1  UNK1       -0.0449
     18 C           6.5215   -5.1198   -0.3035 C.ar    1  UNK1       -0.0551
     19 C           7.7840   -5.3318   -0.8040 C.ar    1  UNK1       -0.0199
     20 C           8.6852   -5.8117    0.1482 C.ar    1  UNK1        0.1169
     21 O           9.9717   -6.0196   -0.3853 O.3     1  UNK1       -0.5068
     22 C           8.3458   -6.0518    1.4545 C.ar    1  UNK1       -0.0199
     23 C           7.0220   -5.8113    1.9045 C.ar    1  UNK1       -0.0551
     24 N           3.0873   -3.9657    2.7730 N.am    1  UNK1       -0.3021
     25 C           2.6664   -4.0439    4.1291 C.2     1  UNK1        0.2362
     26 O           3.4414   -4.0167    5.1503 O.2     1  UNK1       -0.2737
     27 C           1.3451   -4.1673    4.7123 C.3     1  UNK1        0.1225
     28 C           0.2837   -3.2444    4.2004 C.3     1  UNK1        0.0711
     29 O          -0.9645   -3.7333    4.6733 O.3     1  UNK1       -0.3927
     30 N           1.3197   -4.1744    6.1549 N.am    1  UNK1       -0.3023
     31 C           1.0411   -4.9705    7.2832 C.2     0  UNK0        0.2106
     32 C           1.2005   -4.3750    8.6480 C.3     0  UNK0        0.0122
     33 O           0.6692   -6.1528    7.0916 O.2     0  UNK0       -0.2761
     34 C           4.1188    3.9246   -1.4227 C.2     1  UNK1        0.2340
     35 O           4.3767    5.0939   -1.8631 O.2     1  UNK1       -0.2738
     36 N           2.8168    4.1155   -0.8535 N.am    1  UNK1       -0.3025
     37 C           1.9859    5.2855   -0.8278 C.3     1  UNK1        0.0999
     38 C           0.6666    5.0703   -1.5482 C.3     1  UNK1       -0.0159
     39 C           0.8868    4.6773   -2.9863 C.3     1  UNK1        0.0469
     40 C           1.6192    5.6883   -3.7494 C.2     1  UNK1        0.3048
     41 O           2.6363    6.3604   -4.4209 O.3     1  UNK1       -0.4806
     42 O           1.0060    6.7407   -4.1238 O.2     1  UNK1       -0.2510
     43 C           1.6656    5.8067    0.5251 C.2     1  UNK1        0.2340
     44 O           2.1569    5.1882    1.4953 O.2     1  UNK1       -0.2738
     45 N           0.8187    6.9741    0.6239 N.am    1  UNK1       -0.3021
     46 C           0.5359    7.4368    1.9453 C.3     1  UNK1        0.1048
     47 C           1.6530    8.0587    2.6931 C.3     1  UNK1        0.0160
     48 C           2.2112    9.2591    2.0221 C.ar    1  UNK1        0.0375
     49 C           1.9277    9.9437    0.8617 C.ar    1  UNK1        0.0485
     50 N           2.7600   10.9922    0.7083 N.ar    1  UNK1       -0.2440
     51 C           3.5754   10.9662    1.7893 C.ar    1  UNK1        0.0935
     52 N           3.2380    9.9278    2.5707 N.ar    1  UNK1       -0.3481
     53 C          -0.1649    6.4233    2.7988 C.2     1  UNK1        0.2343
     54 O          -0.2058    6.8057    4.0023 O.2     1  UNK1       -0.2738
     55 N          -0.7451    5.1576    2.3940 N.am    1  UNK1       -0.3022
     56 C          -1.3480    4.3370    3.4178 C.3     1  UNK1        0.1034
     57 C          -2.8146    4.4464    3.5856 C.3     1  UNK1       -0.0007
     58 C          -3.6959    4.1223    2.4875 C.ar    1  UNK1       -0.0451
     59 C          -4.2064    2.8180    2.3752 C.ar    1  UNK1       -0.0585
     60 C          -5.0633    2.5127    1.3277 C.ar    1  UNK1       -0.0615
     61 C          -5.4321    3.4446    0.3951 C.ar    1  UNK1       -0.0617
     62 C          -4.9451    4.7357    0.4810 C.ar    1  UNK1       -0.0615
     63 C          -4.0844    5.0493    1.5266 C.ar    1  UNK1       -0.0585
     64 C          -0.8268    2.9753    3.2944 C.2     1  UNK1        0.2343
     65 O          -1.3572    2.3098    4.2462 O.2     1  UNK1       -0.2738
     66 N           0.0751    2.4644    2.3386 N.am    1  UNK1       -0.3025
     67 C           0.7584    1.2480    2.0100 C.3     1  UNK1        0.0995
     68 C           0.7651    0.3102    3.2165 C.3     1  UNK1       -0.0231
     69 C           1.5396    0.9943    4.3142 C.3     1  UNK1       -0.0201
     70 C           1.6623    0.2017    5.5916 C.3     1  UNK1        0.0647
     71 N           2.4461    1.0403    6.5257 N.pl3   1  UNK1       -0.2761
     72 C           2.6832    0.5144    7.8118 C.cat   1  UNK1        0.3762
     73 N           2.8295    1.3627    8.9400 N.pl3   1  UNK1       -0.2893
     74 N           2.7582   -0.6698    7.9344 N.pl3   1  UNK1       -0.1298
     75 C           0.3234    0.7107    0.7524 C.2     1  UNK1        0.2340
     76 O          -0.3222    1.8099    0.5479 O.2     1  UNK1       -0.2738
     77 N           0.2770   -0.3335   -0.2449 N.am    1  UNK1       -0.3022
     78 C          -0.5194    0.0300   -1.3889 C.3     1  UNK1        0.1034
     79 C          -0.1982   -0.7181   -2.6302 C.3     1  UNK1        0.0013
     80 C           1.0761   -0.6516   -3.3005 C.ar    1  UNK1       -0.0201
     81 C           1.1669   -0.0207   -4.5361 C.ar    1  UNK1        0.0060
     82 N           2.4107   -0.0983   -5.0722 N.ar    1  UNK1       -0.3604
     83 C           3.1597   -0.7875   -4.1889 C.ar    1  UNK1        0.0467
     84 C           4.4867   -1.1437   -4.2740 C.ar    1  UNK1       -0.0378
     85 C           5.0432   -1.8671   -3.2469 C.ar    1  UNK1       -0.0598
     86 C           4.2160   -2.1848   -2.1932 C.ar    1  UNK1       -0.0611
     87 C           2.8668   -1.8378   -2.0785 C.ar    1  UNK1       -0.0523
     88 C           2.3585   -1.1197   -3.1197 C.ar    1  UNK1        0.0029
     89 C          -2.0152   -0.1830   -1.1189 C.2     1  UNK1        0.2341
     90 O          -2.5943    0.5296   -2.0232 O.2     1  UNK1       -0.2738
     91 N          -2.8202   -0.9389   -0.1771 N.am    1  UNK1       -0.3052
     92 C          -4.1946   -0.6604   -0.6035 C.3     1  UNK1        0.0882
     93 C          -4.3739   -1.1362   -2.0238 C.2     1  UNK1        0.2308
     94 O          -3.2925   -1.6688   -2.3611 O.2     1  UNK1       -0.2741
     95 N          -5.5584   -0.9956   -2.8333 N.am    1  UNK1       -0.3027
     96 C          -5.5652   -1.4597   -4.2049 C.3     1  UNK1        0.0996
     97 C          -4.3543   -0.9603   -4.9399 C.3     1  UNK1       -0.0259
     98 C          -4.3289    0.5709   -4.9267 C.3     1  UNK1       -0.0498
     99 C          -3.1000    1.0313   -5.6397 C.3     1  UNK1       -0.0406
    100 C          -2.9602    2.5367   -5.6312 C.3     1  UNK1       -0.0069
    101 N          -4.0899    3.1316   -6.2938 N.3     1  UNK1       -0.3300
    102 C          -5.8079   -2.8857   -4.3932 C.2     1  UNK1        0.2365
    103 O          -5.4809   -3.3199   -5.5261 O.2     1  UNK1       -0.2735
    104 N          -6.3634   -3.9025   -3.5335 N.am    1  UNK1       -0.2884
    105 C          -6.4180   -5.2524   -4.0348 C.3     1  UNK1        0.0156
    106 C          -7.6633   -5.7822   -3.3118 C.3     1  UNK1       -0.0350
    107 C          -8.2168   -4.6401   -2.4934 C.3     1  UNK1       -0.0243
    108 C          -6.9630   -3.7605   -2.2192 C.3     1  UNK1        0.1023
    109 C          -6.2632   -4.3683   -1.1178 C.2     1  UNK1        0.2342
    110 O          -6.6015   -3.7768   -0.0252 O.2     1  UNK1       -0.2738
    111 N          -5.3586   -5.3592   -0.8028 N.am    1  UNK1       -0.3022
    112 C          -4.6814   -5.9154    0.3168 C.3     1  UNK1        0.1015
    113 C          -5.3910   -7.1591    0.8671 C.3     1  UNK1       -0.0197
    114 C          -5.5139   -8.2669   -0.1621 C.3     1  UNK1       -0.0605
    115 C          -6.7277   -6.8059    1.4498 C.3     1  UNK1       -0.0605
    116 C          -3.2607   -6.2539    0.0779 C.2     1  UNK1        0.2311
    117 N          -2.6107   -6.7313    1.2486 N.am    1  UNK1       -0.3278
    118 O          -2.3596   -6.2807   -0.8177 O.2     1  UNK1       -0.2740
    119 H           3.0154    2.5909   -5.5325 H       1  UNK1        0.0340
    120 H           3.6400    2.2879   -7.1656 H       1  UNK1        0.0340
    121 H           3.5333    3.9602   -6.5088 H       1  UNK1        0.0340
    122 H           6.3956    3.5353   -3.3976 H       1  UNK1        0.0377
    123 H           4.7327    4.0571   -3.7205 H       1  UNK1        0.0377
    124 H           5.3836    1.1767   -2.8987 H       1  UNK1        0.0296
    125 H           3.7674    2.0364   -3.1575 H       1  UNK1        0.0296
    126 H           5.9616    2.8690   -1.3437 H       1  UNK1        0.0595
    127 H           3.3658    1.6048   -0.3205 H       1  UNK1        0.1495
    128 H           3.5859   -0.5398    0.6746 H       1  UNK1        0.0618
    129 H           4.1827   -0.1880    2.8487 H       1  UNK1        0.0580
    130 H           4.1605    1.3279    1.8844 H       1  UNK1        0.0580
    131 H           6.1675    1.6931    2.2979 H       1  UNK1        0.2095
    132 H           6.3358   -2.1279    0.9974 H       1  UNK1        0.1496
    133 H           5.0696   -3.8935    3.2973 H       1  UNK1        0.0598
    134 H           3.9355   -5.2132    0.7792 H       1  UNK1        0.0336
    135 H           4.5258   -5.9535    2.2630 H       1  UNK1        0.0336
    136 H           5.7579   -4.7687   -0.9864 H       1  UNK1        0.0621
    137 H           8.0067   -5.1289   -1.8401 H       1  UNK1        0.0654
    138 H          10.0356   -6.6518   -1.1940 H       1  UNK1        0.2921
    139 H           9.1183   -6.4233    2.1166 H       1  UNK1        0.0654
    140 H           6.8697   -6.0294    2.9427 H       1  UNK1        0.0621
    141 H           2.2167   -4.0169    2.1888 H       1  UNK1        0.1495
    142 H           0.9695   -5.2078    4.4251 H       1  UNK1        0.0618
    143 H           0.1816   -3.2311    3.1004 H       1  UNK1        0.0580
    144 H           0.3862   -2.2188    4.5547 H       1  UNK1        0.0580
    145 H          -1.4601   -3.0403    5.1244 H       1  UNK1        0.2095
    146 H           1.6465   -3.1837    6.3411 H       1  UNK1        0.1495
    147 H           1.1092   -3.2675    8.5472 H       0  UNK0        0.0322
    148 H           2.2032   -4.5942    9.0077 H       0  UNK0        0.0322
    149 H           0.3774   -4.6964    9.3238 H       0  UNK0        0.0322
    150 H           2.3338    3.2943   -0.3649 H       1  UNK1        0.1495
    151 H           2.5023    6.0907   -1.3639 H       1  UNK1        0.0595
    152 H           0.1893    6.0808   -1.6035 H       1  UNK1        0.0293
    153 H          -0.0437    4.4560   -0.9978 H       1  UNK1        0.0293
    154 H          -0.0641    4.4644   -3.5337 H       1  UNK1        0.0378
    155 H           1.4034    3.6812   -2.9719 H       1  UNK1        0.0378
    156 H           3.4968    6.6593   -4.0171 H       1  UNK1        0.2951
    157 H           0.4279    7.4660   -0.2166 H       1  UNK1        0.1495
    158 H          -0.2622    8.2408    1.8160 H       1  UNK1        0.0598
    159 H           2.4977    7.3630    2.8884 H       1  UNK1        0.0351
    160 H           1.2899    8.3420    3.7138 H       1  UNK1        0.0351
    161 H           1.1611    9.6767    0.1985 H       1  UNK1        0.0848
    162 H           4.3678   11.6750    1.9833 H       1  UNK1        0.1027
    163 H           3.7455    9.7184    3.4815 H       1  UNK1        0.1665
    164 H          -0.6517    5.0084    1.3575 H       1  UNK1        0.1495
    165 H          -0.9297    4.7808    4.3833 H       1  UNK1        0.0598
    166 H          -3.0186    5.5040    3.9390 H       1  UNK1        0.0336
    167 H          -3.0537    3.8406    4.5227 H       1  UNK1        0.0336
    168 H          -3.8938    2.0966    3.1405 H       1  UNK1        0.0620
    169 H          -5.3690    1.4531    1.3693 H       1  UNK1        0.0618
    170 H          -6.1018    3.1059   -0.3894 H       1  UNK1        0.0618
    171 H          -5.2380    5.4741   -0.2405 H       1  UNK1        0.0618
    172 H          -3.6652    6.0217    1.6685 H       1  UNK1        0.0620
    173 H           0.3009    3.2066    1.6798 H       1  UNK1        0.1495
    174 H           1.9012    1.5177    1.9861 H       1  UNK1        0.0594
    175 H          -0.2867    0.2242    3.5438 H       1  UNK1        0.0289
    176 H           1.2793   -0.6194    2.9764 H       1  UNK1        0.0289
    177 H           1.1122    1.9729    4.6056 H       1  UNK1        0.0296
    178 H           2.5875    1.1461    3.9158 H       1  UNK1        0.0296
    179 H           0.6625    0.1179    6.0126 H       1  UNK1        0.0655
    180 H           2.1272   -0.7788    5.4985 H       1  UNK1        0.0655
    181 H           2.8241    2.0075    6.2609 H       1  UNK1        0.2579
    182 H           2.8483    1.2308    9.9596 H       1  UNK1        0.2546
    183 H           2.9480    2.0803    9.7318 H       1  UNK1        0.2546
    184 H           2.8448   -1.5932    8.2027 H       1  UNK1        0.3062
    185 H           0.8856   -0.9952    0.3104 H       1  UNK1        0.1495
    186 H          -0.4291    1.1148   -1.5481 H       1  UNK1        0.0598
    187 H          -1.0229   -0.4573   -3.3688 H       1  UNK1        0.0337
    188 H          -0.4662   -1.8451   -2.4514 H       1  UNK1        0.0337
    189 H           0.4371    0.5178   -5.1238 H       1  UNK1        0.0810
    190 H           2.7617    0.2696   -5.9783 H       1  UNK1        0.1653
    191 H           5.1254   -0.8623   -5.1287 H       1  UNK1        0.0638
    192 H           6.0734   -2.1516   -3.2899 H       1  UNK1        0.0618
    193 H           4.6495   -2.7463   -1.3825 H       1  UNK1        0.0618
    194 H           2.2165   -2.0877   -1.2682 H       1  UNK1        0.0624
    195 H          -2.0943   -1.3788    0.4298 H       1  UNK1        0.1492
    196 H          -4.8883   -1.2645    0.0120 H       1  UNK1        0.0558
    197 H          -4.4067    0.4121   -0.5440 H       1  UNK1        0.0558
    198 H          -6.2653   -0.5439   -2.2043 H       1  UNK1        0.1495
    199 H          -6.4536   -0.8607   -4.6681 H       1  UNK1        0.0594
    200 H          -3.4355   -1.3385   -4.5176 H       1  UNK1        0.0288
    201 H          -4.3887   -1.3123   -5.9973 H       1  UNK1        0.0288
    202 H          -4.4512    0.9508   -3.9187 H       1  UNK1        0.0266
    203 H          -5.2330    0.8666   -5.5376 H       1  UNK1        0.0266
    204 H          -2.1738    0.6010   -5.2202 H       1  UNK1        0.0277
    205 H          -3.1110    0.6617   -6.7167 H       1  UNK1        0.0277
    206 H          -1.9996    2.7738   -6.1403 H       1  UNK1        0.0422
    207 H          -2.8763    2.8557   -4.5631 H       1  UNK1        0.0422
    208 H          -4.0308    4.1758   -6.0517 H       1  UNK1        0.1182
    209 H          -4.9987    2.8449   -5.8861 H       1  UNK1        0.1182
    210 H          -6.5896   -5.2523   -5.1522 H       1  UNK1        0.0465
    211 H          -5.5402   -5.8662   -3.8175 H       1  UNK1        0.0465
    212 H          -7.4422   -6.6808   -2.7002 H       1  UNK1        0.0281
    213 H          -8.3757   -6.0887   -4.1369 H       1  UNK1        0.0281
    214 H          -8.7360   -4.9048   -1.5844 H       1  UNK1        0.0288
    215 H          -8.8196   -4.0354   -3.2317 H       1  UNK1        0.0288
    216 H          -7.2955   -2.7121   -2.0430 H       1  UNK1        0.0597
    217 H          -5.0504   -5.8929   -1.6338 H       1  UNK1        0.1495
    218 H          -4.7307   -5.1932    1.1692 H       1  UNK1        0.0597
    219 H          -4.7494   -7.5662    1.7022 H       1  UNK1        0.0318
    220 H          -4.9337   -9.1807    0.1197 H       1  UNK1        0.0233
    221 H          -5.1125   -7.9628   -1.1759 H       1  UNK1        0.0233
    222 H          -6.5696   -8.6205   -0.2744 H       1  UNK1        0.0233
    223 H          -6.5907   -6.2429    2.4183 H       1  UNK1        0.0233
    224 H          -7.3731   -6.2669    0.7381 H       1  UNK1        0.0233
    225 H          -7.2454   -7.7609    1.7154 H       1  UNK1        0.0233
    226 H          -2.1684   -6.7818    2.1886 H       1  UNK1        0.1450
    227 H          -2.3159   -7.7390    1.3325 H       1  UNK1        0.1450
@<TRIPOS>BOND
     1     1     2    1
     2     2     3    1
     3     3     4    1
     4     4     5    1
     5     5     6    1
     6     6     7   am
     7     7     8    2
     8     7     9    1
     9     9    10    1
    10    10    11    1
    11     9    12    1
    12    12    13   am
    13    13    14    2
    14    13    15    1
    15    15    16    1
    16    16    17    1
    17    17    18   ar
    18    18    19   ar
    19    19    20   ar
    20    20    21    1
    21    20    22   ar
    22    22    23   ar
    23    15    24    1
    24    24    25   am
    25    25    26    2
    26    25    27    1
    27    27    28    1
    28    28    29    1
    29    27    30    1
    30    30    31   am
    31    31    32    1
    32    31    33    2
    33     5    34    1
    34    34    35    2
    35    34    36   am
    36    36    37    1
    37    37    38    1
    38    38    39    1
    39    39    40    1
    40    40    41    1
    41    40    42    2
    42    37    43    1
    43    43    44    2
    44    43    45   am
    45    45    46    1
    46    46    47    1
    47    47    48    1
    48    48    49   ar
    49    49    50   ar
    50    50    51   ar
    51    51    52   ar
    52    46    53    1
    53    53    54    2
    54    53    55   am
    55    55    56    1
    56    56    57    1
    57    57    58    1
    58    58    59   ar
    59    59    60   ar
    60    60    61   ar
    61    61    62   ar
    62    62    63   ar
    63    56    64    1
    64    64    65    2
    65    64    66   am
    66    66    67    1
    67    67    68    1
    68    68    69    1
    69    69    70    1
    70    70    71    1
    71    71    72    1
    72    72    73    1
    73    72    74    2
    74    67    75    1
    75    75    76    2
    76    75    77   am
    77    77    78    1
    78    78    79    1
    79    79    80    1
    80    80    81   ar
    81    81    82   ar
    82    82    83   ar
    83    83    84   ar
    84    84    85   ar
    85    85    86   ar
    86    86    87   ar
    87    87    88   ar
    88    78    89    1
    89    89    90    2
    90    89    91   am
    91    91    92    1
    92    92    93    1
    93    93    94    2
    94    93    95   am
    95    95    96    1
    96    96    97    1
    97    97    98    1
    98    98    99    1
    99    99   100    1
   100   100   101    1
   101    96   102    1
   102   102   103    2
   103   102   104   am
   104   104   105    1
   105   105   106    1
   106   106   107    1
   107   107   108    1
   108   108   109    1
   109   109   110    2
   110   109   111   am
   111   111   112    1
   112   112   113    1
   113   113   114    1
   114   113   115    1
   115   112   116    1
   116   116   117   am
   117   116   118    2
   118    23    17   ar
   119    52    48   ar
   120    63    58   ar
   121    88    80   ar
   122   108   104    1
   123    88    83   ar
   124     1   119    1
   125     1   120    1
   126     1   121    1
   127     3   122    1
   128     3   123    1
   129     4   124    1
   130     4   125    1
   131     5   126    1
   132     6   127    1
   133     9   128    1
   134    10   129    1
   135    10   130    1
   136    11   131    1
   137    12   132    1
   138    15   133    1
   139    16   134    1
   140    16   135    1
   141    18   136    1
   142    19   137    1
   143    21   138    1
   144    22   139    1
   145    23   140    1
   146    24   141    1
   147    27   142    1
   148    28   143    1
   149    28   144    1
   150    29   145    1
   151    30   146    1
   152    32   147    1
   153    32   148    1
   154    32   149    1
   155    36   150    1
   156    37   151    1
   157    38   152    1
   158    38   153    1
   159    39   154    1
   160    39   155    1
   161    41   156    1
   162    45   157    1
   163    46   158    1
   164    47   159    1
   165    47   160    1
   166    49   161    1
   167    51   162    1
   168    52   163    1
   169    55   164    1
   170    56   165    1
   171    57   166    1
   172    57   167    1
   173    59   168    1
   174    60   169    1
   175    61   170    1
   176    62   171    1
   177    63   172    1
   178    66   173    1
   179    67   174    1
   180    68   175    1
   181    68   176    1
   182    69   177    1
   183    69   178    1
   184    70   179    1
   185    70   180    1
   186    71   181    1
   187    73   182    1
   188    73   183    1
   189    74   184    1
   190    77   185    1
   191    78   186    1
   192    79   187    1
   193    79   188    1
   194    81   189    1
   195    82   190    1
   196    84   191    1
   197    85   192    1
   198    86   193    1
   199    87   194    1
   200    91   195    1
   201    92   196    1
   202    92   197    1
   203    95   198    1
   204    96   199    1
   205    97   200    1
   206    97   201    1
   207    98   202    1
   208    98   203    1
   209    99   204    1
   210    99   205    1
   211   100   206    1
   212   100   207    1
   213   101   208    1
   214   101   209    1
   215   105   210    1
   216   105   211    1
   217   106   212    1
   218   106   213    1
   219   107   214    1
   220   107   215    1
   221   108   216    1
   222   111   217    1
   223   112   218    1
   224   113   219    1
   225   114   220    1
   226   114   221    1
   227   114   222    1
   228   115   223    1
   229   115   224    1
   230   115   225    1
   231   117   226    1
   232   117   227    1
