@<TRIPOS>MOLECULE
*****
 114 116 0 0 0
SMALL
GASTEIGER

@<TRIPOS>ATOM
      1 C          10.2747    0.1101   -0.7744 C.3     1  UNL1        0.0627
      2 O           9.5611    0.5028   -1.9004 O.3     1  UNL1       -0.3913
      3 C          11.3030   -0.9079   -1.1630 C.3     1  UNL1       -0.0264
      4 C          12.3118   -0.4157   -2.1564 C.3     1  UNL1       -0.0507
      5 C          13.0705    0.7527   -1.6099 C.3     1  UNL1       -0.0530
      6 C          13.8036    0.3933   -0.3284 C.3     1  UNL1       -0.0531
      7 C          14.5400    1.6338    0.1474 C.3     1  UNL1       -0.0533
      8 C          15.2937    1.3249    1.4309 C.3     1  UNL1       -0.0559
      9 C          14.3051    0.8823    2.4997 C.3     1  UNL1       -0.0653
     10 C           9.3465   -0.4377    0.2484 C.3     1  UNL1        0.0422
     11 C           8.6126   -1.6016   -0.2695 C.2     1  UNL1        0.1919
     12 O           9.0481   -2.7090   -0.4689 O.2     1  UNL1       -0.2851
     13 S           6.8723   -1.4057   -0.6629 S.3     1  UNL1       -0.0862
     14 C           6.1044   -2.9199   -1.2395 C.3     1  UNL1        0.0206
     15 C           4.6027   -2.7239   -1.5016 C.3     1  UNL1        0.0524
     16 N           4.3022   -1.7676   -2.4759 N.2     1  UNL1       -0.2539
     17 C           3.6803   -0.6862   -2.5254 C.2     1  UNL1        0.1842
     18 O           3.8350   -0.3448   -3.8569 O.2     1  UNL1       -0.4956
     19 C           2.8676    0.4352   -1.9440 C.3     1  UNL1        0.0426
     20 C           2.6627    0.1995   -0.4726 C.3     1  UNL1        0.0515
     21 N           1.9714   -1.0045   -0.1719 N.2     1  UNL1       -0.2521
     22 C           0.8523   -1.0107    0.4433 C.2     1  UNL1        0.2127
     23 O           1.3391   -2.2399    0.0951 O.2     1  UNL1       -0.4939
     24 C          -0.1986   -0.1517    1.0754 C.3     1  UNL1        0.1371
     25 O          -0.3379   -0.5294    2.3956 O.3     1  UNL1       -0.3818
     26 C          -1.4892   -0.4303    0.3433 C.3     1  UNL1        0.0236
     27 C          -1.7517   -1.9356    0.5263 C.3     1  UNL1       -0.0549
     28 C          -1.4058   -0.1273   -1.1280 C.3     1  UNL1       -0.0549
     29 C          -2.6563    0.3402    0.9367 C.3     1  UNL1        0.0670
     30 O          -2.4669    1.7161    0.8932 O.3     1  UNL1       -0.2857
     31 P          -3.8628    2.5250    1.4362 P.3     1  UNL1        0.4834
     32 O          -4.2744    3.8257    0.4684 O.3     1  UNL1       -0.3022
     33 O          -3.6257    2.9263    2.8689 O.2     1  UNL1       -0.2269
     34 O          -5.1664    1.4197    1.4103 O.3     1  UNL1       -0.1861
     35 P          -5.8191    1.1607    2.9281 P.3     1  UNL1        0.4835
     36 O          -6.1308    2.5711    3.7723 O.3     1  UNL1       -0.3022
     37 O          -4.9133    0.2328    3.7282 O.2     1  UNL1       -0.2269
     38 O          -7.2812    0.3220    2.7332 O.3     1  UNL1       -0.2837
     39 C          -8.1262    0.9564    1.8570 C.3     1  UNL1        0.0879
     40 C          -9.3911    0.1675    1.6060 C.3     1  UNL1        0.1142
     41 O         -10.1436    0.9441    0.7046 O.3     1  UNL1       -0.3456
     42 C         -11.0683   -0.0129    0.2479 C.3     1  UNL1        0.1667
     43 N         -11.9394    0.5227   -0.7575 N.ar    1  UNL1       -0.2855
     44 C         -11.7770    0.4596   -2.0849 C.ar    1  UNL1        0.1004
     45 N         -12.8138    1.0830   -2.6821 N.ar    1  UNL1       -0.2306
     46 C         -13.6028    1.5219   -1.6956 C.ar    1  UNL1        0.1473
     47 C         -14.8007    2.2271   -1.8125 C.ar    1  UNL1        0.1472
     48 N         -15.3521    2.5823   -3.0885 N.pl3   1  UNL1       -0.3413
     49 N         -15.4161    2.5589   -0.6389 N.ar    1  UNL1       -0.2188
     50 C         -14.9117    2.2338    0.5649 C.ar    1  UNL1        0.1205
     51 N         -13.7373    1.5435    0.6487 N.ar    1  UNL1       -0.2159
     52 C         -13.0760    1.1827   -0.4619 C.ar    1  UNL1        0.1674
     53 C         -10.1077   -1.0617   -0.2673 C.3     1  UNL1        0.1294
     54 O         -10.6664   -2.2810   -0.5233 O.3     1  UNL1       -0.3846
     55 C          -9.0862   -1.0651    0.8496 C.3     1  UNL1        0.1283
     56 O          -9.0394   -2.2438    1.5411 O.3     1  UNL1       -0.2780
     57 P          -7.6928   -3.1783    1.3707 P.3     1  UNL1        0.4728
     58 O          -6.2669   -2.4993    1.9736 O.3     1  UNL1       -0.3026
     59 O          -7.9029   -4.7697    1.8944 O.3     1  UNL1       -0.3026
     60 O          -7.4361   -3.3092   -0.1386 O.2     1  UNL1       -0.2275
     61 H          10.7920    1.0425   -0.3834 H       1  UNL1        0.0598
     62 H           8.6588    0.7584   -1.6177 H       1  UNL1        0.2098
     63 H          10.8127   -1.8244   -1.6034 H       1  UNL1        0.0290
     64 H          11.8218   -1.2901   -0.2585 H       1  UNL1        0.0290
     65 H          13.0292   -1.2445   -2.3525 H       1  UNL1        0.0266
     66 H          11.8161   -0.1208   -3.1040 H       1  UNL1        0.0266
     67 H          12.3769    1.5978   -1.4535 H       1  UNL1        0.0265
     68 H          13.8274    1.0350   -2.4014 H       1  UNL1        0.0265
     69 H          14.5238   -0.4282   -0.5010 H       1  UNL1        0.0265
     70 H          13.0726    0.1158    0.4503 H       1  UNL1        0.0265
     71 H          13.8329    2.4585    0.2816 H       1  UNL1        0.0265
     72 H          15.3045    1.8900   -0.6094 H       1  UNL1        0.0265
     73 H          16.0575    0.5636    1.2518 H       1  UNL1        0.0263
     74 H          15.7494    2.2670    1.7771 H       1  UNL1        0.0263
     75 H          14.8023    0.9510    3.4849 H       1  UNL1        0.0230
     76 H          13.4322    1.5413    2.5271 H       1  UNL1        0.0230
     77 H          14.0567   -0.1714    2.3044 H       1  UNL1        0.0230
     78 H           8.6327    0.3733    0.5744 H       1  UNL1        0.0376
     79 H           9.9296   -0.7905    1.1427 H       1  UNL1        0.0376
     80 H           6.1434   -3.6622   -0.4112 H       1  UNL1        0.0399
     81 H           6.6046   -3.3029   -2.1546 H       1  UNL1        0.0399
     82 H           4.2609   -3.7307   -1.9002 H       1  UNL1        0.0517
     83 H           4.1631   -2.5635   -0.4986 H       1  UNL1        0.0517
     84 H           4.1721   -0.9019   -4.5963 H       1  UNL1        0.2934
     85 H           3.4179    1.4049   -2.0843 H       1  UNL1        0.0377
     86 H           1.9067    0.5338   -2.4660 H       1  UNL1        0.0377
     87 H           3.6554    0.1801    0.0650 H       1  UNL1        0.0514
     88 H           2.0937    1.0511   -0.0107 H       1  UNL1        0.0514
     89 H           0.9114   -3.1247    0.2855 H       1  UNL1        0.2935
     90 H           0.0824    0.9090    0.9572 H       1  UNL1        0.0697
     91 H           0.0410    0.1682    2.9820 H       1  UNL1        0.2105
     92 H          -1.4991   -2.4431   -0.4386 H       1  UNL1        0.0237
     93 H          -2.7963   -2.0889    0.8047 H       1  UNL1        0.0237
     94 H          -1.1229   -2.3686    1.3098 H       1  UNL1        0.0237
     95 H          -2.4199    0.0581   -1.5449 H       1  UNL1        0.0237
     96 H          -0.7539    0.7812   -1.2358 H       1  UNL1        0.0237
     97 H          -0.9850   -0.9725   -1.7136 H       1  UNL1        0.0237
     98 H          -3.5906    0.1128    0.3646 H       1  UNL1        0.0572
     99 H          -2.7924   -0.0113    1.9956 H       1  UNL1        0.0572
    100 H          -3.8488    4.6619    0.7248 H       1  UNL1        0.2220
    101 H          -7.0845    2.7085    3.9119 H       1  UNL1        0.2220
    102 H          -7.5901    0.9547    0.8631 H       1  UNL1        0.0592
    103 H          -8.3129    2.0146    2.0992 H       1  UNL1        0.0592
    104 H         -10.0167    0.0373    2.4958 H       1  UNL1        0.0647
    105 H         -11.6356   -0.3434    1.1310 H       1  UNL1        0.0866
    106 H         -10.9882    0.0104   -2.6578 H       1  UNL1        0.1030
    107 H         -14.8510    3.4482   -3.3956 H       1  UNL1        0.1438
    108 H         -16.1139    2.0989   -3.6504 H       1  UNL1        0.1438
    109 H         -15.4609    2.5341    1.4455 H       1  UNL1        0.1048
    110 H          -9.7022   -0.6513   -1.2192 H       1  UNL1        0.0666
    111 H         -10.2557   -2.6667   -1.3346 H       1  UNL1        0.2101
    112 H          -8.1031   -0.9409    0.3392 H       1  UNL1        0.0656
    113 H          -6.1134   -2.8519    2.8913 H       1  UNL1        0.2220
    114 H          -8.7704   -4.9571    2.2980 H       1  UNL1        0.2220
@<TRIPOS>BOND
     1     1     2    1
     2     1     3    1
     3     3     4    1
     4     4     5    1
     5     5     6    1
     6     6     7    1
     7     7     8    1
     8     8     9    1
     9     1    10    1
    10    10    11    1
    11    11    12    2
    12    11    13    1
    13    13    14    1
    14    14    15    1
    15    15    16    1
    16    16    17    2
    17    17    18    1
    18    17    19    1
    19    19    20    1
    20    20    21    1
    21    21    22    2
    22    22    23    1
    23    22    24    1
    24    24    25    1
    25    24    26    1
    26    26    27    1
    27    26    28    1
    28    26    29    1
    29    29    30    1
    30    30    31    1
    31    31    32    1
    32    31    33    2
    33    31    34    1
    34    34    35    1
    35    35    36    1
    36    35    37    2
    37    35    38    1
    38    38    39    1
    39    39    40    1
    40    40    41    1
    41    41    42    1
    42    42    43    1
    43    43    44   ar
    44    44    45   ar
    45    45    46   ar
    46    46    47   ar
    47    47    48    1
    48    47    49   ar
    49    49    50   ar
    50    50    51   ar
    51    51    52   ar
    52    42    53    1
    53    53    54    1
    54    53    55    1
    55    55    56    1
    56    56    57    1
    57    57    58    1
    58    57    59    1
    59    57    60    2
    60    55    40    1
    61    52    43   ar
    62    52    46   ar
    63     1    61    1
    64     2    62    1
    65     3    63    1
    66     3    64    1
    67     4    65    1
    68     4    66    1
    69     5    67    1
    70     5    68    1
    71     6    69    1
    72     6    70    1
    73     7    71    1
    74     7    72    1
    75     8    73    1
    76     8    74    1
    77     9    75    1
    78     9    76    1
    79     9    77    1
    80    10    78    1
    81    10    79    1
    82    14    80    1
    83    14    81    1
    84    15    82    1
    85    15    83    1
    86    18    84    1
    87    19    85    1
    88    19    86    1
    89    20    87    1
    90    20    88    1
    91    23    89    1
    92    24    90    1
    93    25    91    1
    94    27    92    1
    95    27    93    1
    96    27    94    1
    97    28    95    1
    98    28    96    1
    99    28    97    1
   100    29    98    1
   101    29    99    1
   102    32   100    1
   103    36   101    1
   104    39   102    1
   105    39   103    1
   106    40   104    1
   107    42   105    1
   108    44   106    1
   109    48   107    1
   110    48   108    1
   111    50   109    1
   112    53   110    1
   113    54   111    1
   114    55   112    1
   115    58   113    1
   116    59   114    1
