@<TRIPOS>MOLECULE
*****
 47 50 0 0 0
SMALL
GASTEIGER

@<TRIPOS>ATOM
      1 O           0.7644   -1.8454   -1.0684 O.2     1  UNL1       -0.2753
      2 C           1.3874   -0.9322   -0.4198 C.2     1  UNL1        0.2191
      3 C           2.7349   -0.4944   -0.7746 C.3     1  UNL1        0.0358
      4 C           3.7659   -0.6913    0.3143 C.3     1  UNL1       -0.0419
      5 C           5.1314   -0.3890   -0.2296 C.3     1  UNL1       -0.0524
      6 C           5.1908    0.0361   -1.6507 C.3     1  UNL1       -0.0530
      7 C           4.1308    1.0001   -2.0944 C.3     1  UNL1       -0.0524
      8 C           2.8649    0.9247   -1.2572 C.3     1  UNL1       -0.0419
      9 N           0.5182   -0.5060    0.6189 N.am    1  UNL1       -0.2903
     10 C          -0.7733   -1.1990    0.6490 C.3     1  UNL1        0.0380
     11 C          -1.7763   -0.2261    0.0764 C.3     1  UNL1        0.0672
     12 N          -1.5785    1.1171    0.4993 N.am    1  UNL1       -0.2913
     13 C          -2.5087    2.0446   -0.0856 C.3     1  UNL1        0.0194
     14 C          -3.9348    1.7803    0.3796 C.3     1  UNL1       -0.0115
     15 C          -4.1170    0.3285    0.6635 C.ar    1  UNL1       -0.0409
     16 C          -5.4001   -0.0288    1.0908 C.ar    1  UNL1       -0.0582
     17 C          -5.5891   -1.3692    1.3589 C.ar    1  UNL1       -0.0615
     18 C          -4.6588   -2.3829    1.2519 C.ar    1  UNL1       -0.0614
     19 C          -3.4125   -1.9678    0.8261 C.ar    1  UNL1       -0.0565
     20 C          -3.1352   -0.6499    0.5361 C.ar    1  UNL1       -0.0223
     21 C          -0.5364    1.4274    1.4162 C.2     1  UNL1        0.2335
     22 O          -0.6235    2.5737    1.9738 O.2     1  UNL1       -0.2739
     23 C           0.5800    0.4850    1.7088 C.3     1  UNL1        0.0913
     24 H           3.0948   -1.1312   -1.6113 H       1  UNL1        0.0394
     25 H           3.6154   -0.0459    1.1989 H       1  UNL1        0.0272
     26 H           3.6599   -1.7502    0.6394 H       1  UNL1        0.0272
     27 H           5.7348   -1.3165   -0.1321 H       1  UNL1        0.0265
     28 H           5.6796    0.3637    0.3896 H       1  UNL1        0.0265
     29 H           6.1667    0.5651   -1.8026 H       1  UNL1        0.0265
     30 H           5.2705   -0.8523   -2.3416 H       1  UNL1        0.0265
     31 H           3.8373    0.7014   -3.1311 H       1  UNL1        0.0265
     32 H           4.5104    2.0494   -2.1734 H       1  UNL1        0.0265
     33 H           2.0564    1.2883   -1.8867 H       1  UNL1        0.0272
     34 H           3.1014    1.6277   -0.4040 H       1  UNL1        0.0272
     35 H          -1.1053   -1.4278    1.6847 H       1  UNL1        0.0486
     36 H          -0.7658   -2.1501    0.1137 H       1  UNL1        0.0486
     37 H          -1.7600   -0.3472   -1.0259 H       1  UNL1        0.0566
     38 H          -2.4943    1.9956   -1.2140 H       1  UNL1        0.0468
     39 H          -2.2992    3.1109    0.1393 H       1  UNL1        0.0468
     40 H          -4.6581    2.1290   -0.3718 H       1  UNL1        0.0328
     41 H          -4.1560    2.3069    1.3269 H       1  UNL1        0.0328
     42 H          -6.2225    0.6685    1.2170 H       1  UNL1        0.0620
     43 H          -6.5904   -1.6559    1.6936 H       1  UNL1        0.0618
     44 H          -4.9288   -3.4011    1.4921 H       1  UNL1        0.0618
     45 H          -2.6308   -2.7135    0.7193 H       1  UNL1        0.0621
     46 H           1.5359    0.9538    1.8439 H       1  UNL1        0.0560
     47 H           0.3236   -0.0043    2.6754 H       1  UNL1        0.0560
@<TRIPOS>BOND
     1     1     2    2
     2     2     3    1
     3     3     4    1
     4     4     5    1
     5     5     6    1
     6     6     7    1
     7     7     8    1
     8     2     9   am
     9     9    10    1
    10    10    11    1
    11    11    12    1
    12    12    13    1
    13    13    14    1
    14    14    15    1
    15    15    16   ar
    16    16    17   ar
    17    17    18   ar
    18    18    19   ar
    19    19    20   ar
    20    12    21   am
    21    21    22    2
    22    21    23    1
    23     8     3    1
    24    23     9    1
    25    20    11    1
    26    20    15   ar
    27     3    24    1
    28     4    25    1
    29     4    26    1
    30     5    27    1
    31     5    28    1
    32     6    29    1
    33     6    30    1
    34     7    31    1
    35     7    32    1
    36     8    33    1
    37     8    34    1
    38    10    35    1
    39    10    36    1
    40    11    37    1
    41    13    38    1
    42    13    39    1
    43    14    40    1
    44    14    41    1
    45    16    42    1
    46    17    43    1
    47    18    44    1
    48    19    45    1
    49    23    46    1
    50    23    47    1
