
     RDKit          3D

120127  0  0  0  0  0  0  0  0999 V2000
  -10.4511   -2.5187    2.5608 C   0  0  0  0  0  0  0  0  0  0  0  0
   -9.9717   -1.1313    2.2914 C   0  0  0  0  0  0  0  0  0  0  0  0
  -10.8517   -0.1554    2.1208 C   0  0  0  0  0  0  0  0  0  0  0  0
  -10.3736    0.9688    1.2498 C   0  0  1  0  0  0  0  0  0  0  0  0
   -9.7258    1.9648    2.1350 C   0  0  0  0  0  0  0  0  0  0  0  0
   -8.3079    2.2274    1.7900 C   0  0  0  0  0  0  0  0  0  0  0  0
   -7.7901    3.4327    2.0305 N   0  0  0  0  0  0  0  0  0  0  0  0
   -6.5132    3.7228    1.7149 C   0  0  0  0  0  0  0  0  0  0  0  0
   -6.0754    4.8938    1.9696 O   0  0  0  0  0  0  0  0  0  0  0  0
   -5.6929    2.7904    1.1329 C   0  0  0  0  0  0  0  0  0  0  0  0
   -6.1982    1.5095    0.8627 C   0  0  0  0  0  0  0  0  0  0  0  0
   -7.4964    1.2703    1.2033 C   0  0  0  0  0  0  0  0  0  0  0  0
   -8.1248   -0.0559    0.9557 C   0  0  1  0  0  0  0  0  0  0  0  0
   -8.5038   -0.7959    2.2055 C   0  0  0  0  0  0  0  0  0  0  0  0
   -9.4434    0.2907    0.2534 C   0  0  2  0  0  0  0  0  0  0  0  0
   -9.1452    1.1524   -0.9177 C   0  0  0  0  0  0  0  0  0  0  0  0
   -8.1460    0.4386   -1.8094 C   0  0  0  0  0  0  0  0  0  0  0  0
   -7.8456   -0.9462   -1.3012 C   0  0  0  0  0  0  0  0  0  0  0  0
   -7.3094   -0.8842    0.0494 N   0  0  0  0  0  0  0  0  0  0  0  0
   -6.1367   -1.5177    0.5015 C   0  0  0  0  0  0  0  0  0  0  0  0
   -5.9083   -1.4377    1.7837 O   0  0  0  0  0  0  0  0  0  0  0  0
   -5.1128   -2.2623   -0.1887 C   0  0  0  0  0  0  0  0  0  0  0  0
   -5.0734   -2.3103   -1.6046 N   0  0  0  0  0  0  0  0  0  0  0  0
   -4.4530   -3.4952   -2.1569 C   0  0  0  0  0  0  0  0  0  0  0  0
   -4.5059   -1.0995   -2.1679 C   0  0  0  0  0  0  0  0  0  0  0  0
   -3.0985   -0.7651   -1.9158 C   0  0  0  0  0  0  0  0  0  0  0  0
   -2.0821   -1.7071   -2.4311 C   0  0  0  0  0  0  0  0  0  0  0  0
   -0.6383   -1.2734   -2.1740 C   0  0  0  0  0  0  0  0  0  0  0  0
   -0.3251   -1.1709   -0.7253 C   0  0  0  0  0  0  0  0  0  0  0  0
    1.1107   -0.7782   -0.4968 C   0  0  0  0  0  0  0  0  0  0  0  0
    1.4337    0.5601   -1.0800 C   0  0  0  0  0  0  0  0  0  0  0  0
    2.9266    0.7990   -0.7778 C   0  0  0  0  0  0  0  0  0  0  0  0
    3.6374   -0.2420   -1.4250 N   0  0  0  0  0  0  0  0  0  0  0  0
    3.6524   -0.2282   -2.8447 C   0  0  0  0  0  0  0  0  0  0  0  0
    4.7807   -0.7755   -0.7660 C   0  0  0  0  0  0  0  0  0  0  0  0
    5.9290    0.1689   -0.6572 C   0  0  0  0  0  0  0  0  0  0  0  0
    5.7286    1.3170   -1.1497 O   0  0  0  0  0  0  0  0  0  0  0  0
    7.1440   -0.1975   -0.0506 N   0  0  0  0  0  0  0  0  0  0  0  0
    7.2892   -1.5440    0.4731 C   0  0  0  0  0  0  0  0  0  0  0  0
    8.6606   -2.1055    0.1484 C   0  0  0  0  0  0  0  0  0  0  0  0
    9.3927   -1.3706   -0.9141 C   0  0  0  0  0  0  0  0  0  0  0  0
    9.3441    0.1222   -0.8452 C   0  0  2  0  0  0  0  0  0  0  0  0
   10.6579    0.7473   -0.4802 C   0  0  1  0  0  0  0  0  0  0  0  0
   10.4729    2.2218   -0.4085 C   0  0  0  0  0  0  0  0  0  0  0  0
    9.3604    2.8060   -0.0458 C   0  0  0  0  0  0  0  0  0  0  0  0
    9.3324    4.1521    0.5646 C   0  0  0  0  0  0  0  0  0  0  0  0
    8.0549    2.0979   -0.2500 C   0  0  0  0  0  0  0  0  0  0  0  0
    8.2857    0.6647    0.0957 C   0  0  1  0  0  0  0  0  0  0  0  0
    8.7604    0.6026    1.5158 C   0  0  0  0  0  0  0  0  0  0  0  0
    7.8018    0.7303    2.4998 C   0  0  0  0  0  0  0  0  0  0  0  0
    8.1900    0.6660    3.8129 C   0  0  0  0  0  0  0  0  0  0  0  0
    9.5184    0.4758    4.1711 C   0  0  0  0  0  0  0  0  0  0  0  0
    9.8372    0.4213    5.3928 O   0  0  0  0  0  0  0  0  0  0  0  0
   10.4087    0.3579    3.1754 N   0  0  0  0  0  0  0  0  0  0  0  0
   10.0703    0.4157    1.8798 C   0  0  0  0  0  0  0  0  0  0  0  0
   11.1552    0.2766    0.8706 C   0  0  0  0  0  0  0  0  0  0  0  0
  -10.0312   -3.1605    1.7307 H   0  0  0  0  0  0  0  0  0  0  0  0
  -11.5452   -2.5391    2.5752 H   0  0  0  0  0  0  0  0  0  0  0  0
   -9.9882   -2.9212    3.4855 H   0  0  0  0  0  0  0  0  0  0  0  0
  -11.8188   -0.1821    2.5731 H   0  0  0  0  0  0  0  0  0  0  0  0
  -11.1873    1.4092    0.6734 H   0  0  0  0  0  0  0  0  0  0  0  0
   -9.8449    1.7055    3.2175 H   0  0  0  0  0  0  0  0  0  0  0  0
  -10.2550    2.9563    1.9777 H   0  0  0  0  0  0  0  0  0  0  0  0
   -8.4157    4.1574    2.4817 H   0  0  0  0  0  0  0  0  0  0  0  0
   -4.6535    3.0051    0.8677 H   0  0  0  0  0  0  0  0  0  0  0  0
   -5.5245    0.8128    0.3907 H   0  0  0  0  0  0  0  0  0  0  0  0
   -8.0016   -1.7786    2.3319 H   0  0  0  0  0  0  0  0  0  0  0  0
   -8.3237   -0.1401    3.1046 H   0  0  0  0  0  0  0  0  0  0  0  0
  -10.0021   -0.6021   -0.0754 H   0  0  0  0  0  0  0  0  0  0  0  0
   -8.7724    2.1570   -0.6141 H   0  0  0  0  0  0  0  0  0  0  0  0
  -10.1117    1.3081   -1.4737 H   0  0  0  0  0  0  0  0  0  0  0  0
   -8.5191    0.3847   -2.8523 H   0  0  0  0  0  0  0  0  0  0  0  0
   -7.2001    1.0139   -1.8113 H   0  0  0  0  0  0  0  0  0  0  0  0
   -7.2368   -1.4682   -2.0312 H   0  0  0  0  0  0  0  0  0  0  0  0
   -8.8059   -1.5761   -1.2914 H   0  0  0  0  0  0  0  0  0  0  0  0
   -5.0342   -3.3233    0.2156 H   0  0  0  0  0  0  0  0  0  0  0  0
   -4.1128   -1.8238    0.1357 H   0  0  0  0  0  0  0  0  0  0  0  0
   -5.3672   -4.1704   -2.3866 H   0  0  0  0  0  0  0  0  0  0  0  0
   -3.9147   -4.0716   -1.4101 H   0  0  0  0  0  0  0  0  0  0  0  0
   -4.0147   -3.3406   -3.1335 H   0  0  0  0  0  0  0  0  0  0  0  0
   -4.6372   -1.2363   -3.2906 H   0  0  0  0  0  0  0  0  0  0  0  0
   -5.2062   -0.2664   -1.9361 H   0  0  0  0  0  0  0  0  0  0  0  0
   -2.9173   -0.4897   -0.8318 H   0  0  0  0  0  0  0  0  0  0  0  0
   -2.9119    0.2449   -2.4260 H   0  0  0  0  0  0  0  0  0  0  0  0
   -2.1630   -2.7262   -1.9398 H   0  0  0  0  0  0  0  0  0  0  0  0
   -2.1900   -1.8858   -3.5158 H   0  0  0  0  0  0  0  0  0  0  0  0
   -0.4330   -0.3669   -2.7564 H   0  0  0  0  0  0  0  0  0  0  0  0
   -0.0127   -2.0970   -2.6103 H   0  0  0  0  0  0  0  0  0  0  0  0
   -0.4547   -2.1995   -0.2773 H   0  0  0  0  0  0  0  0  0  0  0  0
   -1.0282   -0.4614   -0.2469 H   0  0  0  0  0  0  0  0  0  0  0  0
    1.3542   -0.7347    0.5951 H   0  0  0  0  0  0  0  0  0  0  0  0
    1.7626   -1.5846   -0.9113 H   0  0  0  0  0  0  0  0  0  0  0  0
    0.8434    1.3636   -0.6372 H   0  0  0  0  0  0  0  0  0  0  0  0
    1.3477    0.4938   -2.1848 H   0  0  0  0  0  0  0  0  0  0  0  0
    3.1700    1.8137   -1.1064 H   0  0  0  0  0  0  0  0  0  0  0  0
    3.0549    0.6747    0.3229 H   0  0  0  0  0  0  0  0  0  0  0  0
    2.9080   -0.9753   -3.2134 H   0  0  0  0  0  0  0  0  0  0  0  0
    3.3941    0.7981   -3.1852 H   0  0  0  0  0  0  0  0  0  0  0  0
    4.6674   -0.5394   -3.2072 H   0  0  0  0  0  0  0  0  0  0  0  0
    4.4488   -1.1270    0.2356 H   0  0  0  0  0  0  0  0  0  0  0  0
    5.0713   -1.7152   -1.3029 H   0  0  0  0  0  0  0  0  0  0  0  0
    7.2177   -1.4742    1.5759 H   0  0  0  0  0  0  0  0  0  0  0  0
    6.4710   -2.2123    0.1407 H   0  0  0  0  0  0  0  0  0  0  0  0
    8.4799   -3.1501   -0.2353 H   0  0  0  0  0  0  0  0  0  0  0  0
    9.2728   -2.2611    1.0862 H   0  0  0  0  0  0  0  0  0  0  0  0
   10.4798   -1.6550   -0.8143 H   0  0  0  0  0  0  0  0  0  0  0  0
    9.1092   -1.7812   -1.9152 H   0  0  0  0  0  0  0  0  0  0  0  0
    9.0743    0.4991   -1.8536 H   0  0  0  0  0  0  0  0  0  0  0  0
   11.3957    0.5075   -1.2530 H   0  0  0  0  0  0  0  0  0  0  0  0
   11.3203    2.8721   -0.6755 H   0  0  0  0  0  0  0  0  0  0  0  0
    8.4240    4.6798    0.2054 H   0  0  0  0  0  0  0  0  0  0  0  0
    9.2872    4.0928    1.6795 H   0  0  0  0  0  0  0  0  0  0  0  0
   10.2351    4.7299    0.2283 H   0  0  0  0  0  0  0  0  0  0  0  0
    7.8503    2.2243   -1.3540 H   0  0  0  0  0  0  0  0  0  0  0  0
    7.2380    2.5742    0.3052 H   0  0  0  0  0  0  0  0  0  0  0  0
    6.7486    0.8815    2.2231 H   0  0  0  0  0  0  0  0  0  0  0  0
    7.4513    0.7648    4.6106 H   0  0  0  0  0  0  0  0  0  0  0  0
   11.4166    0.2138    3.4860 H   0  0  0  0  0  0  0  0  0  0  0  0
   11.9689    0.9594    1.1861 H   0  0  0  0  0  0  0  0  0  0  0  0
   11.5362   -0.7582    0.7915 H   0  0  0  0  0  0  0  0  0  0  0  0
  1  2  1  0
  2  3  2  0
  3  4  1  0
  4  5  1  0
  5  6  1  0
  6  7  1  0
  7  8  1  0
  8  9  2  0
  8 10  1  0
 10 11  2  0
 11 12  1  0
 12 13  1  0
 13 14  1  0
 13 15  1  0
 15 16  1  0
 16 17  1  0
 17 18  1  0
 18 19  1  0
 19 20  1  0
 20 21  2  0
 20 22  1  0
 22 23  1  0
 23 24  1  0
 23 25  1  0
 25 26  1  0
 26 27  1  0
 27 28  1  0
 28 29  1  0
 29 30  1  0
 30 31  1  0
 31 32  1  0
 32 33  1  0
 33 34  1  0
 33 35  1  0
 35 36  1  0
 36 37  2  0
 36 38  1  0
 38 39  1  0
 39 40  1  0
 40 41  1  0
 41 42  1  0
 42 43  1  0
 43 44  1  0
 44 45  2  0
 45 46  1  0
 45 47  1  0
 47 48  1  0
 48 49  1  0
 49 50  1  0
 50 51  2  0
 51 52  1  0
 52 53  2  0
 52 54  1  0
 54 55  1  0
 55 56  1  0
 14  2  1  0
 48 38  1  1
 55 49  2  0
 15  4  1  0
 48 42  1  0
 12  6  2  0
 13 19  1  6
 56 43  1  0
  1 57  1  0
  1 58  1  0
  1 59  1  0
  3 60  1  0
  4 61  1  6
  5 62  1  0
  5 63  1  0
  7 64  1  0
 10 65  1  0
 11 66  1  0
 14 67  1  0
 14 68  1  0
 15 69  1  6
 16 70  1  0
 16 71  1  0
 17 72  1  0
 17 73  1  0
 18 74  1  0
 18 75  1  0
 22 76  1  0
 22 77  1  0
 24 78  1  0
 24 79  1  0
 24 80  1  0
 25 81  1  0
 25 82  1  0
 26 83  1  0
 26 84  1  0
 27 85  1  0
 27 86  1  0
 28 87  1  0
 28 88  1  0
 29 89  1  0
 29 90  1  0
 30 91  1  0
 30 92  1  0
 31 93  1  0
 31 94  1  0
 32 95  1  0
 32 96  1  0
 34 97  1  0
 34 98  1  0
 34 99  1  0
 35100  1  0
 35101  1  0
 39102  1  0
 39103  1  0
 40104  1  0
 40105  1  0
 41106  1  0
 41107  1  0
 42108  1  6
 43109  1  6
 44110  1  0
 46111  1  0
 46112  1  0
 46113  1  0
 47114  1  0
 47115  1  0
 50116  1  0
 51117  1  0
 54118  1  0
 56119  1  0
 56120  1  0
M  END
$$$$
