@<TRIPOS>MOLECULE
*****
 120 127 0 0 0
SMALL
GASTEIGER

@<TRIPOS>ATOM
      1 C         -10.4511   -2.5187    2.5608 C.3     1  UNL1       -0.0437
      2 C          -9.9717   -1.1313    2.2914 C.2     1  UNL1       -0.0739
      3 C         -10.8517   -0.1554    2.1208 C.2     1  UNL1       -0.0812
      4 C         -10.3736    0.9688    1.2498 C.3     1  UNL1       -0.0122
      5 C          -9.7258    1.9648    2.1350 C.3     1  UNL1       -0.0055
      6 C          -8.3079    2.2274    1.7900 C.ar    1  UNL1        0.0248
      7 N          -7.7901    3.4327    2.0305 N.ar    1  UNL1       -0.3259
      8 C          -6.5132    3.7228    1.7149 C.ar    1  UNL1        0.2489
      9 O          -6.0754    4.8938    1.9696 O.2     1  UNL1       -0.2679
     10 C          -5.6929    2.7904    1.1329 C.ar    1  UNL1        0.0031
     11 C          -6.1982    1.5095    0.8627 C.ar    1  UNL1       -0.0498
     12 C          -7.4964    1.2703    1.2033 C.ar    1  UNL1       -0.0039
     13 C          -8.1248   -0.0559    0.9557 C.3     1  UNL1        0.0711
     14 C          -8.5038   -0.7959    2.2055 C.3     1  UNL1       -0.0059
     15 C          -9.4434    0.2907    0.2534 C.3     1  UNL1       -0.0083
     16 C          -9.1452    1.1524   -0.9177 C.3     1  UNL1       -0.0460
     17 C          -8.1460    0.4386   -1.8094 C.3     1  UNL1       -0.0368
     18 C          -7.8456   -0.9462   -1.3012 C.3     1  UNL1        0.0156
     19 N          -7.3094   -0.8842    0.0494 N.am    1  UNL1       -0.2900
     20 C          -6.1367   -1.5177    0.5015 C.2     1  UNL1        0.2303
     21 O          -5.9083   -1.4377    1.7837 O.2     1  UNL1       -0.2742
     22 C          -5.1128   -2.2623   -0.1887 C.3     1  UNL1        0.0757
     23 N          -5.0734   -2.3103   -1.6046 N.3     1  UNL1       -0.2971
     24 C          -4.4530   -3.4952   -2.1569 C.3     1  UNL1       -0.0123
     25 C          -4.5059   -1.0995   -2.1679 C.3     1  UNL1       -0.0009
     26 C          -3.0985   -0.7651   -1.9158 C.3     1  UNL1       -0.0402
     27 C          -2.0821   -1.7071   -2.4311 C.3     1  UNL1       -0.0519
     28 C          -0.6383   -1.2734   -2.1740 C.3     1  UNL1       -0.0530
     29 C          -0.3251   -1.1709   -0.7253 C.3     1  UNL1       -0.0530
     30 C           1.1107   -0.7782   -0.4968 C.3     1  UNL1       -0.0519
     31 C           1.4337    0.5601   -1.0800 C.3     1  UNL1       -0.0402
     32 C           2.9266    0.7990   -0.7778 C.3     1  UNL1       -0.0009
     33 N           3.6374   -0.2420   -1.4250 N.3     1  UNL1       -0.2971
     34 C           3.6524   -0.2282   -2.8447 C.3     1  UNL1       -0.0123
     35 C           4.7807   -0.7755   -0.7660 C.3     1  UNL1        0.0757
     36 C           5.9290    0.1689   -0.6572 C.2     1  UNL1        0.2303
     37 O           5.7286    1.3170   -1.1497 O.2     1  UNL1       -0.2742
     38 N           7.1440   -0.1975   -0.0506 N.am    1  UNL1       -0.2900
     39 C           7.2892   -1.5440    0.4731 C.3     1  UNL1        0.0156
     40 C           8.6606   -2.1055    0.1484 C.3     1  UNL1       -0.0368
     41 C           9.3927   -1.3706   -0.9141 C.3     1  UNL1       -0.0460
     42 C           9.3441    0.1222   -0.8452 C.3     1  UNL1       -0.0083
     43 C          10.6579    0.7473   -0.4802 C.3     1  UNL1       -0.0122
     44 C          10.4729    2.2218   -0.4085 C.2     1  UNL1       -0.0812
     45 C           9.3604    2.8060   -0.0458 C.2     1  UNL1       -0.0739
     46 C           9.3324    4.1521    0.5646 C.3     1  UNL1       -0.0437
     47 C           8.0549    2.0979   -0.2500 C.3     1  UNL1       -0.0059
     48 C           8.2857    0.6647    0.0957 C.3     1  UNL1        0.0711
     49 C           8.7604    0.6026    1.5158 C.ar    1  UNL1       -0.0039
     50 C           7.8018    0.7303    2.4998 C.ar    1  UNL1       -0.0498
     51 C           8.1900    0.6660    3.8129 C.ar    1  UNL1        0.0031
     52 C           9.5184    0.4758    4.1711 C.ar    1  UNL1        0.2489
     53 O           9.8372    0.4213    5.3928 O.2     1  UNL1       -0.2679
     54 N          10.4087    0.3579    3.1754 N.ar    1  UNL1       -0.3259
     55 C          10.0703    0.4157    1.8798 C.ar    1  UNL1        0.0248
     56 C          11.1552    0.2766    0.8706 C.3     1  UNL1       -0.0055
     57 H         -10.0312   -3.1605    1.7307 H       1  UNL1        0.0274
     58 H         -11.5452   -2.5391    2.5752 H       1  UNL1        0.0274
     59 H          -9.9882   -2.9212    3.4855 H       1  UNL1        0.0274
     60 H         -11.8188   -0.1821    2.5731 H       1  UNL1        0.0575
     61 H         -11.1873    1.4092    0.6734 H       1  UNL1        0.0350
     62 H          -9.8449    1.7055    3.2175 H       1  UNL1        0.0333
     63 H         -10.2550    2.9563    1.9777 H       1  UNL1        0.0333
     64 H          -8.4157    4.1574    2.4817 H       1  UNL1        0.1686
     65 H          -4.6535    3.0051    0.8677 H       1  UNL1        0.0672
     66 H          -5.5245    0.8128    0.3907 H       1  UNL1        0.0623
     67 H          -8.0016   -1.7786    2.3319 H       1  UNL1        0.0334
     68 H          -8.3237   -0.1401    3.1046 H       1  UNL1        0.0334
     69 H         -10.0021   -0.6021   -0.0754 H       1  UNL1        0.0331
     70 H          -8.7724    2.1570   -0.6141 H       1  UNL1        0.0269
     71 H         -10.1117    1.3081   -1.4737 H       1  UNL1        0.0269
     72 H          -8.5191    0.3847   -2.8523 H       1  UNL1        0.0280
     73 H          -7.2001    1.0139   -1.8113 H       1  UNL1        0.0280
     74 H          -7.2368   -1.4682   -2.0312 H       1  UNL1        0.0465
     75 H          -8.8059   -1.5761   -1.2914 H       1  UNL1        0.0465
     76 H          -5.0342   -3.3233    0.2156 H       1  UNL1        0.0522
     77 H          -4.1128   -1.8238    0.1357 H       1  UNL1        0.0522
     78 H          -5.3672   -4.1704   -2.3866 H       1  UNL1        0.0391
     79 H          -3.9147   -4.0716   -1.4101 H       1  UNL1        0.0391
     80 H          -4.0147   -3.3406   -3.1335 H       1  UNL1        0.0391
     81 H          -4.6372   -1.2363   -3.2906 H       1  UNL1        0.0427
     82 H          -5.2062   -0.2664   -1.9361 H       1  UNL1        0.0427
     83 H          -2.9173   -0.4897   -0.8318 H       1  UNL1        0.0278
     84 H          -2.9119    0.2449   -2.4260 H       1  UNL1        0.0278
     85 H          -2.1630   -2.7262   -1.9398 H       1  UNL1        0.0266
     86 H          -2.1900   -1.8858   -3.5158 H       1  UNL1        0.0266
     87 H          -0.4330   -0.3669   -2.7564 H       1  UNL1        0.0265
     88 H          -0.0127   -2.0970   -2.6103 H       1  UNL1        0.0265
     89 H          -0.4547   -2.1995   -0.2773 H       1  UNL1        0.0265
     90 H          -1.0282   -0.4614   -0.2469 H       1  UNL1        0.0265
     91 H           1.3542   -0.7347    0.5951 H       1  UNL1        0.0266
     92 H           1.7626   -1.5846   -0.9113 H       1  UNL1        0.0266
     93 H           0.8434    1.3636   -0.6372 H       1  UNL1        0.0278
     94 H           1.3477    0.4938   -2.1848 H       1  UNL1        0.0278
     95 H           3.1700    1.8137   -1.1064 H       1  UNL1        0.0427
     96 H           3.0549    0.6747    0.3229 H       1  UNL1        0.0427
     97 H           2.9080   -0.9753   -3.2134 H       1  UNL1        0.0391
     98 H           3.3941    0.7981   -3.1852 H       1  UNL1        0.0391
     99 H           4.6674   -0.5394   -3.2072 H       1  UNL1        0.0391
    100 H           4.4488   -1.1270    0.2356 H       1  UNL1        0.0522
    101 H           5.0713   -1.7152   -1.3029 H       1  UNL1        0.0522
    102 H           7.2177   -1.4742    1.5759 H       1  UNL1        0.0465
    103 H           6.4710   -2.2123    0.1407 H       1  UNL1        0.0465
    104 H           8.4799   -3.1501   -0.2353 H       1  UNL1        0.0280
    105 H           9.2728   -2.2611    1.0862 H       1  UNL1        0.0280
    106 H          10.4798   -1.6550   -0.8143 H       1  UNL1        0.0269
    107 H           9.1092   -1.7812   -1.9152 H       1  UNL1        0.0269
    108 H           9.0743    0.4991   -1.8536 H       1  UNL1        0.0331
    109 H          11.3957    0.5075   -1.2530 H       1  UNL1        0.0350
    110 H          11.3203    2.8721   -0.6755 H       1  UNL1        0.0575
    111 H           8.4240    4.6798    0.2054 H       1  UNL1        0.0274
    112 H           9.2872    4.0928    1.6795 H       1  UNL1        0.0274
    113 H          10.2351    4.7299    0.2283 H       1  UNL1        0.0274
    114 H           7.8503    2.2243   -1.3540 H       1  UNL1        0.0334
    115 H           7.2380    2.5742    0.3052 H       1  UNL1        0.0334
    116 H           6.7486    0.8815    2.2231 H       1  UNL1        0.0623
    117 H           7.4513    0.7648    4.6106 H       1  UNL1        0.0672
    118 H          11.4166    0.2138    3.4860 H       1  UNL1        0.1686
    119 H          11.9689    0.9594    1.1861 H       1  UNL1        0.0333
    120 H          11.5362   -0.7582    0.7915 H       1  UNL1        0.0333
@<TRIPOS>BOND
     1     1     2    1
     2     2     3    2
     3     3     4    1
     4     4     5    1
     5     5     6    1
     6     6     7   ar
     7     7     8   ar
     8     8     9    2
     9     8    10   ar
    10    10    11   ar
    11    11    12   ar
    12    12    13    1
    13    13    14    1
    14    13    15    1
    15    15    16    1
    16    16    17    1
    17    17    18    1
    18    18    19    1
    19    19    20   am
    20    20    21    2
    21    20    22    1
    22    22    23    1
    23    23    24    1
    24    23    25    1
    25    25    26    1
    26    26    27    1
    27    27    28    1
    28    28    29    1
    29    29    30    1
    30    30    31    1
    31    31    32    1
    32    32    33    1
    33    33    34    1
    34    33    35    1
    35    35    36    1
    36    36    37    2
    37    36    38   am
    38    38    39    1
    39    39    40    1
    40    40    41    1
    41    41    42    1
    42    42    43    1
    43    43    44    1
    44    44    45    2
    45    45    46    1
    46    45    47    1
    47    47    48    1
    48    48    49    1
    49    49    50   ar
    50    50    51   ar
    51    51    52   ar
    52    52    53    2
    53    52    54   ar
    54    54    55   ar
    55    55    56    1
    56    14     2    1
    57    48    38    1
    58    55    49   ar
    59    15     4    1
    60    48    42    1
    61    12     6   ar
    62    13    19    1
    63    56    43    1
    64     1    57    1
    65     1    58    1
    66     1    59    1
    67     3    60    1
    68     4    61    1
    69     5    62    1
    70     5    63    1
    71     7    64    1
    72    10    65    1
    73    11    66    1
    74    14    67    1
    75    14    68    1
    76    15    69    1
    77    16    70    1
    78    16    71    1
    79    17    72    1
    80    17    73    1
    81    18    74    1
    82    18    75    1
    83    22    76    1
    84    22    77    1
    85    24    78    1
    86    24    79    1
    87    24    80    1
    88    25    81    1
    89    25    82    1
    90    26    83    1
    91    26    84    1
    92    27    85    1
    93    27    86    1
    94    28    87    1
    95    28    88    1
    96    29    89    1
    97    29    90    1
    98    30    91    1
    99    30    92    1
   100    31    93    1
   101    31    94    1
   102    32    95    1
   103    32    96    1
   104    34    97    1
   105    34    98    1
   106    34    99    1
   107    35   100    1
   108    35   101    1
   109    39   102    1
   110    39   103    1
   111    40   104    1
   112    40   105    1
   113    41   106    1
   114    41   107    1
   115    42   108    1
   116    43   109    1
   117    44   110    1
   118    46   111    1
   119    46   112    1
   120    46   113    1
   121    47   114    1
   122    47   115    1
   123    50   116    1
   124    51   117    1
   125    54   118    1
   126    56   119    1
   127    56   120    1
