@<TRIPOS>MOLECULE
*****
 52 55 0 0 0
SMALL
GASTEIGER

@<TRIPOS>ATOM
      1 O          -0.1182   -1.6419   -2.1331 O.2     1  UNL1       -0.2699
      2 C          -0.0709   -1.4183   -0.8813 C.2     1  UNL1        0.2483
      3 N          -1.0297   -2.1013   -0.1010 N.am    1  UNL1       -0.2808
      4 C          -1.9813   -2.9782   -0.6785 C.ar    1  UNL1        0.0459
      5 C          -1.7302   -4.3227   -0.8452 C.ar    1  UNL1       -0.0384
      6 C          -2.6868   -5.1679   -1.4184 C.ar    1  UNL1       -0.0416
      7 C          -3.8959   -4.6518   -1.8220 C.ar    1  UNL1        0.0418
      8 CL         -5.0803   -5.7103   -2.5340 Cl      1  UNL1       -0.0835
      9 C          -4.1509   -3.2886   -1.6530 C.ar    1  UNL1       -0.0295
     10 C          -3.1913   -2.4540   -1.0808 C.ar    1  UNL1        0.0596
     11 C          -3.4187   -1.0421   -0.8904 C.2     1  UNL1        0.2511
     12 O          -2.5486   -0.3042   -0.3753 O.2     1  UNL1       -0.2697
     13 N          -4.6357   -0.4363   -1.2791 N.am    1  UNL1       -0.2663
     14 C          -4.8768    0.9668   -1.0962 C.ar    1  UNL1        0.1252
     15 C          -5.4475    1.3596    0.0904 C.ar    1  UNL1       -0.0201
     16 C          -5.7226    2.6927    0.3680 C.ar    1  UNL1       -0.0387
     17 C          -5.3970    3.6125   -0.6034 C.ar    1  UNL1        0.0592
     18 CL         -5.7116    5.3326   -0.3362 Cl      1  UNL1       -0.0820
     19 C          -4.8174    3.2154   -1.8089 C.ar    1  UNL1        0.0480
     20 N          -4.5809    1.9045   -2.0051 N.ar    1  UNL1       -0.2387
     21 C           0.9345   -0.5002   -0.3278 C.ar    1  UNL1        0.0370
     22 C           1.8472    0.1394   -1.1415 C.ar    1  UNL1       -0.0492
     23 C           2.8032    1.0062   -0.6564 C.ar    1  UNL1       -0.0519
     24 C           2.8899    1.2768    0.6923 C.ar    1  UNL1        0.0172
     25 C           3.9267    2.2143    1.2003 C.3     1  UNL1        0.1758
     26 N           5.1551    1.5285    1.5351 N.ar    1  UNL1       -0.1996
     27 C           6.0945    1.3881    0.5775 C.ar    1  UNL1        0.1715
     28 C           7.2865    0.7306    0.8774 C.ar    1  UNL1        0.0021
     29 C           7.5013    0.2284    2.1439 C.ar    1  UNL1       -0.0506
     30 C           6.5070    0.4022    3.0776 C.ar    1  UNL1        0.0021
     31 C           5.3332    1.0515    2.7766 C.ar    1  UNL1        0.1715
     32 C           1.9878    0.6485    1.5227 C.ar    1  UNL1       -0.0519
     33 C           1.0203   -0.2308    1.0182 C.ar    1  UNL1       -0.0492
     34 H          -1.0509   -1.9676    0.9276 H       1  UNL1        0.1552
     35 H          -0.7774   -4.7249   -0.5263 H       1  UNL1        0.0637
     36 H          -2.4347   -6.2148   -1.5245 H       1  UNL1        0.0633
     37 H          -5.0968   -2.9129   -1.9744 H       1  UNL1        0.0640
     38 H          -5.4184   -0.9698   -1.7160 H       1  UNL1        0.1566
     39 H          -5.6967    0.6266    0.8414 H       1  UNL1        0.0652
     40 H          -6.1681    3.0460    1.2822 H       1  UNL1        0.0634
     41 H          -4.5773    3.9695   -2.5448 H       1  UNL1        0.0845
     42 H           1.7771   -0.0767   -2.2134 H       1  UNL1        0.0625
     43 H           3.5116    1.4991   -1.3123 H       1  UNL1        0.0623
     44 H           4.1868    2.9920    0.4448 H       1  UNL1        0.1085
     45 H           3.5837    2.7550    2.0983 H       1  UNL1        0.1085
     46 H           5.9718    1.7662   -0.4343 H       1  UNL1        0.1376
     47 H           8.0695    0.5926    0.1454 H       1  UNL1        0.0677
     48 H           8.4055   -0.2875    2.4254 H       1  UNL1        0.0621
     49 H           6.6198    0.0275    4.0935 H       1  UNL1        0.0677
     50 H           4.5361    1.2032    3.4863 H       1  UNL1        0.1376
     51 H           2.0411    0.8491    2.5843 H       1  UNL1        0.0623
     52 H           0.3227   -0.7103    1.7045 H       1  UNL1        0.0625
@<TRIPOS>UNITY_ATOM_ATTR
26 1
charge 1
@<TRIPOS>BOND
     1     1     2    2
     2     2     3   am
     3     3     4    1
     4     4     5   ar
     5     5     6   ar
     6     6     7   ar
     7     7     8    1
     8     7     9   ar
     9     9    10   ar
    10    10    11    1
    11    11    12    2
    12    11    13   am
    13    13    14    1
    14    14    15   ar
    15    15    16   ar
    16    16    17   ar
    17    17    18    1
    18    17    19   ar
    19    19    20   ar
    20     2    21    1
    21    21    22   ar
    22    22    23   ar
    23    23    24   ar
    24    24    25    1
    25    25    26    1
    26    26    27   ar
    27    27    28   ar
    28    28    29   ar
    29    29    30   ar
    30    30    31   ar
    31    24    32   ar
    32    32    33   ar
    33    10     4   ar
    34    20    14   ar
    35    33    21   ar
    36    31    26   ar
    37     3    34    1
    38     5    35    1
    39     6    36    1
    40     9    37    1
    41    13    38    1
    42    15    39    1
    43    16    40    1
    44    19    41    1
    45    22    42    1
    46    23    43    1
    47    25    44    1
    48    25    45    1
    49    27    46    1
    50    28    47    1
    51    29    48    1
    52    30    49    1
    53    31    50    1
    54    32    51    1
    55    33    52    1
