@<TRIPOS>MOLECULE
*****
 26 27 0 0 0
SMALL
GASTEIGER

@<TRIPOS>ATOM
      1 C           4.0598    0.7070   -0.5559 C.3     1  UNL1        0.0125
      2 C           2.7589    0.4531    0.0734 C.2     1  UNL1        0.2141
      3 O           2.3581    1.2218    1.0129 O.2     1  UNL1       -0.2758
      4 N           1.8832   -0.5991   -0.2789 N.am    1  UNL1       -0.2840
      5 C           0.6295   -0.8072    0.3600 C.ar    1  UNL1        0.0578
      6 C           0.6070   -1.6283    1.4738 C.ar    1  UNL1       -0.0384
      7 C          -0.5845   -1.8618    2.1291 C.ar    1  UNL1       -0.0592
      8 C          -1.7284   -1.2707    1.6588 C.ar    1  UNL1       -0.0472
      9 C          -1.7455   -0.4497    0.5564 C.ar    1  UNL1        0.0677
     10 C          -2.8779    0.1548    0.0648 C.ar    1  UNL1        0.2972
     11 O          -3.9639   -0.0440    0.6431 O.2     1  UNL1       -0.2638
     12 N          -2.8536    0.9570   -1.0241 N.ar    1  UNL1       -0.0914
     13 O          -3.9950    1.5515   -1.4997 O.3     1  UNL1       -0.4194
     14 C          -1.6648    1.1489   -1.6226 C.ar    1  UNL1        0.3628
     15 O          -1.6373    1.8948   -2.6363 O.2     1  UNL1       -0.2433
     16 N          -0.5313    0.5671   -1.1618 N.ar    1  UNL1       -0.3030
     17 C          -0.5399   -0.2325   -0.0809 C.ar    1  UNL1        0.0771
     18 H           4.6451   -0.2276   -0.7461 H       1  UNL1        0.0323
     19 H           3.9628    1.1951   -1.5661 H       1  UNL1        0.0323
     20 H           4.6825    1.3091    0.1366 H       1  UNL1        0.0323
     21 H           2.1713   -1.2455   -1.0367 H       1  UNL1        0.1549
     22 H           1.5441   -2.0804    1.8158 H       1  UNL1        0.0637
     23 H          -0.5915   -2.5024    2.9951 H       1  UNL1        0.0618
     24 H          -2.6882   -1.4353    2.1550 H       1  UNL1        0.0626
     25 H          -4.2817    2.4998   -1.2309 H       1  UNL1        0.3261
     26 H           0.3812    0.7244   -1.6347 H       1  UNL1        0.1706
@<TRIPOS>BOND
     1     1     2    1
     2     2     3    2
     3     2     4   am
     4     4     5    1
     5     5     6   ar
     6     6     7   ar
     7     7     8   ar
     8     8     9   ar
     9     9    10   ar
    10    10    11    2
    11    10    12   ar
    12    12    13    1
    13    12    14   ar
    14    14    15    2
    15    14    16   ar
    16    16    17   ar
    17    17     5   ar
    18    17     9   ar
    19     1    18    1
    20     1    19    1
    21     1    20    1
    22     4    21    1
    23     6    22    1
    24     7    23    1
    25     8    24    1
    26    13    25    1
    27    16    26    1
