
     RDKit          3D

 26 27  0  0  0  0  0  0  0  0999 V2000
    4.0598    0.7070   -0.5559 C   0  0  0  0  0  0  0  0  0  0  0  0
    2.7589    0.4531    0.0734 C   0  0  0  0  0  0  0  0  0  0  0  0
    2.3581    1.2218    1.0129 O   0  0  0  0  0  0  0  0  0  0  0  0
    1.8832   -0.5991   -0.2789 N   0  0  0  0  0  0  0  0  0  0  0  0
    0.6295   -0.8072    0.3600 C   0  0  0  0  0  0  0  0  0  0  0  0
    0.6070   -1.6283    1.4738 C   0  0  0  0  0  0  0  0  0  0  0  0
   -0.5845   -1.8618    2.1291 C   0  0  0  0  0  0  0  0  0  0  0  0
   -1.7284   -1.2707    1.6588 C   0  0  0  0  0  0  0  0  0  0  0  0
   -1.7455   -0.4497    0.5564 C   0  0  0  0  0  0  0  0  0  0  0  0
   -2.8779    0.1548    0.0648 C   0  0  0  0  0  0  0  0  0  0  0  0
   -3.9639   -0.0440    0.6431 O   0  0  0  0  0  0  0  0  0  0  0  0
   -2.8536    0.9570   -1.0241 N   0  0  0  0  0  0  0  0  0  0  0  0
   -3.9950    1.5515   -1.4997 O   0  0  0  0  0  0  0  0  0  0  0  0
   -1.6648    1.1489   -1.6226 C   0  0  0  0  0  0  0  0  0  0  0  0
   -1.6373    1.8948   -2.6363 O   0  0  0  0  0  0  0  0  0  0  0  0
   -0.5313    0.5671   -1.1618 N   0  0  0  0  0  0  0  0  0  0  0  0
   -0.5399   -0.2325   -0.0809 C   0  0  0  0  0  0  0  0  0  0  0  0
    4.6451   -0.2276   -0.7461 H   0  0  0  0  0  0  0  0  0  0  0  0
    3.9628    1.1951   -1.5661 H   0  0  0  0  0  0  0  0  0  0  0  0
    4.6825    1.3091    0.1366 H   0  0  0  0  0  0  0  0  0  0  0  0
    2.1713   -1.2455   -1.0367 H   0  0  0  0  0  0  0  0  0  0  0  0
    1.5441   -2.0804    1.8158 H   0  0  0  0  0  0  0  0  0  0  0  0
   -0.5915   -2.5024    2.9951 H   0  0  0  0  0  0  0  0  0  0  0  0
   -2.6882   -1.4353    2.1550 H   0  0  0  0  0  0  0  0  0  0  0  0
   -4.2817    2.4998   -1.2309 H   0  0  0  0  0  0  0  0  0  0  0  0
    0.3812    0.7244   -1.6347 H   0  0  0  0  0  0  0  0  0  0  0  0
  1  2  1  0
  2  3  2  0
  2  4  1  0
  4  5  1  0
  5  6  2  0
  6  7  1  0
  7  8  2  0
  8  9  1  0
  9 10  1  0
 10 11  2  0
 10 12  1  0
 12 13  1  0
 12 14  1  0
 14 15  2  0
 14 16  1  0
 16 17  1  0
 17  5  1  0
 17  9  2  0
  1 18  1  0
  1 19  1  0
  1 20  1  0
  4 21  1  0
  6 22  1  0
  7 23  1  0
  8 24  1  0
 13 25  1  0
 16 26  1  0
M  END
$$$$
