@<TRIPOS>MOLECULE
*****
 54 57 0 0 0
SMALL
GASTEIGER

@<TRIPOS>ATOM
      1 C          -4.1270    2.3500    2.3749 C.3     1  UNL1        0.0004
      2 N          -4.0239    2.3672    0.9330 N.pl3   1  UNL1       -0.3360
      3 C          -4.1677    3.6253    0.2414 C.3     1  UNL1        0.0004
      4 C          -3.7850    1.1338    0.2756 C.ar    1  UNL1        0.0292
      5 C          -3.6658   -0.0021    1.0445 C.ar    1  UNL1       -0.0401
      6 C          -3.4299   -1.2599    0.4795 C.ar    1  UNL1       -0.0521
      7 C          -3.3102   -1.3767   -0.9073 C.ar    1  UNL1       -0.0118
      8 C          -3.4297   -0.2345   -1.6849 C.ar    1  UNL1       -0.0521
      9 C          -3.6610    0.9756   -1.0818 C.ar    1  UNL1       -0.0401
     10 C          -3.0636   -2.7039   -1.4713 C.ar    1  UNL1        0.0555
     11 C          -1.7946   -3.1960   -1.6716 C.ar    1  UNL1        0.1264
     12 N          -1.6325   -4.4209   -2.1926 N.ar    1  UNL1       -0.2264
     13 C          -2.6731   -5.2142   -2.5386 C.ar    1  UNL1        0.1194
     14 N          -3.9097   -4.7379   -2.3448 N.ar    1  UNL1       -0.2205
     15 C          -4.1323   -3.5182   -1.8264 C.ar    1  UNL1        0.1283
     16 N          -5.4585   -3.0282   -1.6274 N.pl3   1  UNL1       -0.3425
     17 C          -0.6482   -2.4029   -1.3249 C.1     1  UNL1       -0.0403
     18 C           0.3263   -1.7519   -1.0371 C.1     1  UNL1       -0.0580
     19 C           1.5011   -0.9965   -0.6999 C.ar    1  UNL1        0.0435
     20 C           2.7103   -1.5212   -1.1305 C.ar    1  UNL1       -0.0416
     21 C           3.8545   -0.8121   -0.8179 C.ar    1  UNL1       -0.0205
     22 C           3.8113    0.3647   -0.1109 C.ar    1  UNL1        0.1214
     23 N           2.6088    0.8404    0.2898 N.ar    1  UNL1       -0.2391
     24 C           1.4636    0.1859    0.0099 C.ar    1  UNL1        0.0451
     25 N           4.9624    1.1249    0.2315 N.pl3   1  UNL1       -0.3108
     26 C           4.8672    2.3802    0.9906 C.3     1  UNL1        0.0370
     27 C           6.2157    2.5593    1.6562 C.3     1  UNL1        0.0634
     28 O           6.7125    1.3602    2.1622 O.3     1  UNL1       -0.3767
     29 C           7.0775    0.4724    1.1650 C.3     1  UNL1        0.0634
     30 C           6.3028    0.7699   -0.1107 C.3     1  UNL1        0.0370
     31 H          -3.1508    2.1062    2.8548 H       1  UNL1        0.0428
     32 H          -4.4434    3.3208    2.7623 H       1  UNL1        0.0428
     33 H          -4.8871    1.5614    2.6372 H       1  UNL1        0.0428
     34 H          -3.2517    4.2472    0.3080 H       1  UNL1        0.0428
     35 H          -4.4631    3.5247   -0.8167 H       1  UNL1        0.0428
     36 H          -5.0055    4.2162    0.7096 H       1  UNL1        0.0428
     37 H          -3.7382   -0.0418    2.1155 H       1  UNL1        0.0636
     38 H          -3.3333   -2.1691    1.0793 H       1  UNL1        0.0624
     39 H          -3.3344   -0.3428   -2.7568 H       1  UNL1        0.0624
     40 H          -3.7479    1.8344   -1.7072 H       1  UNL1        0.0636
     41 H          -2.4065   -6.1790   -2.9479 H       1  UNL1        0.1048
     42 H          -6.1292   -2.9266   -0.8084 H       1  UNL1        0.1437
     43 H          -5.7536   -2.7166   -2.5786 H       1  UNL1        0.1437
     44 H           2.7702   -2.4459   -1.6886 H       1  UNL1        0.0631
     45 H           4.7907   -1.2001   -1.1405 H       1  UNL1        0.0652
     46 H           0.4739    0.4970    0.2917 H       1  UNL1        0.0843
     47 H           4.0870    2.2559    1.7588 H       1  UNL1        0.0487
     48 H           4.7179    3.2477    0.3398 H       1  UNL1        0.0487
     49 H           6.9346    3.0477    0.9652 H       1  UNL1        0.0575
     50 H           6.1393    3.2487    2.5279 H       1  UNL1        0.0575
     51 H           8.1577    0.5036    0.9303 H       1  UNL1        0.0575
     52 H           6.8522   -0.5814    1.4811 H       1  UNL1        0.0575
     53 H           6.7908    1.6788   -0.5700 H       1  UNL1        0.0487
     54 H           6.4290   -0.0200   -0.8491 H       1  UNL1        0.0487
@<TRIPOS>BOND
     1     1     2    1
     2     2     3    1
     3     2     4    1
     4     4     5   ar
     5     5     6   ar
     6     6     7   ar
     7     7     8   ar
     8     8     9   ar
     9     7    10    1
    10    10    11   ar
    11    11    12   ar
    12    12    13   ar
    13    13    14   ar
    14    14    15   ar
    15    15    16    1
    16    11    17    1
    17    17    18    3
    18    18    19    1
    19    19    20   ar
    20    20    21   ar
    21    21    22   ar
    22    22    23   ar
    23    23    24   ar
    24    22    25    1
    25    25    26    1
    26    26    27    1
    27    27    28    1
    28    28    29    1
    29    29    30    1
    30     9     4   ar
    31    15    10   ar
    32    24    19   ar
    33    30    25    1
    34     1    31    1
    35     1    32    1
    36     1    33    1
    37     3    34    1
    38     3    35    1
    39     3    36    1
    40     5    37    1
    41     6    38    1
    42     8    39    1
    43     9    40    1
    44    13    41    1
    45    16    42    1
    46    16    43    1
    47    20    44    1
    48    21    45    1
    49    24    46    1
    50    26    47    1
    51    26    48    1
    52    27    49    1
    53    27    50    1
    54    29    51    1
    55    29    52    1
    56    30    53    1
    57    30    54    1
