
     RDKit          3D

 54 57  0  0  0  0  0  0  0  0999 V2000
   -4.1270    2.3500    2.3749 C   0  0  0  0  0  0  0  0  0  0  0  0
   -4.0239    2.3672    0.9330 N   0  0  0  0  0  0  0  0  0  0  0  0
   -4.1677    3.6253    0.2414 C   0  0  0  0  0  0  0  0  0  0  0  0
   -3.7850    1.1338    0.2756 C   0  0  0  0  0  0  0  0  0  0  0  0
   -3.6658   -0.0021    1.0445 C   0  0  0  0  0  0  0  0  0  0  0  0
   -3.4299   -1.2599    0.4795 C   0  0  0  0  0  0  0  0  0  0  0  0
   -3.3102   -1.3767   -0.9073 C   0  0  0  0  0  0  0  0  0  0  0  0
   -3.4297   -0.2345   -1.6849 C   0  0  0  0  0  0  0  0  0  0  0  0
   -3.6610    0.9756   -1.0818 C   0  0  0  0  0  0  0  0  0  0  0  0
   -3.0636   -2.7039   -1.4713 C   0  0  0  0  0  0  0  0  0  0  0  0
   -1.7946   -3.1960   -1.6716 C   0  0  0  0  0  0  0  0  0  0  0  0
   -1.6325   -4.4209   -2.1926 N   0  0  0  0  0  0  0  0  0  0  0  0
   -2.6731   -5.2142   -2.5386 C   0  0  0  0  0  0  0  0  0  0  0  0
   -3.9097   -4.7379   -2.3448 N   0  0  0  0  0  0  0  0  0  0  0  0
   -4.1323   -3.5182   -1.8264 C   0  0  0  0  0  0  0  0  0  0  0  0
   -5.4585   -3.0282   -1.6274 N   0  0  0  0  0  0  0  0  0  0  0  0
   -0.6482   -2.4029   -1.3249 C   0  0  0  0  0  0  0  0  0  0  0  0
    0.3263   -1.7519   -1.0371 C   0  0  0  0  0  0  0  0  0  0  0  0
    1.5011   -0.9965   -0.6999 C   0  0  0  0  0  0  0  0  0  0  0  0
    2.7103   -1.5212   -1.1305 C   0  0  0  0  0  0  0  0  0  0  0  0
    3.8545   -0.8121   -0.8179 C   0  0  0  0  0  0  0  0  0  0  0  0
    3.8113    0.3647   -0.1109 C   0  0  0  0  0  0  0  0  0  0  0  0
    2.6088    0.8404    0.2898 N   0  0  0  0  0  0  0  0  0  0  0  0
    1.4636    0.1859    0.0099 C   0  0  0  0  0  0  0  0  0  0  0  0
    4.9624    1.1249    0.2315 N   0  0  0  0  0  0  0  0  0  0  0  0
    4.8672    2.3802    0.9906 C   0  0  0  0  0  0  0  0  0  0  0  0
    6.2157    2.5593    1.6562 C   0  0  0  0  0  0  0  0  0  0  0  0
    6.7125    1.3602    2.1622 O   0  0  0  0  0  0  0  0  0  0  0  0
    7.0775    0.4724    1.1650 C   0  0  0  0  0  0  0  0  0  0  0  0
    6.3028    0.7699   -0.1107 C   0  0  0  0  0  0  0  0  0  0  0  0
   -3.1508    2.1062    2.8548 H   0  0  0  0  0  0  0  0  0  0  0  0
   -4.4434    3.3208    2.7623 H   0  0  0  0  0  0  0  0  0  0  0  0
   -4.8871    1.5614    2.6372 H   0  0  0  0  0  0  0  0  0  0  0  0
   -3.2517    4.2472    0.3080 H   0  0  0  0  0  0  0  0  0  0  0  0
   -4.4631    3.5247   -0.8167 H   0  0  0  0  0  0  0  0  0  0  0  0
   -5.0055    4.2162    0.7096 H   0  0  0  0  0  0  0  0  0  0  0  0
   -3.7382   -0.0418    2.1155 H   0  0  0  0  0  0  0  0  0  0  0  0
   -3.3333   -2.1691    1.0793 H   0  0  0  0  0  0  0  0  0  0  0  0
   -3.3344   -0.3428   -2.7568 H   0  0  0  0  0  0  0  0  0  0  0  0
   -3.7479    1.8344   -1.7072 H   0  0  0  0  0  0  0  0  0  0  0  0
   -2.4065   -6.1790   -2.9479 H   0  0  0  0  0  0  0  0  0  0  0  0
   -6.1292   -2.9266   -0.8084 H   0  0  0  0  0  0  0  0  0  0  0  0
   -5.7536   -2.7166   -2.5786 H   0  0  0  0  0  0  0  0  0  0  0  0
    2.7702   -2.4459   -1.6886 H   0  0  0  0  0  0  0  0  0  0  0  0
    4.7907   -1.2001   -1.1405 H   0  0  0  0  0  0  0  0  0  0  0  0
    0.4739    0.4970    0.2917 H   0  0  0  0  0  0  0  0  0  0  0  0
    4.0870    2.2559    1.7588 H   0  0  0  0  0  0  0  0  0  0  0  0
    4.7179    3.2477    0.3398 H   0  0  0  0  0  0  0  0  0  0  0  0
    6.9346    3.0477    0.9652 H   0  0  0  0  0  0  0  0  0  0  0  0
    6.1393    3.2487    2.5279 H   0  0  0  0  0  0  0  0  0  0  0  0
    8.1577    0.5036    0.9303 H   0  0  0  0  0  0  0  0  0  0  0  0
    6.8522   -0.5814    1.4811 H   0  0  0  0  0  0  0  0  0  0  0  0
    6.7908    1.6788   -0.5700 H   0  0  0  0  0  0  0  0  0  0  0  0
    6.4290   -0.0200   -0.8491 H   0  0  0  0  0  0  0  0  0  0  0  0
  1  2  1  0
  2  3  1  0
  2  4  1  0
  4  5  2  0
  5  6  1  0
  6  7  2  0
  7  8  1  0
  8  9  2  0
  7 10  1  0
 10 11  1  0
 11 12  2  0
 12 13  1  0
 13 14  2  0
 14 15  1  0
 15 16  1  0
 11 17  1  0
 17 18  3  0
 18 19  1  0
 19 20  2  0
 20 21  1  0
 21 22  2  0
 22 23  1  0
 23 24  2  0
 22 25  1  0
 25 26  1  0
 26 27  1  0
 27 28  1  0
 28 29  1  0
 29 30  1  0
  9  4  1  0
 15 10  2  0
 24 19  1  0
 30 25  1  0
  1 31  1  0
  1 32  1  0
  1 33  1  0
  3 34  1  0
  3 35  1  0
  3 36  1  0
  5 37  1  0
  6 38  1  0
  8 39  1  0
  9 40  1  0
 13 41  1  0
 16 42  1  0
 16 43  1  0
 20 44  1  0
 21 45  1  0
 24 46  1  0
 26 47  1  0
 26 48  1  0
 27 49  1  0
 27 50  1  0
 29 51  1  0
 29 52  1  0
 30 53  1  0
 30 54  1  0
M  END
$$$$
