@<TRIPOS>MOLECULE
*****
 134 136 0 0 0
SMALL
GASTEIGER

@<TRIPOS>ATOM
      1 C           1.9200   -6.3864    0.1759 C.3     1  UNL1       -0.0618
      2 C           2.8806   -5.2865    0.6389 C.3     1  UNL1       -0.0157
      3 C           2.4406   -3.9435    0.2019 C.3     1  UNL1        0.1335
      4 O           1.1937   -3.5036    0.6460 O.3     1  UNL1       -0.4581
      5 C           0.1679   -2.9101   -0.0330 C.2     1  UNL1        0.3128
      6 O           0.1061   -2.5884   -1.2451 O.2     1  UNL1       -0.2504
      7 C          -1.0971   -2.5579    0.6701 C.3     1  UNL1        0.0801
      8 C          -2.0730   -3.6311    0.8185 C.3     1  UNL1       -0.0499
      9 C          -1.6214   -1.1915    0.1649 C.3     1  UNL1        0.0793
     10 O          -2.9217   -1.0065    0.6316 O.3     1  UNL1       -0.3468
     11 C          -3.9382   -1.2482   -0.2645 C.3     1  UNL1        0.1627
     12 C          -5.0352   -1.9580    0.4416 C.3     1  UNL1        0.0298
     13 C          -6.2226   -2.1169   -0.4704 C.3     1  UNL1        0.0991
     14 C          -6.4279   -3.6422   -0.6025 C.3     1  UNL1       -0.0331
     15 O          -7.3906   -1.5699    0.0722 O.3     1  UNL1       -0.3740
     16 C          -7.7819   -2.1298    1.2599 C.3     1  UNL1        0.0373
     17 C          -6.0286   -1.6207   -1.8584 C.3     1  UNL1        0.1098
     18 O          -7.3100   -1.2545   -2.3382 O.3     1  UNL1       -0.3864
     19 C          -5.1345   -0.4413   -1.9834 C.3     1  UNL1        0.0874
     20 C          -4.0178   -0.8459   -2.9399 C.3     1  UNL1       -0.0361
     21 O          -4.5370   -0.0692   -0.7748 O.3     1  UNL1       -0.3456
     22 C          -0.7425   -0.1259    0.7693 C.3     1  UNL1        0.0124
     23 C          -1.0056   -0.2399    2.2659 C.3     1  UNL1       -0.0576
     24 C          -0.5828    1.1974    0.2519 C.3     1  UNL1        0.0951
     25 O          -1.5546    2.1358    0.1601 O.3     1  UNL1       -0.3423
     26 C          -1.7294    2.9229   -0.9281 C.3     1  UNL1        0.1871
     27 O          -1.2739    4.1785   -0.5259 O.3     1  UNL1       -0.3457
     28 C          -2.1472    5.0819   -0.0338 C.3     1  UNL1        0.0605
     29 C          -2.8582    4.6408    1.2088 C.3     1  UNL1       -0.0385
     30 C          -3.1586    5.5228   -1.0867 C.3     1  UNL1       -0.0085
     31 C          -3.1974    4.4650   -2.1767 C.3     1  UNL1        0.0429
     32 C          -3.0709    3.1058   -1.5104 C.3     1  UNL1        0.1214
     33 O          -3.3811    2.1973   -2.5201 O.3     1  UNL1       -0.3852
     34 N          -4.3011    4.5455   -3.0576 N.3     1  UNL1       -0.3027
     35 C          -4.3964    5.7654   -3.7761 C.3     1  UNL1       -0.0127
     36 C          -5.5062    3.9084   -2.6810 C.3     1  UNL1       -0.0127
     37 C           0.7219    1.9298    0.8007 C.3     1  UNL1        0.0903
     38 C           0.5226    2.4647    2.1571 C.3     1  UNL1       -0.0336
     39 O           0.9835    2.9046   -0.1582 O.3     1  UNL1       -0.3863
     40 C           1.8830    0.9950    0.7670 C.3     1  UNL1       -0.0140
     41 C           3.2452    1.5321    1.0380 C.3     1  UNL1        0.0008
     42 C           3.5222    2.2170    2.3089 C.3     1  UNL1       -0.0571
     43 C           4.1894    0.3320    0.9725 C.2     1  UNL1        0.0660
     44 N           5.0005    0.1939    2.0033 N.2     1  UNL1       -0.0907
     45 O           5.9107   -0.7887    2.1444 O.2     1  UNL1       -0.3653
     46 C           6.9996   -0.6138    3.0247 C.3     1  UNL1        0.2180
     47 O           7.7231    0.4947    2.5980 O.3     1  UNL1       -0.3399
     48 C           8.1545    0.2073    1.2790 C.3     1  UNL1        0.0748
     49 C           8.9458    1.4259    0.8565 C.3     1  UNL1        0.0708
     50 O           9.4379    1.3162   -0.4177 O.3     1  UNL1       -0.3807
     51 C          10.2916    0.2694   -0.6445 C.3     1  UNL1        0.0365
     52 C           4.2895   -0.6269   -0.1415 C.3     1  UNL1        0.0268
     53 C           4.5901    0.1399   -1.4407 C.3     1  UNL1       -0.0547
     54 C           3.3077   -1.6892   -0.2857 C.3     1  UNL1        0.0948
     55 O           3.5281   -2.2664   -1.5955 O.3     1  UNL1       -0.3882
     56 C           3.5144   -2.9039    0.6480 C.3     1  UNL1        0.1261
     57 C           3.3492   -2.6494    2.0824 C.3     1  UNL1       -0.0301
     58 O           4.7978   -3.3398    0.3561 O.3     1  UNL1       -0.3826
     59 H           1.6732   -6.1255   -0.8685 H       1  UNL1        0.0231
     60 H           2.3994   -7.3775    0.1538 H       1  UNL1        0.0231
     61 H           1.0471   -6.4295    0.8338 H       1  UNL1        0.0231
     62 H           2.9575   -5.4144    1.7249 H       1  UNL1        0.0299
     63 H           3.9096   -5.4922    0.2339 H       1  UNL1        0.0299
     64 H           2.3995   -3.8307   -0.9329 H       1  UNL1        0.0764
     65 H          -0.7488   -2.3086    1.7412 H       1  UNL1        0.0436
     66 H          -1.5819   -4.6494    0.8650 H       1  UNL1        0.0238
     67 H          -2.6343   -3.5767    1.7829 H       1  UNL1        0.0238
     68 H          -2.7667   -3.7516   -0.0671 H       1  UNL1        0.0238
     69 H          -1.5986   -1.2433   -0.9009 H       1  UNL1        0.0608
     70 H          -3.5659   -1.7647   -1.1359 H       1  UNL1        0.0911
     71 H          -5.4035   -1.2390    1.2611 H       1  UNL1        0.0343
     72 H          -4.7611   -2.9183    0.9307 H       1  UNL1        0.0343
     73 H          -7.1140   -3.8505   -1.4269 H       1  UNL1        0.0258
     74 H          -6.6455   -4.1206    0.3517 H       1  UNL1        0.0258
     75 H          -5.3929   -4.0067   -0.8783 H       1  UNL1        0.0258
     76 H          -7.0561   -2.0547    2.0901 H       1  UNL1        0.0524
     77 H          -8.6619   -1.5127    1.6120 H       1  UNL1        0.0524
     78 H          -8.2322   -3.1588    1.1599 H       1  UNL1        0.0524
     79 H          -5.7210   -2.4458   -2.5593 H       1  UNL1        0.0648
     80 H          -7.7241   -1.9303   -2.8970 H       1  UNL1        0.2100
     81 H          -5.6638    0.4060   -2.4445 H       1  UNL1        0.0621
     82 H          -4.1839   -0.3990   -3.9493 H       1  UNL1        0.0255
     83 H          -3.0216   -0.5043   -2.6317 H       1  UNL1        0.0255
     84 H          -3.9674   -1.9399   -3.1061 H       1  UNL1        0.0255
     85 H           0.3028   -0.6212    0.6864 H       1  UNL1        0.0349
     86 H          -0.2087   -0.6363    2.8629 H       1  UNL1        0.0234
     87 H          -1.8857   -0.9073    2.3768 H       1  UNL1        0.0234
     88 H          -1.4487    0.7402    2.6292 H       1  UNL1        0.0234
     89 H          -0.1984    1.1338   -0.7973 H       1  UNL1        0.0629
     90 H          -1.0310    2.6803   -1.7748 H       1  UNL1        0.0937
     91 H          -1.5455    5.9924    0.2318 H       1  UNL1        0.0595
     92 H          -3.9653    4.8244    1.1104 H       1  UNL1        0.0255
     93 H          -2.5128    5.3084    2.0545 H       1  UNL1        0.0255
     94 H          -2.6412    3.6139    1.5116 H       1  UNL1        0.0255
     95 H          -4.1423    5.5497   -0.6086 H       1  UNL1        0.0306
     96 H          -2.9017    6.5230   -1.4447 H       1  UNL1        0.0306
     97 H          -2.2677    4.5960   -2.7684 H       1  UNL1        0.0490
     98 H          -3.9000    3.0539   -0.7497 H       1  UNL1        0.0660
     99 H          -3.0650    2.5360   -3.3953 H       1  UNL1        0.2101
    100 H          -3.3617    6.2186   -3.7839 H       1  UNL1        0.0391
    101 H          -5.1475    6.4871   -3.4236 H       1  UNL1        0.0391
    102 H          -4.5823    5.5312   -4.8510 H       1  UNL1        0.0391
    103 H          -6.3395    4.6345   -2.9150 H       1  UNL1        0.0391
    104 H          -5.7249    3.0282   -3.3423 H       1  UNL1        0.0391
    105 H          -5.6411    3.6451   -1.6341 H       1  UNL1        0.0391
    106 H           1.2417    3.2851    2.4274 H       1  UNL1        0.0258
    107 H          -0.5262    2.8300    2.2771 H       1  UNL1        0.0258
    108 H           0.6508    1.6973    2.9382 H       1  UNL1        0.0258
    109 H           1.3658    2.4429   -0.9606 H       1  UNL1        0.2103
    110 H           1.7638    0.1306    1.4435 H       1  UNL1        0.0300
    111 H           1.9405    0.7001   -0.3346 H       1  UNL1        0.0300
    112 H           3.5373    2.2113    0.1876 H       1  UNL1        0.0360
    113 H           4.6090    1.9905    2.5850 H       1  UNL1        0.0236
    114 H           2.9803    1.8303    3.1946 H       1  UNL1        0.0236
    115 H           3.5536    3.3310    2.2462 H       1  UNL1        0.0236
    116 H           6.6079   -0.3800    4.0409 H       1  UNL1        0.1042
    117 H           7.6594   -1.5125    3.0405 H       1  UNL1        0.1042
    118 H           8.7795   -0.7072    1.2884 H       1  UNL1        0.0584
    119 H           7.2884    0.0255    0.6267 H       1  UNL1        0.0584
    120 H           8.3169    2.3425    0.8884 H       1  UNL1        0.0582
    121 H           9.7489    1.6156    1.6125 H       1  UNL1        0.0582
    122 H           9.7740   -0.6801   -0.4484 H       1  UNL1        0.0524
    123 H          11.1856    0.3066    0.0143 H       1  UNL1        0.0524
    124 H          10.6671    0.3457   -1.6897 H       1  UNL1        0.0524
    125 H           5.2931   -1.1539    0.0426 H       1  UNL1        0.0385
    126 H           5.1444   -0.5884   -2.0950 H       1  UNL1        0.0237
    127 H           5.3139    0.9255   -1.1516 H       1  UNL1        0.0237
    128 H           3.6936    0.5224   -1.9242 H       1  UNL1        0.0237
    129 H           2.2890   -1.3827   -0.3015 H       1  UNL1        0.0629
    130 H           3.2406   -1.5759   -2.2338 H       1  UNL1        0.2099
    131 H           2.5416   -3.3432    2.4870 H       1  UNL1        0.0259
    132 H           4.2560   -2.8902    2.6986 H       1  UNL1        0.0259
    133 H           2.9652   -1.6523    2.2805 H       1  UNL1        0.0259
    134 H           5.2117   -3.9032    1.0458 H       1  UNL1        0.2104
@<TRIPOS>BOND
     1     1     2    1
     2     2     3    1
     3     3     4    1
     4     4     5    1
     5     5     6    2
     6     5     7    1
     7     7     8    1
     8     7     9    1
     9     9    10    1
    10    10    11    1
    11    11    12    1
    12    12    13    1
    13    13    14    1
    14    13    15    1
    15    15    16    1
    16    13    17    1
    17    17    18    1
    18    17    19    1
    19    19    20    1
    20    19    21    1
    21     9    22    1
    22    22    23    1
    23    22    24    1
    24    24    25    1
    25    25    26    1
    26    26    27    1
    27    27    28    1
    28    28    29    1
    29    28    30    1
    30    30    31    1
    31    31    32    1
    32    32    33    1
    33    31    34    1
    34    34    35    1
    35    34    36    1
    36    24    37    1
    37    37    38    1
    38    37    39    1
    39    37    40    1
    40    40    41    1
    41    41    42    1
    42    41    43    1
    43    43    44    2
    44    44    45    1
    45    45    46    1
    46    46    47    1
    47    47    48    1
    48    48    49    1
    49    49    50    1
    50    50    51    1
    51    43    52    1
    52    52    53    1
    53    52    54    1
    54    54    55    1
    55    54    56    1
    56    56    57    1
    57    56    58    1
    58    56     3    1
    59    21    11    1
    60    32    26    1
    61     1    59    1
    62     1    60    1
    63     1    61    1
    64     2    62    1
    65     2    63    1
    66     3    64    1
    67     7    65    1
    68     8    66    1
    69     8    67    1
    70     8    68    1
    71     9    69    1
    72    11    70    1
    73    12    71    1
    74    12    72    1
    75    14    73    1
    76    14    74    1
    77    14    75    1
    78    16    76    1
    79    16    77    1
    80    16    78    1
    81    17    79    1
    82    18    80    1
    83    19    81    1
    84    20    82    1
    85    20    83    1
    86    20    84    1
    87    22    85    1
    88    23    86    1
    89    23    87    1
    90    23    88    1
    91    24    89    1
    92    26    90    1
    93    28    91    1
    94    29    92    1
    95    29    93    1
    96    29    94    1
    97    30    95    1
    98    30    96    1
    99    31    97    1
   100    32    98    1
   101    33    99    1
   102    35   100    1
   103    35   101    1
   104    35   102    1
   105    36   103    1
   106    36   104    1
   107    36   105    1
   108    38   106    1
   109    38   107    1
   110    38   108    1
   111    39   109    1
   112    40   110    1
   113    40   111    1
   114    41   112    1
   115    42   113    1
   116    42   114    1
   117    42   115    1
   118    46   116    1
   119    46   117    1
   120    48   118    1
   121    48   119    1
   122    49   120    1
   123    49   121    1
   124    51   122    1
   125    51   123    1
   126    51   124    1
   127    52   125    1
   128    53   126    1
   129    53   127    1
   130    53   128    1
   131    54   129    1
   132    55   130    1
   133    57   131    1
   134    57   132    1
   135    57   133    1
   136    58   134    1
