@<TRIPOS>MOLECULE
*****
 36 38 0 0 0
SMALL
GASTEIGER

@<TRIPOS>ATOM
      1 BR         -5.1088    3.6134   -1.8668 Br      1  UNL1       -0.0502
      2 C          -4.6935    1.9742   -0.9923 C.ar    1  UNL1        0.0196
      3 C          -5.7000    1.1928   -0.4707 C.ar    1  UNL1       -0.0476
      4 C          -5.3309    0.0260    0.1455 C.ar    1  UNL1       -0.0590
      5 C          -4.0035   -0.3364    0.2314 C.ar    1  UNL1       -0.0404
      6 C          -2.9793    0.4045   -0.2693 C.ar    1  UNL1        0.0334
      7 N          -1.6229    0.0089   -0.1615 N.pl3   1  UNL1       -0.2988
      8 C          -1.0967   -1.0959    0.5283 C.ar    1  UNL1        0.1339
      9 C           0.2552   -1.3467    0.5104 C.ar    1  UNL1        0.0422
     10 C           1.1724   -0.5719   -0.1623 C.ar    1  UNL1       -0.0280
     11 C           2.5327   -0.7821   -0.2105 C.ar    1  UNL1        0.0344
     12 N           3.4180    0.0680   -0.9306 N.am    1  UNL1       -0.2820
     13 C           3.9734    1.1717   -0.2417 C.2     1  UNL1        0.2405
     14 O           3.7640    1.4847    0.9571 O.2     1  UNL1       -0.2705
     15 C           4.8726    2.0113   -1.0206 C.2     1  UNL1       -0.0066
     16 C           5.4603    3.0753   -0.4996 C.2     1  UNL1       -0.0938
     17 C           3.0426   -1.8728    0.4780 C.ar    1  UNL1       -0.0384
     18 C           2.1682   -2.6786    1.1660 C.ar    1  UNL1       -0.0338
     19 C           0.8342   -2.4082    1.1686 C.ar    1  UNL1        0.0761
     20 N           0.0507   -3.2546    1.8711 N.ar    1  UNL1       -0.2353
     21 C          -1.2639   -3.0371    1.9069 C.ar    1  UNL1        0.1187
     22 N          -1.7712   -1.9935    1.2510 N.ar    1  UNL1       -0.2200
     23 C          -3.3869    1.5673   -0.8799 C.ar    1  UNL1       -0.0265
     24 H          -6.7226    1.5270   -0.5674 H       1  UNL1        0.0629
     25 H          -6.1501   -0.5584    0.5412 H       1  UNL1        0.0618
     26 H          -3.8906   -1.2743    0.7404 H       1  UNL1        0.0636
     27 H          -1.0077    0.6627   -0.6803 H       1  UNL1        0.1536
     28 H           0.8500    0.2917   -0.7204 H       1  UNL1        0.0644
     29 H           3.6326   -0.1385   -1.9308 H       1  UNL1        0.1551
     30 H           5.1372    1.8569   -2.0530 H       1  UNL1        0.0663
     31 H           6.1372    3.8612   -0.7789 H       1  UNL1        0.0536
     32 H           5.4004    3.4882    0.4915 H       1  UNL1        0.0536
     33 H           4.1030   -2.0629    0.4587 H       1  UNL1        0.0637
     34 H           2.6143   -3.5128    1.6847 H       1  UNL1        0.0639
     35 H          -2.0591   -3.5898    2.4060 H       1  UNL1        0.1048
     36 H          -2.6314    2.2288   -1.3132 H       1  UNL1        0.0647
@<TRIPOS>BOND
     1     1     2    1
     2     2     3   ar
     3     3     4   ar
     4     4     5   ar
     5     5     6   ar
     6     6     7    1
     7     7     8    1
     8     8     9   ar
     9     9    10   ar
    10    10    11   ar
    11    11    12    1
    12    12    13   am
    13    13    14    2
    14    13    15    1
    15    15    16    2
    16    11    17   ar
    17    17    18   ar
    18    18    19   ar
    19    19    20   ar
    20    20    21   ar
    21    21    22   ar
    22     6    23   ar
    23    23     2   ar
    24    22     8   ar
    25    19     9   ar
    26     3    24    1
    27     4    25    1
    28     5    26    1
    29     7    27    1
    30    10    28    1
    31    12    29    1
    32    15    30    1
    33    16    31    1
    34    16    32    1
    35    17    33    1
    36    18    34    1
    37    21    35    1
    38    23    36    1
