@<TRIPOS>MOLECULE
*****
 57 60 0 0 0
SMALL
GASTEIGER

@<TRIPOS>ATOM
      1 N           5.8906   -2.8031   -0.6418 N.am    1  UNL1       -0.3291
      2 C           6.0438   -1.4093   -0.8701 C.2     1  UNL1        0.2136
      3 O           6.2221   -0.9082   -2.0135 O.2     1  UNL1       -0.2757
      4 C           5.9928   -0.4801    0.2978 C.3     1  UNL1        0.0354
      5 C           6.1703    0.9415   -0.1172 C.3     1  UNL1       -0.0405
      6 C           4.9590    1.6281   -0.6382 C.3     1  UNL1       -0.0368
      7 C           3.6676    1.2335    0.1084 C.3     1  UNL1        0.0079
      8 N           3.0834    0.1988   -0.6669 N.3     1  UNL1       -0.3099
      9 C           1.7436   -0.1557   -0.4142 C.3     1  UNL1        0.0154
     10 C           1.2208   -0.7326    0.8525 C.3     1  UNL1       -0.0287
     11 C           0.9648    0.6760    0.5472 C.3     1  UNL1        0.0024
     12 C          -0.4163    1.0945    0.1209 C.ar    1  UNL1       -0.0244
     13 C          -0.9201    2.3527    0.3988 C.ar    1  UNL1       -0.0518
     14 C          -2.1897    2.6405   -0.0254 C.ar    1  UNL1        0.0003
     15 C          -2.9577    1.6978   -0.7177 C.ar    1  UNL1        0.2150
     16 O          -4.2388    2.0533   -1.1206 O.3     1  UNL1       -0.4716
     17 C          -5.1402    1.2497   -1.8143 C.3     1  UNL1        0.1163
     18 C          -5.5348   -0.0003   -1.1356 C.ar    1  UNL1       -0.0098
     19 C          -4.9443   -1.2273   -1.3464 C.ar    1  UNL1       -0.0553
     20 C          -5.3214   -2.3832   -0.6894 C.ar    1  UNL1       -0.0609
     21 C          -6.3437   -2.3289    0.2324 C.ar    1  UNL1       -0.0501
     22 C          -6.9503   -1.1036    0.4576 C.ar    1  UNL1        0.0552
     23 C          -8.0653   -1.0689    1.4692 C.3     1  UNL1        0.4174
     24 F          -8.4175    0.2277    1.7148 F       1  UNL1       -0.1659
     25 F          -9.0936   -1.8573    1.0371 F       1  UNL1       -0.1659
     26 F          -7.5284   -1.6637    2.6172 F       1  UNL1       -0.1659
     27 C          -6.5717    0.0358   -0.1960 C.ar    1  UNL1       -0.0437
     28 N          -2.4172    0.5093   -0.9529 N.ar    1  UNL1       -0.2210
     29 C          -1.1901    0.1823   -0.5618 C.ar    1  UNL1        0.0349
     30 C           4.1679    0.6448    1.4344 C.3     1  UNL1       -0.0368
     31 C           4.7381   -0.7154    1.1143 C.3     1  UNL1       -0.0405
     32 H           6.5835   -3.2547    0.0042 H       1  UNL1        0.1449
     33 H           5.1184   -3.3031   -1.1125 H       1  UNL1        0.1449
     34 H           6.8563   -0.7559    0.9549 H       1  UNL1        0.0394
     35 H           6.9114    0.9191   -0.9747 H       1  UNL1        0.0273
     36 H           6.7261    1.5422    0.6631 H       1  UNL1        0.0273
     37 H           5.0819    2.7153   -0.4584 H       1  UNL1        0.0280
     38 H           4.8304    1.4805   -1.7291 H       1  UNL1        0.0280
     39 H           3.0546    2.1327    0.2747 H       1  UNL1        0.0460
     40 H           3.2926    0.2119   -1.6791 H       1  UNL1        0.1225
     41 H           1.1270   -0.4574   -1.3460 H       1  UNL1        0.0466
     42 H           1.9262   -1.0469    1.6429 H       1  UNL1        0.0287
     43 H           0.3987   -1.5000    0.7532 H       1  UNL1        0.0287
     44 H           1.4301    1.4365    1.1945 H       1  UNL1        0.0365
     45 H          -0.3013    3.0782    0.9433 H       1  UNL1        0.0622
     46 H          -2.6313    3.6271    0.1729 H       1  UNL1        0.0671
     47 H          -6.0833    1.8555   -1.9305 H       1  UNL1        0.0748
     48 H          -4.8187    1.0633   -2.8745 H       1  UNL1        0.0748
     49 H          -4.1329   -1.3016   -2.0855 H       1  UNL1        0.0621
     50 H          -4.8556   -3.3432   -0.8573 H       1  UNL1        0.0618
     51 H          -6.6860   -3.2017    0.7812 H       1  UNL1        0.0623
     52 H          -7.0600    0.9983   -0.0082 H       1  UNL1        0.0627
     53 H          -0.7622   -0.8146   -0.7659 H       1  UNL1        0.0833
     54 H           3.3926    0.6380    2.2014 H       1  UNL1        0.0280
     55 H           5.0278    1.3301    1.7506 H       1  UNL1        0.0280
     56 H           4.0133   -1.2540    0.4773 H       1  UNL1        0.0273
     57 H           4.9366   -1.3241    2.0157 H       1  UNL1        0.0273
@<TRIPOS>BOND
     1     1     2   am
     2     2     3    2
     3     2     4    1
     4     4     5    1
     5     5     6    1
     6     6     7    1
     7     7     8    1
     8     8     9    1
     9     9    10    1
    10    10    11    1
    11    11    12    1
    12    12    13   ar
    13    13    14   ar
    14    14    15   ar
    15    15    16    1
    16    16    17    1
    17    17    18    1
    18    18    19   ar
    19    19    20   ar
    20    20    21   ar
    21    21    22   ar
    22    22    23    1
    23    23    24    1
    24    23    25    1
    25    23    26    1
    26    22    27   ar
    27    15    28   ar
    28    28    29   ar
    29     7    30    1
    30    30    31    1
    31    31     4    1
    32    11     9    1
    33    29    12   ar
    34    27    18   ar
    35     1    32    1
    36     1    33    1
    37     4    34    1
    38     5    35    1
    39     5    36    1
    40     6    37    1
    41     6    38    1
    42     7    39    1
    43     8    40    1
    44     9    41    1
    45    10    42    1
    46    10    43    1
    47    11    44    1
    48    13    45    1
    49    14    46    1
    50    17    47    1
    51    17    48    1
    52    19    49    1
    53    20    50    1
    54    21    51    1
    55    27    52    1
    56    29    53    1
    57    30    54    1
    58    30    55    1
    59    31    56    1
    60    31    57    1
