@<TRIPOS>MOLECULE
*****
 191 194 0 0 0
SMALL
GASTEIGER

@<TRIPOS>ATOM
      1 C          17.0468    0.8567   -0.9485 C.3     1  UNL1       -0.0181
      2 S          16.9233    0.0867   -2.5585 S.3     1  UNL1       -0.1641
      3 C          16.6802   -1.6514   -2.4670 C.3     1  UNL1       -0.0044
      4 C          15.3801   -2.2403   -2.2273 C.3     1  UNL1       -0.0170
      5 C          14.4888   -1.9531   -1.0901 C.3     1  UNL1        0.0999
      6 N          13.9589   -0.6168   -0.9987 N.am    1  UNL1       -0.3025
      7 C          12.5554   -0.3704   -1.1309 C.2     1  UNL1        0.2340
      8 O          11.8452   -1.4390   -1.2855 O.2     1  UNL1       -0.2738
      9 C          11.8530    0.9091   -1.1192 C.3     1  UNL1        0.0996
     10 C          12.2079    1.9405   -0.1535 C.3     1  UNL1       -0.0236
     11 C          12.0585    1.6126    1.3039 C.3     1  UNL1       -0.0446
     12 C          12.5005    2.8925    2.0460 C.3     1  UNL1       -0.0626
     13 C          12.9418    0.5306    1.8125 C.3     1  UNL1       -0.0626
     14 N          10.3994    0.7026   -1.2629 N.am    1  UNL1       -0.3027
     15 C           9.8478    0.2843   -2.4942 C.2     1  UNL1        0.2308
     16 O          10.7639    0.1210   -3.4118 O.2     1  UNL1       -0.2741
     17 C           8.4653    0.0219   -2.8427 C.3     1  UNL1        0.0882
     18 N           7.3996    0.2368   -1.9748 N.am    1  UNL1       -0.3052
     19 C           6.9796    1.5069   -1.4658 C.2     1  UNL1        0.2341
     20 O           7.6551    2.4960   -1.8261 O.2     1  UNL1       -0.2738
     21 C           5.8345    1.6789   -0.5960 C.3     1  UNL1        0.1036
     22 C           5.8829    2.7593    0.4183 C.3     1  UNL1       -0.0006
     23 C           6.9433    2.7261    1.4289 C.ar    1  UNL1       -0.0451
     24 C           8.0811    3.4991    1.2579 C.ar    1  UNL1       -0.0585
     25 C           9.0832    3.5209    2.1982 C.ar    1  UNL1       -0.0615
     26 C           8.9806    2.7656    3.3421 C.ar    1  UNL1       -0.0617
     27 C           7.8286    1.9837    3.5060 C.ar    1  UNL1       -0.0615
     28 C           6.8147    1.9445    2.5883 C.ar    1  UNL1       -0.0585
     29 N           5.2873    0.4347   -0.0513 N.am    1  UNL1       -0.2987
     30 C           3.9236    0.1574   -0.1724 C.2     1  UNL1        0.2589
     31 O           3.1377    0.9812   -0.7748 O.2     1  UNL1       -0.2688
     32 C           3.3050   -1.0513    0.3616 C.2     1  UNL1        0.0965
     33 C           3.8897   -1.9951    1.0057 C.2     1  UNL1       -0.0282
     34 C           5.2573   -2.2174    1.4187 C.ar    1  UNL1       -0.0231
     35 C           6.1346   -3.0149    0.7339 C.ar    1  UNL1       -0.0545
     36 C           7.4111   -3.2737    1.2013 C.ar    1  UNL1       -0.0612
     37 C           7.8279   -2.7131    2.4014 C.ar    1  UNL1       -0.0617
     38 C           6.9380   -1.9143    3.0822 C.ar    1  UNL1       -0.0612
     39 C           5.6705   -1.6499    2.6298 C.ar    1  UNL1       -0.0545
     40 N           1.8784   -1.1733    0.0740 N.am    1  UNL1       -0.2798
     41 C           1.1274   -2.3311    0.1031 C.2     1  UNL1        0.2377
     42 O           1.7252   -3.4539    0.3612 O.2     1  UNL1       -0.2734
     43 C          -0.3160   -2.4812   -0.1231 C.3     1  UNL1        0.1002
     44 C          -0.6009   -3.4269   -1.2743 C.3     1  UNL1       -0.0177
     45 C           0.0245   -2.8789   -2.5511 C.3     1  UNL1        0.0259
     46 C          -0.2670   -3.8187   -3.6862 C.2     1  UNL1        0.2106
     47 N           0.1716   -3.5001   -4.9952 N.am    1  UNL1       -0.3293
     48 O          -0.8901   -4.8900   -3.5151 O.2     1  UNL1       -0.2760
     49 N          -1.1205   -1.3255   -0.2857 N.am    1  UNL1       -0.3025
     50 C          -1.5923   -0.6318    0.8423 C.2     1  UNL1        0.2340
     51 O          -1.1886   -1.0716    1.9895 O.2     1  UNL1       -0.2738
     52 C          -2.4721    0.5080    0.8621 C.3     1  UNL1        0.0999
     53 C          -2.8392    1.0398    2.2493 C.3     1  UNL1       -0.0177
     54 C          -1.6401    1.5256    2.9873 C.3     1  UNL1        0.0259
     55 C          -1.9949    2.0899    4.3170 C.2     1  UNL1        0.2106
     56 N          -1.0242    2.5835    5.2238 N.am    1  UNL1       -0.3293
     57 O          -3.2423    2.1072    4.6152 O.2     1  UNL1       -0.2760
     58 N          -3.6554    0.4152    0.0271 N.am    1  UNL1       -0.3025
     59 C          -4.2233    1.5567   -0.5475 C.2     1  UNL1        0.2342
     60 O          -3.6014    2.6550   -0.2903 O.2     1  UNL1       -0.2738
     61 C          -5.4107    1.6364   -1.3823 C.3     1  UNL1        0.1023
     62 C          -5.0917    2.1545   -2.7832 C.3     1  UNL1       -0.0243
     63 C          -5.0069    0.9267   -3.6538 C.3     1  UNL1       -0.0350
     64 C          -5.3321   -0.2327   -2.6950 C.3     1  UNL1        0.0156
     65 N          -6.1182    0.4427   -1.6914 N.am    1  UNL1       -0.2884
     66 C          -7.3565   -0.0123   -1.1839 C.2     1  UNL1        0.2365
     67 O          -7.7223   -1.1729   -1.6347 O.2     1  UNL1       -0.2735
     68 C          -8.2393    0.6823   -0.2449 C.3     1  UNL1        0.0996
     69 C          -7.7064    0.8443    1.1199 C.3     1  UNL1       -0.0259
     70 C          -7.4332   -0.3166    1.9658 C.3     1  UNL1       -0.0498
     71 C          -6.4150   -1.3196    1.6125 C.3     1  UNL1       -0.0406
     72 C          -6.3598   -2.4574    2.6479 C.3     1  UNL1       -0.0069
     73 N          -5.3462   -3.4202    2.2759 N.3     1  UNL1       -0.3300
     74 N          -9.5054   -0.0907   -0.1574 N.am    1  UNL1       -0.3025
     75 C         -10.7538    0.3997   -0.5959 C.2     1  UNL1        0.2342
     76 O         -10.8511    1.5363   -1.1009 O.2     1  UNL1       -0.2738
     77 C         -11.9393   -0.4638   -0.4414 C.3     1  UNL1        0.1023
     78 C         -11.7935   -1.8354   -0.9851 C.3     1  UNL1       -0.0243
     79 C         -12.6931   -1.8469   -2.1741 C.3     1  UNL1       -0.0350
     80 C         -13.7478   -0.8360   -1.8474 C.3     1  UNL1        0.0156
     81 N         -13.1713    0.1040   -0.9259 N.am    1  UNL1       -0.2886
     82 C         -13.6617    1.3613   -0.5218 C.2     1  UNL1        0.2330
     83 O         -12.9852    2.0573    0.3301 O.2     1  UNL1       -0.2739
     84 C         -14.9255    1.9899   -0.9959 C.3     1  UNL1        0.0826
     85 N         -15.6709    1.1230   -1.8266 N.3     1  UNL1       -0.3199
     86 C         -15.7455    2.3880    0.2091 C.3     1  UNL1       -0.0264
     87 C         -17.0317    3.0545   -0.0571 C.3     1  UNL1       -0.0204
     88 C         -18.0767    2.3207   -0.8100 C.3     1  UNL1        0.0647
     89 N         -18.5302    1.1232   -0.1665 N.pl3   1  UNL1       -0.2761
     90 C         -19.2783    1.1360    1.0507 C.cat   1  UNL1        0.3762
     91 N         -20.1073    2.1190    1.2756 N.pl3   1  UNL1       -0.1298
     92 N         -19.1400    0.1100    2.0131 N.pl3   1  UNL1       -0.2893
     93 C          15.0991   -2.4200    0.2007 C.2     1  UNL1        0.2308
     94 N          15.6272   -3.7394    0.3186 N.am    1  UNL1       -0.3278
     95 O          15.1451   -1.6632    1.1688 O.2     1  UNL1       -0.2740
     96 H          18.1055    1.1713   -0.7690 H       1  UNL1        0.0340
     97 H          16.8236    0.0767   -0.1825 H       1  UNL1        0.0340
     98 H          16.3518    1.7066   -0.8850 H       1  UNL1        0.0340
     99 H          17.0272   -2.0714   -3.4932 H       1  UNL1        0.0377
    100 H          17.5022   -2.1375   -1.8097 H       1  UNL1        0.0377
    101 H          14.7474   -2.0157   -3.1675 H       1  UNL1        0.0296
    102 H          15.4719   -3.3818   -2.2624 H       1  UNL1        0.0296
    103 H          13.6103   -2.6870   -1.2179 H       1  UNL1        0.0595
    104 H          14.5496    0.1811   -0.8375 H       1  UNL1        0.1495
    105 H          12.1051    1.3292   -2.1715 H       1  UNL1        0.0594
    106 H          13.2456    2.3845   -0.3387 H       1  UNL1        0.0290
    107 H          11.5658    2.8728   -0.2881 H       1  UNL1        0.0290
    108 H          10.9930    1.4715    1.5612 H       1  UNL1        0.0296
    109 H          11.9347    2.9831    2.9917 H       1  UNL1        0.0232
    110 H          13.5734    2.8058    2.3201 H       1  UNL1        0.0232
    111 H          12.2833    3.7855    1.4452 H       1  UNL1        0.0232
    112 H          13.9981    0.7490    1.5506 H       1  UNL1        0.0232
    113 H          12.8713    0.5101    2.9385 H       1  UNL1        0.0232
    114 H          12.7013   -0.4764    1.4672 H       1  UNL1        0.0232
    115 H           9.7987    0.8719   -0.4603 H       1  UNL1        0.1495
    116 H           8.2214    0.5168   -3.8688 H       1  UNL1        0.0558
    117 H           8.4454   -1.0953   -3.1399 H       1  UNL1        0.0558
    118 H           6.8145   -0.5840   -1.6318 H       1  UNL1        0.1492
    119 H           4.9821    2.0089   -1.3349 H       1  UNL1        0.0598
    120 H           4.8953    2.7202    0.9880 H       1  UNL1        0.0336
    121 H           5.8676    3.7412   -0.1352 H       1  UNL1        0.0336
    122 H           8.1393    4.0926    0.3359 H       1  UNL1        0.0620
    123 H           9.9492    4.1651    2.0046 H       1  UNL1        0.0618
    124 H           9.7683    2.7889    4.0769 H       1  UNL1        0.0618
    125 H           7.7974    1.3995    4.4306 H       1  UNL1        0.0618
    126 H           5.9390    1.3349    2.7348 H       1  UNL1        0.0620
    127 H           5.9769   -0.1948    0.3907 H       1  UNL1        0.1498
    128 H           3.2329   -2.8270    1.3890 H       1  UNL1        0.0644
    129 H           5.8480   -3.4759   -0.2191 H       1  UNL1        0.0623
    130 H           8.0756   -3.9017    0.6459 H       1  UNL1        0.0618
    131 H           8.8022   -2.8887    2.8016 H       1  UNL1        0.0618
    132 H           7.2767   -1.4780    4.0315 H       1  UNL1        0.0618
    133 H           4.9789   -1.0207    3.1756 H       1  UNL1        0.0623
    134 H           1.3593   -0.2705   -0.1864 H       1  UNL1        0.1550
    135 H          -0.6957   -2.9706    0.8542 H       1  UNL1        0.0595
    136 H          -0.2297   -4.4441   -1.0697 H       1  UNL1        0.0292
    137 H          -1.6993   -3.4540   -1.4164 H       1  UNL1        0.0292
    138 H          -0.3389   -1.8942   -2.8189 H       1  UNL1        0.0359
    139 H           1.1308   -2.8874   -2.4244 H       1  UNL1        0.0359
    140 H          -0.1202   -4.0751   -5.7993 H       1  UNL1        0.1449
    141 H           0.7860   -2.6776   -5.1388 H       1  UNL1        0.1449
    142 H          -1.3882   -0.9411   -1.2394 H       1  UNL1        0.1495
    143 H          -1.8934    1.4003    0.3917 H       1  UNL1        0.0595
    144 H          -3.2796    0.1850    2.7999 H       1  UNL1        0.0292
    145 H          -3.5912    1.8480    2.1297 H       1  UNL1        0.0292
    146 H          -0.8477    0.8040    3.1196 H       1  UNL1        0.0359
    147 H          -1.1770    2.3987    2.4267 H       1  UNL1        0.0359
    148 H          -1.1450    2.4351    6.2418 H       1  UNL1        0.1449
    149 H          -0.1777    3.1031    4.8843 H       1  UNL1        0.1449
    150 H          -4.0819   -0.5324   -0.1440 H       1  UNL1        0.1495
    151 H          -6.0973    2.4319   -0.9592 H       1  UNL1        0.0597
    152 H          -5.9446    2.7673   -3.1691 H       1  UNL1        0.0288
    153 H          -4.2085    2.7938   -2.8019 H       1  UNL1        0.0288
    154 H          -5.7308    0.9570   -4.4888 H       1  UNL1        0.0281
    155 H          -3.9701    0.7954   -4.0123 H       1  UNL1        0.0281
    156 H          -6.0150   -0.9363   -3.2817 H       1  UNL1        0.0465
    157 H          -4.4334   -0.7336   -2.3722 H       1  UNL1        0.0465
    158 H          -8.4950    1.6761   -0.6706 H       1  UNL1        0.0594
    159 H          -8.4190    1.5136    1.7217 H       1  UNL1        0.0288
    160 H          -6.7662    1.4941    1.1316 H       1  UNL1        0.0288
    161 H          -7.0941    0.1146    2.9795 H       1  UNL1        0.0266
    162 H          -8.4125   -0.8084    2.2914 H       1  UNL1        0.0266
    163 H          -6.4873   -1.7531    0.6223 H       1  UNL1        0.0277
    164 H          -5.3583   -0.8919    1.6983 H       1  UNL1        0.0277
    165 H          -6.0781   -2.0586    3.6470 H       1  UNL1        0.0422
    166 H          -7.3298   -2.9937    2.6480 H       1  UNL1        0.0422
    167 H          -5.1614   -3.2991    1.2421 H       1  UNL1        0.1182
    168 H          -5.6968   -4.3930    2.3718 H       1  UNL1        0.1182
    169 H          -9.4548   -1.0413    0.2490 H       1  UNL1        0.1495
    170 H         -12.0826   -0.5622    0.6838 H       1  UNL1        0.0597
    171 H         -10.7287   -2.0422   -1.2434 H       1  UNL1        0.0288
    172 H         -12.1493   -2.6174   -0.2478 H       1  UNL1        0.0288
    173 H         -12.1341   -1.5934   -3.0900 H       1  UNL1        0.0281
    174 H         -13.1283   -2.8854   -2.2834 H       1  UNL1        0.0281
    175 H         -14.1697   -0.3816   -2.7698 H       1  UNL1        0.0465
    176 H         -14.5384   -1.4078   -1.2747 H       1  UNL1        0.0465
    177 H         -14.6165    2.8995   -1.5800 H       1  UNL1        0.0554
    178 H         -15.8136    1.3253   -2.7964 H       1  UNL1        0.1189
    179 H         -16.1519    0.3272   -1.4669 H       1  UNL1        0.1189
    180 H         -15.9352    1.4827    0.8408 H       1  UNL1        0.0286
    181 H         -15.1527    3.0612    0.8877 H       1  UNL1        0.0286
    182 H         -17.4819    3.3051    0.9572 H       1  UNL1        0.0296
    183 H         -16.9079    4.0612   -0.5556 H       1  UNL1        0.0296
    184 H         -17.8107    2.1489   -1.8708 H       1  UNL1        0.0655
    185 H         -18.9739    3.0190   -0.8606 H       1  UNL1        0.0655
    186 H         -18.3241    0.1988   -0.5860 H       1  UNL1        0.2579
    187 H         -20.2887    2.9063    0.6598 H       1  UNL1        0.3062
    188 H         -18.4642    0.2777    2.7878 H       1  UNL1        0.2546
    189 H         -19.6596   -0.7804    2.0015 H       1  UNL1        0.2546
    190 H          15.5151   -4.3786   -0.4948 H       1  UNL1        0.1450
    191 H          16.1030   -4.0332    1.1952 H       1  UNL1        0.1450
@<TRIPOS>BOND
     1     1     2    1
     2     2     3    1
     3     3     4    1
     4     4     5    1
     5     5     6    1
     6     6     7   am
     7     7     8    2
     8     7     9    1
     9     9    10    1
    10    10    11    1
    11    11    12    1
    12    11    13    1
    13     9    14    1
    14    14    15   am
    15    15    16    2
    16    15    17    1
    17    17    18    1
    18    18    19   am
    19    19    20    2
    20    19    21    1
    21    21    22    1
    22    22    23    1
    23    23    24   ar
    24    24    25   ar
    25    25    26   ar
    26    26    27   ar
    27    27    28   ar
    28    21    29    1
    29    29    30   am
    30    30    31    2
    31    30    32    1
    32    32    33    2
    33    33    34    1
    34    34    35   ar
    35    35    36   ar
    36    36    37   ar
    37    37    38   ar
    38    38    39   ar
    39    32    40    1
    40    40    41   am
    41    41    42    2
    42    41    43    1
    43    43    44    1
    44    44    45    1
    45    45    46    1
    46    46    47   am
    47    46    48    2
    48    43    49    1
    49    49    50   am
    50    50    51    2
    51    50    52    1
    52    52    53    1
    53    53    54    1
    54    54    55    1
    55    55    56   am
    56    55    57    2
    57    52    58    1
    58    58    59   am
    59    59    60    2
    60    59    61    1
    61    61    62    1
    62    62    63    1
    63    63    64    1
    64    64    65    1
    65    65    66   am
    66    66    67    2
    67    66    68    1
    68    68    69    1
    69    69    70    1
    70    70    71    1
    71    71    72    1
    72    72    73    1
    73    68    74    1
    74    74    75   am
    75    75    76    2
    76    75    77    1
    77    77    78    1
    78    78    79    1
    79    79    80    1
    80    80    81    1
    81    81    82   am
    82    82    83    2
    83    82    84    1
    84    84    85    1
    85    84    86    1
    86    86    87    1
    87    87    88    1
    88    88    89    1
    89    89    90    1
    90    90    91    2
    91    90    92    1
    92     5    93    1
    93    93    94   am
    94    93    95    2
    95    28    23   ar
    96    39    34   ar
    97    65    61    1
    98    81    77    1
    99     1    96    1
   100     1    97    1
   101     1    98    1
   102     3    99    1
   103     3   100    1
   104     4   101    1
   105     4   102    1
   106     5   103    1
   107     6   104    1
   108     9   105    1
   109    10   106    1
   110    10   107    1
   111    11   108    1
   112    12   109    1
   113    12   110    1
   114    12   111    1
   115    13   112    1
   116    13   113    1
   117    13   114    1
   118    14   115    1
   119    17   116    1
   120    17   117    1
   121    18   118    1
   122    21   119    1
   123    22   120    1
   124    22   121    1
   125    24   122    1
   126    25   123    1
   127    26   124    1
   128    27   125    1
   129    28   126    1
   130    29   127    1
   131    33   128    1
   132    35   129    1
   133    36   130    1
   134    37   131    1
   135    38   132    1
   136    39   133    1
   137    40   134    1
   138    43   135    1
   139    44   136    1
   140    44   137    1
   141    45   138    1
   142    45   139    1
   143    47   140    1
   144    47   141    1
   145    49   142    1
   146    52   143    1
   147    53   144    1
   148    53   145    1
   149    54   146    1
   150    54   147    1
   151    56   148    1
   152    56   149    1
   153    58   150    1
   154    61   151    1
   155    62   152    1
   156    62   153    1
   157    63   154    1
   158    63   155    1
   159    64   156    1
   160    64   157    1
   161    68   158    1
   162    69   159    1
   163    69   160    1
   164    70   161    1
   165    70   162    1
   166    71   163    1
   167    71   164    1
   168    72   165    1
   169    72   166    1
   170    73   167    1
   171    73   168    1
   172    74   169    1
   173    77   170    1
   174    78   171    1
   175    78   172    1
   176    79   173    1
   177    79   174    1
   178    80   175    1
   179    80   176    1
   180    84   177    1
   181    85   178    1
   182    85   179    1
   183    86   180    1
   184    86   181    1
   185    87   182    1
   186    87   183    1
   187    88   184    1
   188    88   185    1
   189    89   186    1
   190    91   187    1
   191    92   188    1
   192    92   189    1
   193    94   190    1
   194    94   191    1
