
     RDKit          3D

 52 54  0  0  0  0  0  0  0  0999 V2000
   -4.6084    4.4736   -1.4530 C   0  0  0  0  0  0  0  0  0  0  0  0
   -3.5244    3.4713   -1.2707 C   0  0  0  0  0  0  0  0  0  0  0  0
   -2.2523    3.9118   -1.3540 N   0  0  0  0  0  0  0  0  0  0  0  0
   -1.2311    3.0525   -1.1977 C   0  0  0  0  0  0  0  0  0  0  0  0
    0.0920    3.5036   -1.2807 C   0  0  0  0  0  0  0  0  0  0  0  0
    1.0699    2.5556   -1.1055 C   0  0  0  0  0  0  0  0  0  0  0  0
    0.8140    1.2209   -0.8590 C   0  0  0  0  0  0  0  0  0  0  0  0
    1.8475    0.2683   -0.6829 N   0  0  0  0  0  0  0  0  0  0  0  0
    3.2123    0.6779   -0.7584 C   0  0  0  0  0  0  0  0  0  0  0  0
    4.1843   -0.3996   -0.5590 C   0  0  0  0  0  0  0  0  0  0  0  0
    4.7025   -1.1779   -1.5764 C   0  0  0  0  0  0  0  0  0  0  0  0
    5.6183   -2.1853   -1.3392 C   0  0  0  0  0  0  0  0  0  0  0  0
    6.0279   -2.4203   -0.0411 C   0  0  0  0  0  0  0  0  0  0  0  0
    5.5361   -1.6678    1.0007 C   0  0  0  0  0  0  0  0  0  0  0  0
    5.9884   -1.9307    2.4137 C   0  0  0  0  0  0  0  0  0  0  0  0
    6.4098   -0.6949    2.9245 F   0  0  0  0  0  0  0  0  0  0  0  0
    7.0534   -2.7766    2.4300 F   0  0  0  0  0  0  0  0  0  0  0  0
    4.9584   -2.3471    3.2053 F   0  0  0  0  0  0  0  0  0  0  0  0
    4.6277   -0.6774    0.7171 C   0  0  0  0  0  0  0  0  0  0  0  0
   -0.4933    0.8115   -0.7838 C   0  0  0  0  0  0  0  0  0  0  0  0
   -1.5134    1.7118   -0.9505 C   0  0  0  0  0  0  0  0  0  0  0  0
   -2.7863    1.2406   -0.8618 N   0  0  0  0  0  0  0  0  0  0  0  0
   -3.1031   -0.1056   -0.6203 C   0  0  0  0  0  0  0  0  0  0  0  0
   -3.2154   -0.4231    0.8807 C   0  0  0  0  0  0  0  0  0  0  0  0
   -3.5417   -1.8168    1.0603 N   0  0  0  0  0  0  0  0  0  0  0  0
   -3.7052   -2.3809    2.3445 C   0  0  0  0  0  0  0  0  0  0  0  0
   -3.5743   -1.6950    3.3937 O   0  0  0  0  0  0  0  0  0  0  0  0
   -4.0444   -3.8335    2.4971 C   0  0  0  0  0  0  0  0  0  0  0  0
   -4.1482   -4.4238    1.2496 O   0  0  0  0  0  0  0  0  0  0  0  0
   -3.7731    2.1378   -1.0249 C   0  0  0  0  0  0  0  0  0  0  0  0
   -4.9702    1.7723   -0.9555 O   0  0  0  0  0  0  0  0  0  0  0  0
   -4.6830    4.8259   -2.5022 H   0  0  0  0  0  0  0  0  0  0  0  0
   -4.4091    5.3847   -0.8383 H   0  0  0  0  0  0  0  0  0  0  0  0
   -5.5812    4.0107   -1.2093 H   0  0  0  0  0  0  0  0  0  0  0  0
    0.2686    4.5413   -1.4723 H   0  0  0  0  0  0  0  0  0  0  0  0
    2.1085    2.8548   -1.1606 H   0  0  0  0  0  0  0  0  0  0  0  0
    1.6073   -0.7160   -0.5011 H   0  0  0  0  0  0  0  0  0  0  0  0
    3.4011    1.2550   -1.6891 H   0  0  0  0  0  0  0  0  0  0  0  0
    3.3704    1.4313    0.0680 H   0  0  0  0  0  0  0  0  0  0  0  0
    4.3619   -0.9687   -2.5798 H   0  0  0  0  0  0  0  0  0  0  0  0
    6.0248   -2.7982   -2.1509 H   0  0  0  0  0  0  0  0  0  0  0  0
    6.7446   -3.1976    0.2053 H   0  0  0  0  0  0  0  0  0  0  0  0
    4.2456   -0.0899    1.5423 H   0  0  0  0  0  0  0  0  0  0  0  0
   -0.7661   -0.2266   -0.5887 H   0  0  0  0  0  0  0  0  0  0  0  0
   -4.1762   -0.2674   -0.9673 H   0  0  0  0  0  0  0  0  0  0  0  0
   -2.5658   -0.9153   -1.0694 H   0  0  0  0  0  0  0  0  0  0  0  0
   -2.2731   -0.1472    1.4022 H   0  0  0  0  0  0  0  0  0  0  0  0
   -4.0586    0.1585    1.3252 H   0  0  0  0  0  0  0  0  0  0  0  0
   -3.6600   -2.4233    0.2311 H   0  0  0  0  0  0  0  0  0  0  0  0
   -3.2852   -4.3123    3.1387 H   0  0  0  0  0  0  0  0  0  0  0  0
   -5.0551   -3.8884    2.9649 H   0  0  0  0  0  0  0  0  0  0  0  0
   -3.2770   -4.3644    0.8053 H   0  0  0  0  0  0  0  0  0  0  0  0
  1  2  1  0
  2  3  2  0
  3  4  1  0
  4  5  2  0
  5  6  1  0
  6  7  2  0
  7  8  1  0
  8  9  1  0
  9 10  1  0
 10 11  2  0
 11 12  1  0
 12 13  2  0
 13 14  1  0
 14 15  1  0
 15 16  1  0
 15 17  1  0
 15 18  1  0
 14 19  2  0
  7 20  1  0
 20 21  2  0
 21 22  1  0
 22 23  1  0
 23 24  1  0
 24 25  1  0
 25 26  1  0
 26 27  2  0
 26 28  1  0
 28 29  1  0
 22 30  1  0
 30 31  2  0
 30  2  1  0
 21  4  1  0
 19 10  1  0
  1 32  1  0
  1 33  1  0
  1 34  1  0
  5 35  1  0
  6 36  1  0
  8 37  1  0
  9 38  1  0
  9 39  1  0
 11 40  1  0
 12 41  1  0
 13 42  1  0
 19 43  1  0
 20 44  1  0
 23 45  1  0
 23 46  1  0
 24 47  1  0
 24 48  1  0
 25 49  1  0
 28 50  1  0
 28 51  1  0
 29 52  1  0
M  END
$$$$
