@<TRIPOS>MOLECULE
*****
 52 54 0 0 0
SMALL
GASTEIGER

@<TRIPOS>ATOM
      1 C          -4.6084    4.4736   -1.4530 C.3     1  UNL1       -0.0171
      2 C          -3.5244    3.4713   -1.2707 C.ar    1  UNL1        0.1032
      3 N          -2.2523    3.9118   -1.3540 N.ar    1  UNL1       -0.2450
      4 C          -1.2311    3.0525   -1.1977 C.ar    1  UNL1        0.0880
      5 C           0.0920    3.5036   -1.2807 C.ar    1  UNL1       -0.0325
      6 C           1.0699    2.5556   -1.1055 C.ar    1  UNL1       -0.0387
      7 C           0.8140    1.2209   -0.8590 C.ar    1  UNL1        0.0295
      8 N           1.8475    0.2683   -0.6829 N.pl3   1  UNL1       -0.3397
      9 C           3.2123    0.6779   -0.7584 C.3     1  UNL1        0.0344
     10 C           4.1843   -0.3996   -0.5590 C.ar    1  UNL1       -0.0299
     11 C           4.7025   -1.1779   -1.5764 C.ar    1  UNL1       -0.0571
     12 C           5.6183   -2.1853   -1.3392 C.ar    1  UNL1       -0.0609
     13 C           6.0279   -2.4203   -0.0411 C.ar    1  UNL1       -0.0501
     14 C           5.5361   -1.6678    1.0007 C.ar    1  UNL1        0.0551
     15 C           5.9884   -1.9307    2.4137 C.3     1  UNL1        0.4174
     16 F           6.4098   -0.6949    2.9245 F       1  UNL1       -0.1659
     17 F           7.0534   -2.7766    2.4300 F       1  UNL1       -0.1659
     18 F           4.9584   -2.3471    3.2053 F       1  UNL1       -0.1659
     19 C           4.6277   -0.6774    0.7171 C.ar    1  UNL1       -0.0454
     20 C          -0.4933    0.8115   -0.7838 C.ar    1  UNL1       -0.0151
     21 C          -1.5134    1.7118   -0.9505 C.ar    1  UNL1        0.0721
     22 N          -2.7863    1.2406   -0.8618 N.ar    1  UNL1       -0.3037
     23 C          -3.1031   -0.1056   -0.6203 C.3     1  UNL1        0.0423
     24 C          -3.2154   -0.4231    0.8807 C.3     1  UNL1        0.0297
     25 N          -3.5417   -1.8168    1.0603 N.am    1  UNL1       -0.3117
     26 C          -3.7052   -2.3809    2.3445 C.2     1  UNL1        0.2386
     27 O          -3.5743   -1.6950    3.3937 O.2     1  UNL1       -0.2733
     28 C          -4.0444   -3.8335    2.4971 C.3     1  UNL1        0.1202
     29 O          -4.1482   -4.4238    1.2496 O.3     1  UNL1       -0.3858
     30 C          -3.7731    2.1378   -1.0249 C.ar    1  UNL1        0.2729
     31 O          -4.9702    1.7723   -0.9555 O.2     1  UNL1       -0.2657
     32 H          -4.6830    4.8259   -2.5022 H       1  UNL1        0.0294
     33 H          -4.4091    5.3847   -0.8383 H       1  UNL1        0.0294
     34 H          -5.5812    4.0107   -1.2093 H       1  UNL1        0.0294
     35 H           0.2686    4.5413   -1.4723 H       1  UNL1        0.0640
     36 H           2.1085    2.8548   -1.1606 H       1  UNL1        0.0637
     37 H           1.6073   -0.7160   -0.5011 H       1  UNL1        0.1464
     38 H           3.4011    1.2550   -1.6891 H       1  UNL1        0.0511
     39 H           3.3704    1.4313    0.0680 H       1  UNL1        0.0511
     40 H           4.3619   -0.9687   -2.5798 H       1  UNL1        0.0621
     41 H           6.0248   -2.7982   -2.1509 H       1  UNL1        0.0618
     42 H           6.7446   -3.1976    0.2053 H       1  UNL1        0.0623
     43 H           4.2456   -0.0899    1.5423 H       1  UNL1        0.0626
     44 H          -0.7661   -0.2266   -0.5887 H       1  UNL1        0.0657
     45 H          -4.1762   -0.2674   -0.9673 H       1  UNL1        0.0508
     46 H          -2.5658   -0.9153   -1.0694 H       1  UNL1        0.0508
     47 H          -2.2731   -0.1472    1.4022 H       1  UNL1        0.0479
     48 H          -4.0586    0.1585    1.3252 H       1  UNL1        0.0479
     49 H          -3.6600   -2.4233    0.2311 H       1  UNL1        0.1488
     50 H          -3.2852   -4.3123    3.1387 H       1  UNL1        0.0654
     51 H          -5.0551   -3.8884    2.9649 H       1  UNL1        0.0654
     52 H          -3.2770   -4.3644    0.8053 H       1  UNL1        0.2100
@<TRIPOS>BOND
     1     1     2    1
     2     2     3   ar
     3     3     4   ar
     4     4     5   ar
     5     5     6   ar
     6     6     7   ar
     7     7     8    1
     8     8     9    1
     9     9    10    1
    10    10    11   ar
    11    11    12   ar
    12    12    13   ar
    13    13    14   ar
    14    14    15    1
    15    15    16    1
    16    15    17    1
    17    15    18    1
    18    14    19   ar
    19     7    20   ar
    20    20    21   ar
    21    21    22   ar
    22    22    23    1
    23    23    24    1
    24    24    25    1
    25    25    26   am
    26    26    27    2
    27    26    28    1
    28    28    29    1
    29    22    30   ar
    30    30    31    2
    31    30     2   ar
    32    21     4   ar
    33    19    10   ar
    34     1    32    1
    35     1    33    1
    36     1    34    1
    37     5    35    1
    38     6    36    1
    39     8    37    1
    40     9    38    1
    41     9    39    1
    42    11    40    1
    43    12    41    1
    44    13    42    1
    45    19    43    1
    46    20    44    1
    47    23    45    1
    48    23    46    1
    49    24    47    1
    50    24    48    1
    51    25    49    1
    52    28    50    1
    53    28    51    1
    54    29    52    1
