@<TRIPOS>MOLECULE
*****
 50 51 0 0 0
SMALL
GASTEIGER

@<TRIPOS>ATOM
      1 C          -0.8044   -0.5148   -1.0240 C.3     1  UNL1       -0.0102
      2 C           0.5737   -0.3296   -0.4028 C.3     1  UNL1        0.0744
      3 S           1.7605   -1.4548   -1.0796 S.O2    1  UNL1       -0.0028
      4 O           1.9888   -1.2825   -2.5411 O.2     1  UNL1       -0.1693
      5 O           1.3901   -2.8643   -0.7905 O.2     1  UNL1       -0.1693
      6 C           3.3023   -1.1513   -0.2937 C.ar    1  UNL1        0.0884
      7 C           3.6135   -1.8399    0.8582 C.ar    1  UNL1       -0.0334
      8 C           4.7927   -1.6962    1.5763 C.ar    1  UNL1       -0.0182
      9 C           5.7270   -0.7802    1.0829 C.ar    1  UNL1        0.1202
     10 O           6.9015   -0.6470    1.8113 O.3     1  UNL1       -0.4951
     11 C           7.9304    0.2562    1.4078 C.3     1  UNL1        0.0788
     12 C           5.4288   -0.0838   -0.0692 C.ar    1  UNL1       -0.0182
     13 C           4.2396   -0.2607   -0.7512 C.ar    1  UNL1       -0.0334
     14 C          -0.6793   -0.2693   -2.4946 C.3     1  UNL1       -0.0480
     15 C          -1.9531    0.0375   -3.2114 C.3     1  UNL1       -0.0527
     16 C          -3.0352    0.5971   -2.3405 C.3     1  UNL1       -0.0523
     17 C          -2.3379    1.3916   -1.2494 C.3     1  UNL1       -0.0416
     18 C          -1.7441    0.3931   -0.2991 C.3     1  UNL1        0.0399
     19 C          -2.8684   -0.3803    0.3287 C.2     1  UNL1        0.2165
     20 O          -2.7933   -1.6372    0.1183 O.2     1  UNL1       -0.2755
     21 N          -3.8728    0.2657    1.0616 N.am    1  UNL1       -0.3139
     22 C          -4.8661   -0.6307    1.5888 C.3     1  UNL1        0.0239
     23 C          -5.9217    0.1164    2.3678 C.3     1  UNL1        0.0087
     24 N          -5.4000    0.8403    3.4818 N.3     1  UNL1       -0.3285
     25 H          -1.1117   -1.5647   -0.8208 H       1  UNL1        0.0324
     26 H           0.9010    0.7066   -0.4947 H       1  UNL1        0.0507
     27 H           0.5218   -0.5518    0.6822 H       1  UNL1        0.0507
     28 H           2.8998   -2.5439    1.2407 H       1  UNL1        0.0638
     29 H           4.9603   -2.2725    2.4688 H       1  UNL1        0.0655
     30 H           8.8760   -0.1439    1.8763 H       1  UNL1        0.0660
     31 H           7.7843    1.2591    1.8552 H       1  UNL1        0.0660
     32 H           8.0419    0.3215    0.3101 H       1  UNL1        0.0660
     33 H           6.1653    0.6229   -0.4378 H       1  UNL1        0.0655
     34 H           4.0190    0.2936   -1.6553 H       1  UNL1        0.0638
     35 H          -0.3164   -1.2443   -2.9341 H       1  UNL1        0.0269
     36 H           0.1321    0.4491   -2.6587 H       1  UNL1        0.0269
     37 H          -1.7088    0.8350   -3.9590 H       1  UNL1        0.0265
     38 H          -2.3481   -0.8203   -3.8193 H       1  UNL1        0.0265
     39 H          -3.5766   -0.2575   -1.8837 H       1  UNL1        0.0265
     40 H          -3.7514    1.2167   -2.9090 H       1  UNL1        0.0265
     41 H          -3.0004    2.1196   -0.7690 H       1  UNL1        0.0273
     42 H          -1.5389    1.9794   -1.7483 H       1  UNL1        0.0273
     43 H          -1.2779    0.9669    0.5174 H       1  UNL1        0.0397
     44 H          -3.8222    1.2878    1.1604 H       1  UNL1        0.1487
     45 H          -4.3968   -1.3749    2.2942 H       1  UNL1        0.0474
     46 H          -5.3856   -1.2091    0.7938 H       1  UNL1        0.0474
     47 H          -6.6895   -0.5957    2.7232 H       1  UNL1        0.0437
     48 H          -6.4443    0.8308    1.6908 H       1  UNL1        0.0437
     49 H          -5.9232    1.6773    3.7481 H       1  UNL1        0.1183
     50 H          -4.3818    0.8506    3.5921 H       1  UNL1        0.1183
@<TRIPOS>BOND
     1     1     2    1
     2     2     3    1
     3     3     4    2
     4     3     5    2
     5     3     6    1
     6     6     7   ar
     7     7     8   ar
     8     8     9   ar
     9     9    10    1
    10    10    11    1
    11     9    12   ar
    12    12    13   ar
    13     1    14    1
    14    14    15    1
    15    15    16    1
    16    16    17    1
    17    17    18    1
    18    18    19    1
    19    19    20    2
    20    19    21   am
    21    21    22    1
    22    22    23    1
    23    23    24    1
    24    18     1    1
    25    13     6   ar
    26     1    25    1
    27     2    26    1
    28     2    27    1
    29     7    28    1
    30     8    29    1
    31    11    30    1
    32    11    31    1
    33    11    32    1
    34    12    33    1
    35    13    34    1
    36    14    35    1
    37    14    36    1
    38    15    37    1
    39    15    38    1
    40    16    39    1
    41    16    40    1
    42    17    41    1
    43    17    42    1
    44    18    43    1
    45    21    44    1
    46    22    45    1
    47    22    46    1
    48    23    47    1
    49    23    48    1
    50    24    49    1
    51    24    50    1
