@<TRIPOS>MOLECULE
*****
 52 55 0 0 0
SMALL
GASTEIGER

@<TRIPOS>ATOM
      1 C          -1.5285    0.1076    0.3586 C.3     1  UNL1        0.0996
      2 C          -1.6388    1.5301    0.8180 C.3     1  UNL1       -0.0379
      3 N          -0.6703   -0.0429   -0.7965 N.am    1  UNL1       -0.2888
      4 C          -1.0159    0.6612   -2.0261 C.3     1  UNL1        0.0174
      5 C          -0.0163    0.1498   -3.0408 C.3     1  UNL1       -0.0116
      6 C           1.1694   -0.1930   -2.1991 C.3     1  UNL1        0.1064
      7 N           2.0665   -1.1321   -2.8405 N.3     1  UNL1       -0.1775
      8 S           3.6238   -0.4031   -2.8969 S.O2    1  UNL1        0.0654
      9 O           4.5536   -1.3824   -3.5945 O.2     1  UNL1       -0.1525
     10 O           3.5844    0.8252   -3.7304 O.2     1  UNL1       -0.1525
     11 C           4.2499   -0.0682   -1.3540 C.ar    1  UNL1        0.1436
     12 C           4.6572    1.0327   -0.6676 C.ar    1  UNL1       -0.0203
     13 C           5.1303    0.9621    0.6152 C.ar    1  UNL1       -0.0088
     14 C           5.1616   -0.3321    1.1645 C.ar    1  UNL1        0.0226
     15 S           4.5014   -1.4027   -0.2051 S.2     1  UNL1       -0.0685
     16 C           5.6023   -0.6576    2.4535 C.ar    1  UNL1       -0.0290
     17 C           6.0377    0.3867    3.2343 C.ar    1  UNL1        0.0421
     18 CL          6.5840   -0.0313    4.8384 Cl      1  UNL1       -0.0835
     19 C           5.9973    1.6391    2.6758 C.ar    1  UNL1       -0.0428
     20 C           5.5754    1.9773    1.4322 C.ar    1  UNL1       -0.0521
     21 C           0.5319   -0.7790   -0.9859 C.2     1  UNL1        0.2349
     22 O           0.8796   -1.7197   -0.2106 O.2     1  UNL1       -0.2738
     23 C          -2.8390   -0.5283    0.0772 C.2     1  UNL1        0.2360
     24 O          -2.9918   -1.1282   -1.0282 O.2     1  UNL1       -0.2736
     25 N          -4.0653   -0.6720    0.7338 N.am    1  UNL1       -0.2956
     26 C          -5.0842   -1.4076    0.0321 C.3     1  UNL1        0.0382
     27 C          -6.2761   -0.4642   -0.1132 C.3     1  UNL1        0.0635
     28 O          -6.7513   -0.2479    1.1824 O.3     1  UNL1       -0.3767
     29 C          -5.8461    0.5060    1.9015 C.3     1  UNL1        0.0635
     30 C          -4.5072   -0.1971    2.0327 C.3     1  UNL1        0.0382
     31 H          -1.0724   -0.4851    1.1993 H       1  UNL1        0.0594
     32 H          -1.5826    1.5789    1.9034 H       1  UNL1        0.0252
     33 H          -0.7614    2.1116    0.4240 H       1  UNL1        0.0252
     34 H          -2.5414    2.0553    0.4091 H       1  UNL1        0.0252
     35 H          -2.0493    0.5306   -2.3415 H       1  UNL1        0.0465
     36 H          -0.8242    1.7621   -1.8630 H       1  UNL1        0.0465
     37 H          -0.4308   -0.8008   -3.4860 H       1  UNL1        0.0301
     38 H           0.2057    0.9055   -3.8211 H       1  UNL1        0.0301
     39 H           1.7307    0.7312   -1.9285 H       1  UNL1        0.0573
     40 H           2.0552   -2.0224   -2.3183 H       1  UNL1        0.1489
     41 H           4.5608    1.9373   -1.2488 H       1  UNL1        0.0649
     42 H           5.5511   -1.7083    2.6961 H       1  UNL1        0.0643
     43 H           6.3498    2.4481    3.3221 H       1  UNL1        0.0632
     44 H           5.5876    3.0004    1.0962 H       1  UNL1        0.0624
     45 H          -5.3966   -2.2574    0.6770 H       1  UNL1        0.0487
     46 H          -4.7796   -1.8017   -0.9451 H       1  UNL1        0.0487
     47 H          -7.0283   -0.9197   -0.7666 H       1  UNL1        0.0575
     48 H          -5.8752    0.4848   -0.5153 H       1  UNL1        0.0575
     49 H          -5.7389    1.5374    1.4752 H       1  UNL1        0.0575
     50 H          -6.2517    0.5737    2.9443 H       1  UNL1        0.0575
     51 H          -4.5844   -1.0011    2.7772 H       1  UNL1        0.0487
     52 H          -3.7996    0.5753    2.4491 H       1  UNL1        0.0487
@<TRIPOS>BOND
     1     1     2    1
     2     1     3    1
     3     3     4    1
     4     4     5    1
     5     5     6    1
     6     6     7    1
     7     7     8    1
     8     8     9    2
     9     8    10    2
    10     8    11    1
    11    11    12   ar
    12    12    13   ar
    13    13    14   ar
    14    14    15   ar
    15    14    16   ar
    16    16    17   ar
    17    17    18    1
    18    17    19   ar
    19    19    20   ar
    20     6    21    1
    21    21    22    2
    22     1    23    1
    23    23    24    2
    24    23    25   am
    25    25    26    1
    26    26    27    1
    27    27    28    1
    28    28    29    1
    29    29    30    1
    30    21     3   am
    31    30    25    1
    32    15    11   ar
    33    20    13   ar
    34     1    31    1
    35     2    32    1
    36     2    33    1
    37     2    34    1
    38     4    35    1
    39     4    36    1
    40     5    37    1
    41     5    38    1
    42     6    39    1
    43     7    40    1
    44    12    41    1
    45    16    42    1
    46    19    43    1
    47    20    44    1
    48    26    45    1
    49    26    46    1
    50    27    47    1
    51    27    48    1
    52    29    49    1
    53    29    50    1
    54    30    51    1
    55    30    52    1
