
     RDKit          3D

 52 55  0  0  0  0  0  0  0  0999 V2000
   -1.5285    0.1076    0.3586 C   0  0  2  0  0  0  0  0  0  0  0  0
   -1.6388    1.5301    0.8180 C   0  0  0  0  0  0  0  0  0  0  0  0
   -0.6703   -0.0429   -0.7965 N   0  0  0  0  0  0  0  0  0  0  0  0
   -1.0159    0.6612   -2.0261 C   0  0  0  0  0  0  0  0  0  0  0  0
   -0.0163    0.1498   -3.0408 C   0  0  0  0  0  0  0  0  0  0  0  0
    1.1694   -0.1930   -2.1991 C   0  0  2  0  0  0  0  0  0  0  0  0
    2.0665   -1.1321   -2.8405 N   0  0  0  0  0  0  0  0  0  0  0  0
    3.6238   -0.4031   -2.8969 S   0  0  0  0  0  0  0  0  0  0  0  0
    4.5536   -1.3824   -3.5945 O   0  0  0  0  0  0  0  0  0  0  0  0
    3.5844    0.8252   -3.7304 O   0  0  0  0  0  0  0  0  0  0  0  0
    4.2499   -0.0682   -1.3540 C   0  0  0  0  0  0  0  0  0  0  0  0
    4.6572    1.0327   -0.6676 C   0  0  0  0  0  0  0  0  0  0  0  0
    5.1303    0.9621    0.6152 C   0  0  0  0  0  0  0  0  0  0  0  0
    5.1616   -0.3321    1.1645 C   0  0  0  0  0  0  0  0  0  0  0  0
    4.5014   -1.4027   -0.2051 S   0  0  0  0  0  0  0  0  0  0  0  0
    5.6023   -0.6576    2.4535 C   0  0  0  0  0  0  0  0  0  0  0  0
    6.0377    0.3867    3.2343 C   0  0  0  0  0  0  0  0  0  0  0  0
    6.5840   -0.0313    4.8384 Cl  0  0  0  0  0  0  0  0  0  0  0  0
    5.9973    1.6391    2.6758 C   0  0  0  0  0  0  0  0  0  0  0  0
    5.5754    1.9773    1.4322 C   0  0  0  0  0  0  0  0  0  0  0  0
    0.5319   -0.7790   -0.9859 C   0  0  0  0  0  0  0  0  0  0  0  0
    0.8796   -1.7197   -0.2106 O   0  0  0  0  0  0  0  0  0  0  0  0
   -2.8390   -0.5283    0.0772 C   0  0  0  0  0  0  0  0  0  0  0  0
   -2.9918   -1.1282   -1.0282 O   0  0  0  0  0  0  0  0  0  0  0  0
   -4.0653   -0.6720    0.7338 N   0  0  0  0  0  0  0  0  0  0  0  0
   -5.0842   -1.4076    0.0321 C   0  0  0  0  0  0  0  0  0  0  0  0
   -6.2761   -0.4642   -0.1132 C   0  0  0  0  0  0  0  0  0  0  0  0
   -6.7513   -0.2479    1.1824 O   0  0  0  0  0  0  0  0  0  0  0  0
   -5.8461    0.5060    1.9015 C   0  0  0  0  0  0  0  0  0  0  0  0
   -4.5072   -0.1971    2.0327 C   0  0  0  0  0  0  0  0  0  0  0  0
   -1.0724   -0.4851    1.1993 H   0  0  0  0  0  0  0  0  0  0  0  0
   -1.5826    1.5789    1.9034 H   0  0  0  0  0  0  0  0  0  0  0  0
   -0.7614    2.1116    0.4240 H   0  0  0  0  0  0  0  0  0  0  0  0
   -2.5414    2.0553    0.4091 H   0  0  0  0  0  0  0  0  0  0  0  0
   -2.0493    0.5306   -2.3415 H   0  0  0  0  0  0  0  0  0  0  0  0
   -0.8242    1.7621   -1.8630 H   0  0  0  0  0  0  0  0  0  0  0  0
   -0.4308   -0.8008   -3.4860 H   0  0  0  0  0  0  0  0  0  0  0  0
    0.2057    0.9055   -3.8211 H   0  0  0  0  0  0  0  0  0  0  0  0
    1.7307    0.7312   -1.9285 H   0  0  0  0  0  0  0  0  0  0  0  0
    2.0552   -2.0224   -2.3183 H   0  0  0  0  0  0  0  0  0  0  0  0
    4.5608    1.9373   -1.2488 H   0  0  0  0  0  0  0  0  0  0  0  0
    5.5511   -1.7083    2.6961 H   0  0  0  0  0  0  0  0  0  0  0  0
    6.3498    2.4481    3.3221 H   0  0  0  0  0  0  0  0  0  0  0  0
    5.5876    3.0004    1.0962 H   0  0  0  0  0  0  0  0  0  0  0  0
   -5.3966   -2.2574    0.6770 H   0  0  0  0  0  0  0  0  0  0  0  0
   -4.7796   -1.8017   -0.9451 H   0  0  0  0  0  0  0  0  0  0  0  0
   -7.0283   -0.9197   -0.7666 H   0  0  0  0  0  0  0  0  0  0  0  0
   -5.8752    0.4848   -0.5153 H   0  0  0  0  0  0  0  0  0  0  0  0
   -5.7389    1.5374    1.4752 H   0  0  0  0  0  0  0  0  0  0  0  0
   -6.2517    0.5737    2.9443 H   0  0  0  0  0  0  0  0  0  0  0  0
   -4.5844   -1.0011    2.7772 H   0  0  0  0  0  0  0  0  0  0  0  0
   -3.7996    0.5753    2.4491 H   0  0  0  0  0  0  0  0  0  0  0  0
  1  2  1  0
  1  3  1  0
  3  4  1  0
  4  5  1  0
  5  6  1  0
  6  7  1  0
  7  8  1  0
  8  9  2  0
  8 10  2  0
  8 11  1  0
 11 12  2  0
 12 13  1  0
 13 14  2  0
 14 15  1  0
 14 16  1  0
 16 17  2  0
 17 18  1  0
 17 19  1  0
 19 20  2  0
  6 21  1  0
 21 22  2  0
  1 23  1  0
 23 24  2  0
 23 25  1  0
 25 26  1  0
 26 27  1  0
 27 28  1  0
 28 29  1  0
 29 30  1  0
 21  3  1  0
 30 25  1  0
 15 11  1  0
 20 13  1  0
  1 31  1  1
  2 32  1  0
  2 33  1  0
  2 34  1  0
  4 35  1  0
  4 36  1  0
  5 37  1  0
  5 38  1  0
  6 39  1  1
  7 40  1  0
 12 41  1  0
 16 42  1  0
 19 43  1  0
 20 44  1  0
 26 45  1  0
 26 46  1  0
 27 47  1  0
 27 48  1  0
 29 49  1  0
 29 50  1  0
 30 51  1  0
 30 52  1  0
M  END
$$$$
