@<TRIPOS>MOLECULE
*****
 53 57 0 0 0
SMALL
GASTEIGER

@<TRIPOS>ATOM
      1 C           6.8096   -3.0140    0.3340 C.3     1  UNL1       -0.0130
      2 S           5.0878   -3.0661   -0.0789 S.3     1  UNL1       -0.1210
      3 C           4.4776   -1.4228   -0.4660 C.ar    1  UNL1        0.0532
      4 C           4.9104   -0.0591   -0.5576 C.ar    1  UNL1        0.0034
      5 C           6.2072    0.2498   -0.2833 C.ar    1  UNL1       -0.0524
      6 C           6.6329    1.5530   -0.3676 C.ar    1  UNL1       -0.0611
      7 C           5.7293    2.5267   -0.7309 C.ar    1  UNL1       -0.0611
      8 C           4.4370    2.1267   -0.9905 C.ar    1  UNL1       -0.0528
      9 C           3.9562    0.8396   -0.9223 C.ar    1  UNL1        0.0024
     10 C           2.6637    0.3925   -1.1753 C.ar    1  UNL1        0.0828
     11 S           2.7742   -1.3728   -0.8921 S.2     1  UNL1       -0.0762
     12 C           1.5311    1.1804   -1.5682 C.2     1  UNL1        0.2539
     13 O           1.7123    1.8297   -2.6215 O.2     1  UNL1       -0.2694
     14 N           0.3118    1.2270   -0.8371 N.am    1  UNL1       -0.2970
     15 C           0.2051    0.4384    0.3676 C.3     1  UNL1        0.0159
     16 C          -1.2127    0.3403    0.8676 C.3     1  UNL1       -0.0242
     17 C          -2.1356    0.2681   -0.3301 C.3     1  UNL1        0.0361
     18 C          -1.6447   -0.8241   -1.2224 C.3     1  UNL1        0.0994
     19 O          -2.8370   -1.3943   -1.7226 O.3     1  UNL1       -0.4908
     20 C          -3.8623   -1.1598   -0.8307 C.ar    1  UNL1        0.1244
     21 C          -3.4893   -0.1569    0.0381 C.ar    1  UNL1        0.0041
     22 C          -4.3254    0.3024    1.0588 C.ar    1  UNL1       -0.0501
     23 C          -5.5707   -0.2415    1.2328 C.ar    1  UNL1       -0.0333
     24 C          -6.4154    0.2868    2.3334 C.3     1  UNL1        0.0186
     25 N          -6.2168   -0.4225    3.5768 N.3     1  UNL1       -0.3261
     26 C          -5.9930   -1.2554    0.3827 C.ar    1  UNL1       -0.0539
     27 C          -5.1282   -1.6820   -0.6199 C.ar    1  UNL1       -0.0194
     28 C          -2.1235    1.6375   -0.9603 C.3     1  UNL1       -0.0242
     29 C          -0.7422    2.0530   -1.3370 C.3     1  UNL1        0.0159
     30 H           7.5022   -2.6591   -0.4437 H       1  UNL1        0.0344
     31 H           6.9994   -2.4079    1.2547 H       1  UNL1        0.0344
     32 H           7.1277   -4.0944    0.5469 H       1  UNL1        0.0344
     33 H           6.9714   -0.4391    0.0049 H       1  UNL1        0.0624
     34 H           7.6496    1.8539   -0.1613 H       1  UNL1        0.0618
     35 H           6.0458    3.5589   -0.8036 H       1  UNL1        0.0618
     36 H           3.7703    2.9289   -1.2701 H       1  UNL1        0.0624
     37 H           0.8036    0.8702    1.2127 H       1  UNL1        0.0465
     38 H           0.5671   -0.5899    0.1777 H       1  UNL1        0.0465
     39 H          -1.3418   -0.5958    1.4678 H       1  UNL1        0.0290
     40 H          -1.4796    1.2332    1.4550 H       1  UNL1        0.0290
     41 H          -1.0993   -0.4472   -2.1139 H       1  UNL1        0.0705
     42 H          -1.0370   -1.5469   -0.6381 H       1  UNL1        0.0705
     43 H          -3.9818    1.0924    1.7122 H       1  UNL1        0.0625
     44 H          -6.2801    1.3949    2.4797 H       1  UNL1        0.0471
     45 H          -7.4862    0.1524    2.0739 H       1  UNL1        0.0471
     46 H          -5.9024   -1.3840    3.4113 H       1  UNL1        0.1185
     47 H          -5.5290    0.1392    4.1323 H       1  UNL1        0.1185
     48 H          -6.9641   -1.6489    0.5522 H       1  UNL1        0.0622
     49 H          -5.4841   -2.4847   -1.2799 H       1  UNL1        0.0654
     50 H          -2.4958    2.3354   -0.1594 H       1  UNL1        0.0290
     51 H          -2.8626    1.7115   -1.8062 H       1  UNL1        0.0290
     52 H          -0.6747    2.0599   -2.4612 H       1  UNL1        0.0465
     53 H          -0.5684    3.1115   -1.0212 H       1  UNL1        0.0465
@<TRIPOS>BOND
     1     1     2    1
     2     2     3    1
     3     3     4   ar
     4     4     5   ar
     5     5     6   ar
     6     6     7   ar
     7     7     8   ar
     8     8     9   ar
     9     9    10   ar
    10    10    11   ar
    11    10    12    1
    12    12    13    2
    13    12    14   am
    14    14    15    1
    15    15    16    1
    16    16    17    1
    17    17    18    1
    18    18    19    1
    19    19    20    1
    20    20    21   ar
    21    21    22   ar
    22    22    23   ar
    23    23    24    1
    24    24    25    1
    25    23    26   ar
    26    26    27   ar
    27    17    28    1
    28    28    29    1
    29    11     3   ar
    30    29    14    1
    31     9     4   ar
    32    21    17    1
    33    27    20   ar
    34     1    30    1
    35     1    31    1
    36     1    32    1
    37     5    33    1
    38     6    34    1
    39     7    35    1
    40     8    36    1
    41    15    37    1
    42    15    38    1
    43    16    39    1
    44    16    40    1
    45    18    41    1
    46    18    42    1
    47    22    43    1
    48    24    44    1
    49    24    45    1
    50    25    46    1
    51    25    47    1
    52    26    48    1
    53    27    49    1
    54    28    50    1
    55    28    51    1
    56    29    52    1
    57    29    53    1
