@<TRIPOS>MOLECULE
*****
 49 51 0 0 0
SMALL
GASTEIGER

@<TRIPOS>ATOM
      1 C          -0.5345   -2.6589    3.1595 C.3     1  UNL1        0.0789
      2 O          -1.3003   -1.8196    2.3133 O.3     1  UNL1       -0.4932
      3 C          -0.7931   -1.3939    1.0927 C.ar    1  UNL1        0.1414
      4 C           0.4588   -1.7480    0.6285 C.ar    1  UNL1       -0.0146
      5 C           0.9451   -1.3144   -0.5881 C.ar    1  UNL1       -0.0391
      6 C           2.2758   -1.7162   -1.0598 C.3     1  UNL1        0.0024
      7 C           3.4021   -0.9439   -0.5188 C.ar    1  UNL1        0.0146
      8 C           4.1790   -1.4896    0.4795 C.ar    1  UNL1        0.0379
      9 N           5.2167   -0.7724    0.9817 N.ar    1  UNL1       -0.2227
     10 C           5.5126    0.4648    0.5311 C.ar    1  UNL1        0.2142
     11 N           6.6236    1.1551    1.1136 N.pl3   1  UNL1       -0.3274
     12 N           4.7680    1.0096   -0.4383 N.ar    1  UNL1       -0.1999
     13 C           3.7286    0.3075   -0.9507 C.ar    1  UNL1        0.1247
     14 N           2.9839    0.9252   -1.9692 N.pl3   1  UNL1       -0.3428
     15 C           0.1338   -0.5044   -1.3411 C.ar    1  UNL1       -0.0528
     16 C          -1.1339   -0.1175   -0.9221 C.ar    1  UNL1       -0.0198
     17 C          -1.5659   -0.5807    0.3005 C.ar    1  UNL1        0.0733
     18 N          -2.8847   -0.1646    0.7124 N.pl3   1  UNL1       -0.3358
     19 C          -3.5313    1.0172    0.2023 C.3     1  UNL1        0.0272
     20 C          -4.7992    0.6738   -0.5648 C.3     1  UNL1       -0.0440
     21 C          -3.8903    1.9894    1.3062 C.3     1  UNL1       -0.0440
     22 C          -2.6272    1.7635   -0.7638 C.3     1  UNL1       -0.0256
     23 C          -2.0337    0.7447   -1.6904 C.3     1  UNL1       -0.0149
     24 C          -1.4141    1.3396   -2.9184 C.3     1  UNL1       -0.0583
     25 H          -0.5506   -3.7038    2.7896 H       1  UNL1        0.0660
     26 H           0.5234   -2.3298    3.2374 H       1  UNL1        0.0660
     27 H          -1.0126   -2.6735    4.1751 H       1  UNL1        0.0660
     28 H           1.0489   -2.3881    1.2680 H       1  UNL1        0.0657
     29 H           2.4076   -2.8177   -0.8535 H       1  UNL1        0.0363
     30 H           2.3589   -1.6690   -2.1816 H       1  UNL1        0.0363
     31 H           4.0328   -2.4670    0.9121 H       1  UNL1        0.0834
     32 H           6.9799    2.0471    0.7142 H       1  UNL1        0.1452
     33 H           7.1037    0.7758    1.9577 H       1  UNL1        0.1452
     34 H           3.2402    0.7762   -2.9577 H       1  UNL1        0.1437
     35 H           2.1821    1.5269   -1.7260 H       1  UNL1        0.1437
     36 H           0.4649   -0.1336   -2.3225 H       1  UNL1        0.0624
     37 H          -3.3846   -0.7469    1.4076 H       1  UNL1        0.1467
     38 H          -4.8291    1.1637   -1.5631 H       1  UNL1        0.0250
     39 H          -5.6795    0.9928   -0.0056 H       1  UNL1        0.0250
     40 H          -4.7716   -0.4185   -0.7636 H       1  UNL1        0.0250
     41 H          -2.9939    2.5001    1.6976 H       1  UNL1        0.0250
     42 H          -4.3992    1.4611    2.1164 H       1  UNL1        0.0250
     43 H          -4.5721    2.7426    0.8591 H       1  UNL1        0.0250
     44 H          -3.2483    2.5159   -1.3129 H       1  UNL1        0.0291
     45 H          -1.7801    2.2530   -0.2185 H       1  UNL1        0.0291
     46 H          -2.8868    0.0985   -2.0429 H       1  UNL1        0.0347
     47 H          -0.6033    2.0406   -2.7333 H       1  UNL1        0.0236
     48 H          -1.0979    0.4723   -3.5644 H       1  UNL1        0.0236
     49 H          -2.2525    1.8148   -3.5014 H       1  UNL1        0.0236
@<TRIPOS>BOND
     1     1     2    1
     2     2     3    1
     3     3     4   ar
     4     4     5   ar
     5     5     6    1
     6     6     7    1
     7     7     8   ar
     8     8     9   ar
     9     9    10   ar
    10    10    11    1
    11    10    12   ar
    12    12    13   ar
    13    13    14    1
    14     5    15   ar
    15    15    16   ar
    16    16    17   ar
    17    17    18    1
    18    18    19    1
    19    19    20    1
    20    19    21    1
    21    19    22    1
    22    22    23    1
    23    23    24    1
    24    17     3   ar
    25    13     7   ar
    26    23    16    1
    27     1    25    1
    28     1    26    1
    29     1    27    1
    30     4    28    1
    31     6    29    1
    32     6    30    1
    33     8    31    1
    34    11    32    1
    35    11    33    1
    36    14    34    1
    37    14    35    1
    38    15    36    1
    39    18    37    1
    40    20    38    1
    41    20    39    1
    42    20    40    1
    43    21    41    1
    44    21    42    1
    45    21    43    1
    46    22    44    1
    47    22    45    1
    48    23    46    1
    49    24    47    1
    50    24    48    1
    51    24    49    1
