
     RDKit          3D

 49 51  0  0  0  0  0  0  0  0999 V2000
   -0.5345   -2.6589    3.1595 C   0  0  0  0  0  0  0  0  0  0  0  0
   -1.3003   -1.8196    2.3133 O   0  0  0  0  0  0  0  0  0  0  0  0
   -0.7931   -1.3939    1.0927 C   0  0  0  0  0  0  0  0  0  0  0  0
    0.4588   -1.7480    0.6285 C   0  0  0  0  0  0  0  0  0  0  0  0
    0.9451   -1.3144   -0.5881 C   0  0  0  0  0  0  0  0  0  0  0  0
    2.2758   -1.7162   -1.0598 C   0  0  0  0  0  0  0  0  0  0  0  0
    3.4021   -0.9439   -0.5188 C   0  0  0  0  0  0  0  0  0  0  0  0
    4.1790   -1.4896    0.4795 C   0  0  0  0  0  0  0  0  0  0  0  0
    5.2167   -0.7724    0.9817 N   0  0  0  0  0  0  0  0  0  0  0  0
    5.5126    0.4648    0.5311 C   0  0  0  0  0  0  0  0  0  0  0  0
    6.6236    1.1551    1.1136 N   0  0  0  0  0  0  0  0  0  0  0  0
    4.7680    1.0096   -0.4383 N   0  0  0  0  0  0  0  0  0  0  0  0
    3.7286    0.3075   -0.9507 C   0  0  0  0  0  0  0  0  0  0  0  0
    2.9839    0.9252   -1.9692 N   0  0  0  0  0  0  0  0  0  0  0  0
    0.1338   -0.5044   -1.3411 C   0  0  0  0  0  0  0  0  0  0  0  0
   -1.1339   -0.1175   -0.9221 C   0  0  0  0  0  0  0  0  0  0  0  0
   -1.5659   -0.5807    0.3005 C   0  0  0  0  0  0  0  0  0  0  0  0
   -2.8847   -0.1646    0.7124 N   0  0  0  0  0  0  0  0  0  0  0  0
   -3.5313    1.0172    0.2023 C   0  0  0  0  0  0  0  0  0  0  0  0
   -4.7992    0.6738   -0.5648 C   0  0  0  0  0  0  0  0  0  0  0  0
   -3.8903    1.9894    1.3062 C   0  0  0  0  0  0  0  0  0  0  0  0
   -2.6272    1.7635   -0.7638 C   0  0  0  0  0  0  0  0  0  0  0  0
   -2.0337    0.7447   -1.6904 C   0  0  0  0  0  0  0  0  0  0  0  0
   -1.4141    1.3396   -2.9184 C   0  0  0  0  0  0  0  0  0  0  0  0
   -0.5506   -3.7038    2.7896 H   0  0  0  0  0  0  0  0  0  0  0  0
    0.5234   -2.3298    3.2374 H   0  0  0  0  0  0  0  0  0  0  0  0
   -1.0126   -2.6735    4.1751 H   0  0  0  0  0  0  0  0  0  0  0  0
    1.0489   -2.3881    1.2680 H   0  0  0  0  0  0  0  0  0  0  0  0
    2.4076   -2.8177   -0.8535 H   0  0  0  0  0  0  0  0  0  0  0  0
    2.3589   -1.6690   -2.1816 H   0  0  0  0  0  0  0  0  0  0  0  0
    4.0328   -2.4670    0.9121 H   0  0  0  0  0  0  0  0  0  0  0  0
    6.9799    2.0471    0.7142 H   0  0  0  0  0  0  0  0  0  0  0  0
    7.1037    0.7758    1.9577 H   0  0  0  0  0  0  0  0  0  0  0  0
    3.2402    0.7762   -2.9577 H   0  0  0  0  0  0  0  0  0  0  0  0
    2.1821    1.5269   -1.7260 H   0  0  0  0  0  0  0  0  0  0  0  0
    0.4649   -0.1336   -2.3225 H   0  0  0  0  0  0  0  0  0  0  0  0
   -3.3846   -0.7469    1.4076 H   0  0  0  0  0  0  0  0  0  0  0  0
   -4.8291    1.1637   -1.5631 H   0  0  0  0  0  0  0  0  0  0  0  0
   -5.6795    0.9928   -0.0056 H   0  0  0  0  0  0  0  0  0  0  0  0
   -4.7716   -0.4185   -0.7636 H   0  0  0  0  0  0  0  0  0  0  0  0
   -2.9939    2.5001    1.6976 H   0  0  0  0  0  0  0  0  0  0  0  0
   -4.3992    1.4611    2.1164 H   0  0  0  0  0  0  0  0  0  0  0  0
   -4.5721    2.7426    0.8591 H   0  0  0  0  0  0  0  0  0  0  0  0
   -3.2483    2.5159   -1.3129 H   0  0  0  0  0  0  0  0  0  0  0  0
   -1.7801    2.2530   -0.2185 H   0  0  0  0  0  0  0  0  0  0  0  0
   -2.8868    0.0985   -2.0429 H   0  0  0  0  0  0  0  0  0  0  0  0
   -0.6033    2.0406   -2.7333 H   0  0  0  0  0  0  0  0  0  0  0  0
   -1.0979    0.4723   -3.5644 H   0  0  0  0  0  0  0  0  0  0  0  0
   -2.2525    1.8148   -3.5014 H   0  0  0  0  0  0  0  0  0  0  0  0
  1  2  1  0
  2  3  1  0
  3  4  2  0
  4  5  1  0
  5  6  1  0
  6  7  1  0
  7  8  2  0
  8  9  1  0
  9 10  2  0
 10 11  1  0
 10 12  1  0
 12 13  2  0
 13 14  1  0
  5 15  2  0
 15 16  1  0
 16 17  2  0
 17 18  1  0
 18 19  1  0
 19 20  1  0
 19 21  1  0
 19 22  1  0
 22 23  1  0
 23 24  1  0
 17  3  1  0
 13  7  1  0
 23 16  1  0
  1 25  1  0
  1 26  1  0
  1 27  1  0
  4 28  1  0
  6 29  1  0
  6 30  1  0
  8 31  1  0
 11 32  1  0
 11 33  1  0
 14 34  1  0
 14 35  1  0
 15 36  1  0
 18 37  1  0
 20 38  1  0
 20 39  1  0
 20 40  1  0
 21 41  1  0
 21 42  1  0
 21 43  1  0
 22 44  1  0
 22 45  1  0
 23 46  1  0
 24 47  1  0
 24 48  1  0
 24 49  1  0
M  END
$$$$
