@<TRIPOS>MOLECULE
*****
 32 34 0 0 0
SMALL
GASTEIGER

@<TRIPOS>ATOM
      1 O          -2.2917   -2.9345    1.1281 O.2     1  UNL1       -0.2675
      2 C          -1.8371   -1.8461    0.6918 C.ar    1  UNL1        0.2559
      3 N          -0.5204   -1.6189    0.6190 N.ar    1  UNL1       -0.3067
      4 C          -0.0499   -0.4561    0.1527 C.ar    1  UNL1        0.1411
      5 C           1.4014   -0.2038    0.0734 C.ar    1  UNL1        0.0174
      6 C           2.3404   -1.1210    0.4650 C.ar    1  UNL1       -0.0506
      7 C           3.7102   -0.8491    0.3763 C.ar    1  UNL1       -0.0495
      8 C           4.1501    0.3608   -0.1123 C.ar    1  UNL1        0.0548
      9 C           5.6198    0.6177   -0.1932 C.3     1  UNL1        0.4174
     10 F           5.7950    1.8698   -0.7131 F       1  UNL1       -0.1659
     11 F           6.1540    0.4850    1.0675 F       1  UNL1       -0.1659
     12 F           6.1752   -0.3690   -0.9839 F       1  UNL1       -0.1659
     13 C           3.2217    1.2811   -0.5049 C.ar    1  UNL1       -0.0495
     14 C           1.8542    1.0027   -0.4135 C.ar    1  UNL1       -0.0506
     15 N          -0.9366    0.4532   -0.2309 N.ar    1  UNL1       -0.2335
     16 C          -2.2994    0.3032   -0.1903 C.ar    1  UNL1        0.0535
     17 C          -2.7844   -0.8806    0.2846 C.ar    1  UNL1        0.0480
     18 C          -4.2244   -1.2474    0.4184 C.3     1  UNL1        0.0257
     19 S          -5.1570   -0.2008   -0.7254 S.3     1  UNL1       -0.1555
     20 C          -4.5140    1.4873   -0.4234 C.3     1  UNL1       -0.0006
     21 C          -3.0749    1.4688   -0.6780 C.3     1  UNL1       -0.0008
     22 H           0.1028   -2.3914    0.9428 H       1  UNL1        0.1704
     23 H           2.0700   -2.0735    0.8510 H       1  UNL1        0.0625
     24 H           4.4443   -1.5767    0.6867 H       1  UNL1        0.0623
     25 H           3.5843    2.2331   -0.8891 H       1  UNL1        0.0623
     26 H           1.1413    1.7502   -0.7318 H       1  UNL1        0.0625
     27 H          -4.3453   -2.2911    0.0803 H       1  UNL1        0.0427
     28 H          -4.5485   -1.0926    1.4659 H       1  UNL1        0.0427
     29 H          -5.0154    2.2189   -1.0882 H       1  UNL1        0.0380
     30 H          -4.7145    1.7298    0.6615 H       1  UNL1        0.0380
     31 H          -2.5610    2.3873   -0.2942 H       1  UNL1        0.0336
     32 H          -2.8902    1.5036   -1.7926 H       1  UNL1        0.0336
@<TRIPOS>BOND
     1     1     2    2
     2     2     3   ar
     3     3     4   ar
     4     4     5    1
     5     5     6   ar
     6     6     7   ar
     7     7     8   ar
     8     8     9    1
     9     9    10    1
    10     9    11    1
    11     9    12    1
    12     8    13   ar
    13    13    14   ar
    14     4    15   ar
    15    15    16   ar
    16    16    17   ar
    17    17    18    1
    18    18    19    1
    19    19    20    1
    20    20    21    1
    21    17     2   ar
    22    14     5   ar
    23    21    16    1
    24     3    22    1
    25     6    23    1
    26     7    24    1
    27    13    25    1
    28    14    26    1
    29    18    27    1
    30    18    28    1
    31    20    29    1
    32    20    30    1
    33    21    31    1
    34    21    32    1
