@<TRIPOS>MOLECULE
*****
 48 52 0 0 0
SMALL
GASTEIGER

@<TRIPOS>ATOM
      1 C           2.6888   -1.6494    1.0988 C.3     1  UNL1        0.1332
      2 O           3.6413   -1.4467    2.0736 O.3     1  UNL1       -0.3566
      3 C           2.7810   -0.3948    1.9298 C.3     1  UNL1        0.1332
      4 C           2.9952    0.6671    0.8816 C.3     1  UNL1        0.0137
      5 C           1.6336    1.1474    0.4617 C.3     1  UNL1        0.0303
      6 C           0.9758    0.3651   -0.6153 C.3     1  UNL1        0.1136
      7 C           1.6360   -0.9279   -0.9876 C.3     1  UNL1        0.0303
      8 C           2.9327   -1.2100   -0.3089 C.3     1  UNL1        0.0137
      9 N           3.7159   -0.0043   -0.1492 N.4     1  UNL1        0.2473
     10 C           5.0485   -0.3082    0.3163 C.3     1  UNL1       -0.0408
     11 C           3.8595    0.7390   -1.3736 C.3     1  UNL1       -0.0408
     12 O          -0.4303    0.1748   -0.3749 O.3     1  UNL1       -0.4584
     13 C          -1.3841    0.7426   -1.2062 C.2     1  UNL1        0.3498
     14 O          -1.1032    1.4384   -2.1949 O.2     1  UNL1       -0.2467
     15 C          -2.8452    0.6203   -1.0612 C.3     1  UNL1        0.2256
     16 O          -3.4525    1.3458   -2.1153 O.3     1  UNL1       -0.3690
     17 C          -3.3557    1.1308    0.2373 C.ar    1  UNL1        0.0370
     18 C          -4.2812    2.0095    0.6185 C.ar    1  UNL1       -0.0479
     19 C          -4.5137    2.2556    1.9280 C.ar    1  UNL1       -0.0544
     20 C          -3.7264    1.5335    2.8394 C.ar    1  UNL1       -0.0240
     21 S          -2.6557    0.5036    1.7320 S.2     1  UNL1       -0.0978
     22 C          -3.2842   -0.7604   -1.2306 C.ar    1  UNL1        0.0370
     23 C          -4.5973   -1.2599   -1.4230 C.ar    1  UNL1       -0.0479
     24 C          -4.7338   -2.6044   -1.5543 C.ar    1  UNL1       -0.0544
     25 C          -3.5572   -3.4225   -1.4906 C.ar    1  UNL1       -0.0240
     26 S          -2.2172   -2.1210   -1.2262 S.2     1  UNL1       -0.0978
     27 H           1.9324   -2.4148    1.3518 H       1  UNL1        0.0681
     28 H           1.9744   -0.2160    2.6717 H       1  UNL1        0.0681
     29 H           3.5975    1.5193    1.2788 H       1  UNL1        0.0880
     30 H           1.7314    2.2284    0.2016 H       1  UNL1        0.0357
     31 H           0.9673    1.1453    1.3602 H       1  UNL1        0.0357
     32 H           0.9823    1.0150   -1.5382 H       1  UNL1        0.0738
     33 H           0.9625   -1.8150   -0.8048 H       1  UNL1        0.0357
     34 H           1.8340   -0.9856   -2.0863 H       1  UNL1        0.0357
     35 H           3.5405   -1.9302   -0.8682 H       1  UNL1        0.0880
     36 H           5.3051    0.1872    1.2805 H       1  UNL1        0.0778
     37 H           5.2359   -1.4220    0.3433 H       1  UNL1        0.0778
     38 H           5.8506    0.0521   -0.3879 H       1  UNL1        0.0778
     39 H           3.6213    0.1135   -2.2630 H       1  UNL1        0.0778
     40 H           3.2727    1.6964   -1.3553 H       1  UNL1        0.0778
     41 H           4.9140    1.0878   -1.5389 H       1  UNL1        0.0778
     42 H          -2.8968    2.1639   -2.3104 H       1  UNL1        0.2117
     43 H          -4.8049    2.4839   -0.2072 H       1  UNL1        0.0627
     44 H          -5.2706    2.9770    2.2703 H       1  UNL1        0.0623
     45 H          -3.8461    1.6703    3.9678 H       1  UNL1        0.0693
     46 H          -5.4014   -0.5453   -1.4531 H       1  UNL1        0.0627
     47 H          -5.6972   -3.0698   -1.7047 H       1  UNL1        0.0623
     48 H          -3.5754   -4.5056   -1.5856 H       1  UNL1        0.0693
@<TRIPOS>UNITY_ATOM_ATTR
9 1
charge 1
@<TRIPOS>BOND
     1     1     2    1
     2     2     3    1
     3     3     4    1
     4     4     5    1
     5     5     6    1
     6     6     7    1
     7     7     8    1
     8     8     9    1
     9     9    10    1
    10     9    11    1
    11     6    12    1
    12    12    13    1
    13    13    14    2
    14    13    15    1
    15    15    16    1
    16    15    17    1
    17    17    18   ar
    18    18    19   ar
    19    19    20   ar
    20    20    21   ar
    21    15    22    1
    22    22    23   ar
    23    23    24   ar
    24    24    25   ar
    25    25    26   ar
    26     3     1    1
    27     9     4    1
    28    21    17   ar
    29    26    22   ar
    30     8     1    1
    31     1    27    1
    32     3    28    1
    33     4    29    1
    34     5    30    1
    35     5    31    1
    36     6    32    1
    37     7    33    1
    38     7    34    1
    39     8    35    1
    40    10    36    1
    41    10    37    1
    42    10    38    1
    43    11    39    1
    44    11    40    1
    45    11    41    1
    46    16    42    1
    47    18    43    1
    48    19    44    1
    49    20    45    1
    50    23    46    1
    51    24    47    1
    52    25    48    1
