@<TRIPOS>MOLECULE
*****
 220 227 0 0 0
SMALL
GASTEIGER

@<TRIPOS>ATOM
      1 C          -7.8006   -2.6624    0.7986 C.3     1  UNL1       -0.0626
      2 C          -6.4835   -2.4195    0.0398 C.3     1  UNL1       -0.0446
      3 C          -5.8177   -3.7643   -0.0328 C.3     1  UNL1       -0.0626
      4 C          -5.6960   -1.4214    0.8361 C.3     1  UNL1       -0.0236
      5 C          -4.3799   -1.0338    0.2684 C.3     1  UNL1        0.0996
      6 N          -4.4728   -0.4401   -1.0333 N.am    1  UNL1       -0.3025
      7 C          -3.9762    0.7496   -1.5194 C.2     1  UNL1        0.2343
      8 O          -3.2696    1.6762   -1.0027 O.2     1  UNL1       -0.2738
      9 C          -3.9634    1.5489   -2.7245 C.3     1  UNL1        0.1034
     10 C          -5.3152    2.3918   -2.7542 C.3     1  UNL1       -0.0007
     11 C          -6.4831    1.5064   -2.7262 C.ar    1  UNL1       -0.0450
     12 C          -6.9951    1.2672   -1.4604 C.ar    1  UNL1       -0.0567
     13 C          -8.1050    0.4674   -1.3065 C.ar    1  UNL1       -0.0402
     14 C          -8.7034   -0.0938   -2.4049 C.ar    1  UNL1        0.0348
     15 N          -9.8631   -0.9271   -2.1901 N.am    1  UNL1       -0.2696
     16 C         -11.0073   -0.0935   -2.2491 C.2     1  UNL1        0.3013
     17 N         -12.3775   -0.4788   -2.0937 N.am    1  UNL1       -0.3131
     18 O         -10.7835    1.1353   -2.4661 O.2     1  UNL1       -0.2527
     19 C          -8.2151    0.1244   -3.6927 C.ar    1  UNL1       -0.0402
     20 C          -7.0870    0.9406   -3.8292 C.ar    1  UNL1       -0.0567
     21 N          -2.9333    2.5648   -2.7315 N.am    1  UNL1       -0.3022
     22 C          -2.6689    3.9181   -3.0245 C.2     1  UNL1        0.2343
     23 O          -3.6949    4.5108   -3.4155 O.2     1  UNL1       -0.2738
     24 C          -1.2945    4.4082   -2.8256 C.3     1  UNL1        0.1034
     25 C          -0.9304    5.6991   -3.4311 C.3     1  UNL1       -0.0007
     26 C           0.5016    6.0640   -3.1038 C.ar    1  UNL1       -0.0450
     27 C           0.6404    6.7346   -1.8757 C.ar    1  UNL1       -0.0568
     28 C           1.8751    7.1305   -1.4191 C.ar    1  UNL1       -0.0402
     29 C           3.0279    6.9058   -2.1111 C.ar    1  UNL1        0.0335
     30 N           4.3296    7.2576   -1.7000 N.am    1  UNL1       -0.2840
     31 C           4.7276    7.8137   -0.4870 C.2     1  UNL1        0.2381
     32 O           3.9034    8.0664    0.4143 O.2     1  UNL1       -0.2734
     33 C           5.9859    8.2391    0.1138 C.3     1  UNL1        0.1093
     34 C           5.9914    9.6354    0.6820 C.3     1  UNL1        0.0513
     35 C           7.1701    9.7118    1.6196 C.2     1  UNL1        0.2226
     36 O           7.1193   10.0366    2.8564 O.2     1  UNL1       -0.2753
     37 N           8.4256    9.3821    1.0227 N.am    1  UNL1       -0.2401
     38 C           8.3572    8.5796   -0.1753 C.2     1  UNL1        0.3065
     39 O           9.4949    8.3179   -0.6624 O.2     1  UNL1       -0.2524
     40 N           7.1450    8.1205   -0.7645 N.am    1  UNL1       -0.2873
     41 C           2.8823    6.2513   -3.3106 C.ar    1  UNL1       -0.0402
     42 C           1.6628    5.8424   -3.7928 C.ar    1  UNL1       -0.0568
     43 N          -0.2781    3.3728   -2.8600 N.am    1  UNL1       -0.3021
     44 C          -0.4953    2.7146   -4.1342 C.2     1  UNL1        0.2362
     45 O          -1.4746    3.2290   -4.8030 O.2     1  UNL1       -0.2737
     46 CA          0.0319    1.6176   -4.9715 C.3     1  UNL1        0.1226
     47 C          -1.0806    0.5437   -5.0033 C.3     1  UNL1        0.0711
     48 O          -2.2131    1.1392   -5.5559 O.3     1  UNL1       -0.3927
     49 N           1.2120    0.9737   -4.4176 N.am    1  UNL1       -0.3006
     50 C           1.9933    0.3499   -5.4736 C.2     1  UNL1        0.2343
     51 O           1.6005    0.4176   -6.6668 O.2     1  UNL1       -0.2738
     52 CA          3.2540   -0.3521   -4.9735 C.3     1  UNL1        0.1034
     53 C           4.2980   -0.1195   -5.9840 C.3     1  UNL1        0.0008
     54 C           5.6123   -0.7333   -5.6677 C.ar    1  UNL1       -0.0270
     55 C           6.5998   -0.0523   -4.9476 C.ar    1  UNL1       -0.0556
     56 C           7.8222   -0.6769   -4.6654 C.ar    1  UNL1       -0.0433
     57 C           8.0476   -1.9666   -5.1020 C.ar    1  UNL1        0.0276
     58 N           7.0883   -2.6407   -5.8083 N.ar    1  UNL1       -0.2630
     59 C           5.9026   -2.0375   -6.0819 C.ar    1  UNL1        0.0308
     60 N           3.5558    0.0205   -3.6191 N.am    1  UNL1       -0.3022
     61 C           3.2255   -0.3199   -2.3224 C.2     1  UNL1        0.2343
     62 O           2.3620   -1.2518   -2.2272 O.2     1  UNL1       -0.2738
     63 CA          3.8759    0.3976   -1.1616 C.3     1  UNL1        0.1034
     64 C           3.8662    1.8487   -1.4008 C.3     1  UNL1       -0.0007
     65 C           4.4865    2.6348   -0.2871 C.ar    1  UNL1       -0.0451
     66 C           3.7376    3.1351    0.7578 C.ar    1  UNL1       -0.0571
     67 C           4.1919    3.8551    1.8416 C.ar    1  UNL1       -0.0431
     68 C           5.5750    4.0917    1.8576 C.ar    1  UNL1        0.0410
     69 CL          6.2125    4.9964    3.1995 Cl      1  UNL1       -0.0835
     70 C           6.3497    3.6049    0.8279 C.ar    1  UNL1       -0.0431
     71 C           5.8684    2.8855   -0.2468 C.ar    1  UNL1       -0.0571
     72 N           3.2190    0.0388    0.0624 N.am    1  UNL1       -0.3022
     73 C           3.5311   -1.0591    0.8868 C.2     1  UNL1        0.2343
     74 O           4.4501   -1.9068    0.6473 O.2     1  UNL1       -0.2738
     75 CA          3.0993   -1.6588    2.1197 C.3     1  UNL1        0.1033
     76 C           1.6797   -1.9466    2.3896 C.3     1  UNL1       -0.0006
     77 C           0.7504   -0.7943    2.4143 C.ar    1  UNL1       -0.0445
     78 C          -0.0653   -0.2522    1.4091 C.ar    1  UNL1       -0.0579
     79 C          -0.8343    0.8561    1.6944 C.ar    1  UNL1       -0.0538
     80 C          -0.8701    1.4942    2.9193 C.ar    1  UNL1       -0.0179
     81 C          -1.6565    2.5998    3.1500 C.ar    1  UNL1       -0.0540
     82 C          -1.7038    3.2496    4.3650 C.ar    1  UNL1       -0.0612
     83 C          -0.8965    2.7097    5.3542 C.ar    1  UNL1       -0.0612
     84 C          -0.1088    1.6035    5.1255 C.ar    1  UNL1       -0.0540
     85 C          -0.0843    0.9765    3.8983 C.ar    1  UNL1       -0.0176
     86 C           0.6863   -0.1165    3.6491 C.ar    1  UNL1       -0.0508
     87 N           3.8554   -2.9174    2.2847 N.am    1  UNL1       -0.3039
     88 C           4.7978   -3.2982    3.2516 C.2     1  UNL1        0.2105
     89 C           5.3894   -4.6584    3.1480 C.3     1  UNL1        0.0122
     90 O           5.1238   -2.4988    4.1779 O.2     1  UNL1       -0.2761
     91 C          -3.3261   -2.0617    0.3712 C.2     1  UNL1        0.2340
     92 O          -2.4765   -2.2843   -0.5623 O.2     1  UNL1       -0.2738
     93 N          -3.1223   -2.9200    1.4969 N.am    1  UNL1       -0.3025
     94 C          -2.1647   -3.9474    1.8086 C.3     1  UNL1        0.0996
     95 C          -1.9968   -3.9406    3.2952 C.3     1  UNL1       -0.0259
     96 C          -1.0579   -4.9826    3.8426 C.3     1  UNL1       -0.0498
     97 C          -0.9611   -5.0170    5.3218 C.3     1  UNL1       -0.0404
     98 C          -0.4410   -3.8590    6.0680 C.3     1  UNL1       -0.0039
     99 N           0.9175   -3.4888    5.8256 N.3     1  UNL1       -0.3138
    100 C           1.2510   -2.3779    6.7340 C.3     1  UNL1        0.0020
    101 C           2.7170   -2.0091    6.6508 C.3     1  UNL1       -0.0499
    102 C           1.0113   -2.8396    8.1774 C.3     1  UNL1       -0.0499
    103 C          -2.5267   -5.2715    1.2668 C.2     1  UNL1        0.2365
    104 O          -3.5209   -5.8164    0.7346 O.2     1  UNL1       -0.2735
    105 N          -2.0560   -6.5872    1.0274 N.am    1  UNL1       -0.2884
    106 C          -2.8091   -7.6759    0.4782 C.3     1  UNL1        0.0156
    107 C          -2.5556   -8.8057    1.4833 C.3     1  UNL1       -0.0350
    108 C          -1.0603   -8.6900    1.6137 C.3     1  UNL1       -0.0243
    109 C          -0.7796   -7.3059    1.1665 C.3     1  UNL1        0.1023
    110 C          -0.0815   -7.2704   -0.1612 C.2     1  UNL1        0.2342
    111 O           0.9590   -7.9612   -0.0964 O.2     1  UNL1       -0.2738
    112 N          -0.5189   -6.5706   -1.3104 N.am    1  UNL1       -0.3027
    113 C           0.1889   -6.5650   -2.5743 C.3     1  UNL1        0.0964
    114 C           0.4874   -5.1699   -3.0633 C.3     1  UNL1       -0.0381
    115 C          -0.6186   -7.2348   -3.6530 C.2     1  UNL1        0.2306
    116 N          -1.8993   -7.8709   -3.7677 N.am    1  UNL1       -0.3278
    117 O           0.0048   -7.2354   -4.7585 O.2     1  UNL1       -0.2740
    118 H          -7.4962   -3.0217    1.8090 H       1  UNL1        0.0232
    119 H          -8.3895   -3.4636    0.3412 H       1  UNL1        0.0232
    120 H          -8.3533   -1.7250    0.9845 H       1  UNL1        0.0232
    121 H          -6.7013   -1.9938   -0.9498 H       1  UNL1        0.0296
    122 H          -5.6223   -4.1038    1.0197 H       1  UNL1        0.0232
    123 H          -4.9042   -3.7880   -0.6680 H       1  UNL1        0.0232
    124 H          -6.5004   -4.5462   -0.4422 H       1  UNL1        0.0232
    125 H          -5.5559   -1.8071    1.8628 H       1  UNL1        0.0290
    126 H          -6.2902   -0.4733    0.9884 H       1  UNL1        0.0290
    127 H          -4.0205   -0.1629    0.9275 H       1  UNL1        0.0594
    128 H          -4.9472   -0.7834   -1.9244 H       1  UNL1        0.1495
    129 H          -4.0952    1.0003   -3.6460 H       1  UNL1        0.0598
    130 H          -5.2234    3.0497   -1.9018 H       1  UNL1        0.0336
    131 H          -5.2722    2.9892   -3.6845 H       1  UNL1        0.0336
    132 H          -6.5745    1.6771   -0.5456 H       1  UNL1        0.0621
    133 H          -8.5129    0.2764   -0.3244 H       1  UNL1        0.0636
    134 H         -10.0626   -1.9410   -2.0138 H       1  UNL1        0.1564
    135 H         -13.2818   -0.9440   -2.1843 H       1  UNL1        0.1465
    136 H         -12.8816    0.1098   -1.3643 H       1  UNL1        0.1465
    137 H          -8.6951   -0.3220   -4.5505 H       1  UNL1        0.0636
    138 H          -6.6634    1.1446   -4.8059 H       1  UNL1        0.0621
    139 H          -2.0782    2.0082   -2.3923 H       1  UNL1        0.1495
    140 H          -1.3135    4.6356   -1.6827 H       1  UNL1        0.0598
    141 H          -1.5546    6.5145   -3.0281 H       1  UNL1        0.0336
    142 H          -1.0760    5.7329   -4.5305 H       1  UNL1        0.0336
    143 H          -0.2352    6.9523   -1.2620 H       1  UNL1        0.0621
    144 H           1.8966    7.6357   -0.4832 H       1  UNL1        0.0636
    145 H           5.1573    7.1152   -2.3151 H       1  UNL1        0.1549
    146 H           6.2592    7.5778    0.9994 H       1  UNL1        0.0600
    147 H           6.0981   10.3992   -0.0903 H       1  UNL1        0.0381
    148 H           5.0450    9.7542    1.2695 H       1  UNL1        0.0381
    149 H           9.3063    9.7118    1.4437 H       1  UNL1        0.1591
    150 H           7.1862    7.7580   -1.7250 H       1  UNL1        0.1510
    151 H           3.7331    6.0262   -3.9386 H       1  UNL1        0.0636
    152 H           1.4978    5.3265   -4.7259 H       1  UNL1        0.0621
    153 H           0.5345    2.8316   -2.4667 H       1  UNL1        0.1495
    154 HA          0.1956    1.9316   -5.9966 H       1  UNL1        0.0618
    155 H1         -1.2326    0.2293   -3.9682 H       1  UNL1        0.0580
    156 H2         -0.7087   -0.2851   -5.6154 H       1  UNL1        0.0580
    157 H          -2.0166    1.5739   -6.4098 H       1  UNL1        0.2095
    158 H           1.3832    1.0115   -3.4056 H       1  UNL1        0.1496
    159 HA          2.9070   -1.4336   -5.0076 H       1  UNL1        0.0598
    160 H           4.3668    0.9887   -6.1507 H       1  UNL1        0.0336
    161 H           3.9114   -0.5124   -6.9599 H       1  UNL1        0.0336
    162 H           6.4518    0.9385   -4.6021 H       1  UNL1        0.0621
    163 H           8.5989   -0.1773   -4.1136 H       1  UNL1        0.0633
    164 H           9.0138   -2.4329   -4.8690 H       1  UNL1        0.0829
    165 H           5.1172   -2.5335   -6.6360 H       1  UNL1        0.0832
    166 H           4.2522    0.8086   -3.7213 H       1  UNL1        0.1495
    167 HA          4.9141   -0.0637   -1.1272 H       1  UNL1        0.0598
    168 H           2.8094    2.1825   -1.4817 H       1  UNL1        0.0336
    169 H           4.4068    2.1715   -2.2991 H       1  UNL1        0.0336
    170 H           2.6694    2.9234    0.6950 H       1  UNL1        0.0621
    171 H           3.4742    4.1714    2.5719 H       1  UNL1        0.0632
    172 H           7.4202    3.8322    0.9122 H       1  UNL1        0.0632
    173 H           6.5058    2.5197   -1.0326 H       1  UNL1        0.0621
    174 H           2.4394    0.5517    0.4896 H       1  UNL1        0.1495
    175 HA          3.4298   -0.9799    2.9945 H       1  UNL1        0.0598
    176 H           1.2663   -2.7697    1.7373 H       1  UNL1        0.0336
    177 H           1.6457   -2.4015    3.4068 H       1  UNL1        0.0336
    178 H           0.0123   -0.7867    0.5000 H       1  UNL1        0.0620
    179 H          -1.4421    1.2453    0.9064 H       1  UNL1        0.0624
    180 H          -2.2715    2.9819    2.3414 H       1  UNL1        0.0624
    181 H          -2.3407    4.1139    4.4839 H       1  UNL1        0.0618
    182 H          -0.9518    3.2437    6.3073 H       1  UNL1        0.0618
    183 H           0.5028    1.2251    5.9344 H       1  UNL1        0.0624
    184 H           1.2717   -0.4478    4.4923 H       1  UNL1        0.0626
    185 H           3.5371   -3.5404    1.4836 H       1  UNL1        0.1495
    186 H           5.5767   -5.0959    4.1507 H       1  UNL1        0.0322
    187 H           4.6694   -5.3751    2.6580 H       1  UNL1        0.0322
    188 H           6.2818   -4.6378    2.4911 H       1  UNL1        0.0322
    189 H          -3.8558   -2.7263    2.2481 H       1  UNL1        0.1495
    190 H          -1.2195   -3.6887    1.3131 H       1  UNL1        0.0594
    191 H          -2.9622   -3.9449    3.8415 H       1  UNL1        0.0288
    192 H          -1.5345   -2.9562    3.6092 H       1  UNL1        0.0288
    193 H          -0.0778   -4.8967    3.3284 H       1  UNL1        0.0266
    194 H          -1.5332   -5.9698    3.5583 H       1  UNL1        0.0266
    195 H          -1.9918   -5.2369    5.7130 H       1  UNL1        0.0277
    196 H          -0.3841   -5.9533    5.6029 H       1  UNL1        0.0277
    197 H          -1.1459   -3.0047    5.9988 H       1  UNL1        0.0424
    198 H          -0.4828   -4.1464    7.1634 H       1  UNL1        0.0424
    199 H           1.5267   -4.3062    6.0728 H       1  UNL1        0.1222
    200 H           0.6081   -1.5064    6.5550 H       1  UNL1        0.0455
    201 H           3.1292   -1.8016    7.6828 H       1  UNL1        0.0245
    202 H           3.3148   -2.8321    6.2187 H       1  UNL1        0.0245
    203 H           2.8562   -1.0721    6.1031 H       1  UNL1        0.0245
    204 H           1.7091   -2.2476    8.8074 H       1  UNL1        0.0245
    205 H          -0.0465   -2.6592    8.4621 H       1  UNL1        0.0245
    206 H           1.3150   -3.8960    8.2121 H       1  UNL1        0.0245
    207 H          -2.4647   -8.0311   -0.5147 H       1  UNL1        0.0465
    208 H          -3.8848   -7.5765    0.4155 H       1  UNL1        0.0465
    209 H          -3.0231   -8.5893    2.4452 H       1  UNL1        0.0281
    210 H          -2.8052   -9.7799    1.0662 H       1  UNL1        0.0281
    211 H          -0.5272   -9.4279    0.9762 H       1  UNL1        0.0288
    212 H          -0.7681   -8.9076    2.6588 H       1  UNL1        0.0288
    213 H          -0.0769   -6.7839    1.8524 H       1  UNL1        0.0597
    214 H          -1.3974   -6.0300   -1.2290 H       1  UNL1        0.1495
    215 H           1.1257   -7.1656   -2.5198 H       1  UNL1        0.0592
    216 H           0.6484   -4.4452   -2.2628 H       1  UNL1        0.0252
    217 H           1.3848   -5.2057   -3.7203 H       1  UNL1        0.0252
    218 H          -0.3599   -4.7939   -3.6872 H       1  UNL1        0.0252
    219 H          -1.6701   -8.7908   -3.3242 H       1  UNL1        0.1450
    220 H          -2.7580   -7.4262   -4.1976 H       1  UNL1        0.1450
@<TRIPOS>BOND
     1     1     2    1
     2     2     3    1
     3     2     4    1
     4     4     5    1
     5     5     6    1
     6     6     7   am
     7     7     8    2
     8     7     9    1
     9     9    10    1
    10    10    11    1
    11    11    12   ar
    12    12    13   ar
    13    13    14   ar
    14    14    15    1
    15    15    16   am
    16    16    17   am
    17    16    18    2
    18    14    19   ar
    19    19    20   ar
    20     9    21    1
    21    21    22   am
    22    22    23    2
    23    22    24    1
    24    24    25    1
    25    25    26    1
    26    26    27   ar
    27    27    28   ar
    28    28    29   ar
    29    29    30    1
    30    30    31   am
    31    31    32    2
    32    31    33    1
    33    33    34    1
    34    34    35    1
    35    35    36    2
    36    35    37   am
    37    37    38   am
    38    38    39    2
    39    38    40   am
    40    29    41   ar
    41    41    42   ar
    42    24    43    1
    43    43    44   am
    44    44    45    2
    45    44    46    1
    46    46    47    1
    47    47    48    1
    48    46    49    1
    49    49    50   am
    50    50    51    2
    51    50    52    1
    52    52    53    1
    53    53    54    1
    54    54    55   ar
    55    55    56   ar
    56    56    57   ar
    57    57    58   ar
    58    58    59   ar
    59    52    60    1
    60    60    61   am
    61    61    62    2
    62    61    63    1
    63    63    64    1
    64    64    65    1
    65    65    66   ar
    66    66    67   ar
    67    67    68   ar
    68    68    69    1
    69    68    70   ar
    70    70    71   ar
    71    63    72    1
    72    72    73   am
    73    73    74    2
    74    73    75    1
    75    75    76    1
    76    76    77    1
    77    77    78   ar
    78    78    79   ar
    79    79    80   ar
    80    80    81   ar
    81    81    82   ar
    82    82    83   ar
    83    83    84   ar
    84    84    85   ar
    85    85    86   ar
    86    75    87    1
    87    87    88   am
    88    88    89    1
    89    88    90    2
    90     5    91    1
    91    91    92    2
    92    91    93   am
    93    93    94    1
    94    94    95    1
    95    95    96    1
    96    96    97    1
    97    97    98    1
    98    98    99    1
    99    99   100    1
   100   100   101    1
   101   100   102    1
   102    94   103    1
   103   103   104    2
   104   103   105   am
   105   105   106    1
   106   106   107    1
   107   107   108    1
   108   108   109    1
   109   109   110    1
   110   110   111    2
   111   110   112   am
   112   112   113    1
   113   113   114    1
   114   113   115    1
   115   115   116   am
   116   115   117    2
   117    20    11   ar
   118    42    26   ar
   119    59    54   ar
   120    71    65   ar
   121    86    77   ar
   122   109   105    1
   123    40    33    1
   124    85    80   ar
   125     1   118    1
   126     1   119    1
   127     1   120    1
   128     2   121    1
   129     3   122    1
   130     3   123    1
   131     3   124    1
   132     4   125    1
   133     4   126    1
   134     5   127    1
   135     6   128    1
   136     9   129    1
   137    10   130    1
   138    10   131    1
   139    12   132    1
   140    13   133    1
   141    15   134    1
   142    17   135    1
   143    17   136    1
   144    19   137    1
   145    20   138    1
   146    21   139    1
   147    24   140    1
   148    25   141    1
   149    25   142    1
   150    27   143    1
   151    28   144    1
   152    30   145    1
   153    33   146    1
   154    34   147    1
   155    34   148    1
   156    37   149    1
   157    40   150    1
   158    41   151    1
   159    42   152    1
   160    43   153    1
   161    46   154    1
   162    47   155    1
   163    47   156    1
   164    48   157    1
   165    49   158    1
   166    52   159    1
   167    53   160    1
   168    53   161    1
   169    55   162    1
   170    56   163    1
   171    57   164    1
   172    59   165    1
   173    60   166    1
   174    63   167    1
   175    64   168    1
   176    64   169    1
   177    66   170    1
   178    67   171    1
   179    70   172    1
   180    71   173    1
   181    72   174    1
   182    75   175    1
   183    76   176    1
   184    76   177    1
   185    78   178    1
   186    79   179    1
   187    81   180    1
   188    82   181    1
   189    83   182    1
   190    84   183    1
   191    86   184    1
   192    87   185    1
   193    89   186    1
   194    89   187    1
   195    89   188    1
   196    93   189    1
   197    94   190    1
   198    95   191    1
   199    95   192    1
   200    96   193    1
   201    96   194    1
   202    97   195    1
   203    97   196    1
   204    98   197    1
   205    98   198    1
   206    99   199    1
   207   100   200    1
   208   101   201    1
   209   101   202    1
   210   101   203    1
   211   102   204    1
   212   102   205    1
   213   102   206    1
   214   106   207    1
   215   106   208    1
   216   107   209    1
   217   107   210    1
   218   108   211    1
   219   108   212    1
   220   109   213    1
   221   112   214    1
   222   113   215    1
   223   114   216    1
   224   114   217    1
   225   114   218    1
   226   116   219    1
   227   116   220    1
