
     RDKit          3D

220227  0  0  0  0  0  0  0  0999 V2000
   -7.8006   -2.6624    0.7986 C   0  0  0  0  0  0  0  0  0  0  0  0
   -6.4835   -2.4195    0.0398 C   0  0  0  0  0  0  0  0  0  0  0  0
   -5.8177   -3.7643   -0.0328 C   0  0  0  0  0  0  0  0  0  0  0  0
   -5.6960   -1.4214    0.8361 C   0  0  0  0  0  0  0  0  0  0  0  0
   -4.3799   -1.0338    0.2684 C   0  0  2  0  0  0  0  0  0  0  0  0
   -4.4728   -0.4401   -1.0333 N   0  0  0  0  0  0  0  0  0  0  0  0
   -3.9762    0.7496   -1.5194 C   0  0  0  0  0  0  0  0  0  0  0  0
   -3.2696    1.6762   -1.0027 O   0  0  0  0  0  0  0  0  0  0  0  0
   -3.9634    1.5489   -2.7245 C   0  0  1  0  0  0  0  0  0  0  0  0
   -5.3152    2.3918   -2.7542 C   0  0  0  0  0  0  0  0  0  0  0  0
   -6.4831    1.5064   -2.7262 C   0  0  0  0  0  0  0  0  0  0  0  0
   -6.9951    1.2672   -1.4604 C   0  0  0  0  0  0  0  0  0  0  0  0
   -8.1050    0.4674   -1.3065 C   0  0  0  0  0  0  0  0  0  0  0  0
   -8.7034   -0.0938   -2.4049 C   0  0  0  0  0  0  0  0  0  0  0  0
   -9.8631   -0.9271   -2.1901 N   0  0  0  0  0  0  0  0  0  0  0  0
  -11.0073   -0.0935   -2.2491 C   0  0  0  0  0  0  0  0  0  0  0  0
  -12.3775   -0.4788   -2.0937 N   0  0  0  0  0  0  0  0  0  0  0  0
  -10.7835    1.1353   -2.4661 O   0  0  0  0  0  0  0  0  0  0  0  0
   -8.2151    0.1244   -3.6927 C   0  0  0  0  0  0  0  0  0  0  0  0
   -7.0870    0.9406   -3.8292 C   0  0  0  0  0  0  0  0  0  0  0  0
   -2.9333    2.5648   -2.7315 N   0  0  0  0  0  0  0  0  0  0  0  0
   -2.6689    3.9181   -3.0245 C   0  0  0  0  0  0  0  0  0  0  0  0
   -3.6949    4.5108   -3.4155 O   0  0  0  0  0  0  0  0  0  0  0  0
   -1.2945    4.4082   -2.8256 C   0  0  2  0  0  0  0  0  0  0  0  0
   -0.9304    5.6991   -3.4311 C   0  0  0  0  0  0  0  0  0  0  0  0
    0.5016    6.0640   -3.1038 C   0  0  0  0  0  0  0  0  0  0  0  0
    0.6404    6.7346   -1.8757 C   0  0  0  0  0  0  0  0  0  0  0  0
    1.8751    7.1305   -1.4191 C   0  0  0  0  0  0  0  0  0  0  0  0
    3.0279    6.9058   -2.1111 C   0  0  0  0  0  0  0  0  0  0  0  0
    4.3296    7.2576   -1.7000 N   0  0  0  0  0  0  0  0  0  0  0  0
    4.7276    7.8137   -0.4870 C   0  0  0  0  0  0  0  0  0  0  0  0
    3.9034    8.0664    0.4143 O   0  0  0  0  0  0  0  0  0  0  0  0
    5.9859    8.2391    0.1138 C   0  0  2  0  0  0  0  0  0  0  0  0
    5.9914    9.6354    0.6820 C   0  0  0  0  0  0  0  0  0  0  0  0
    7.1701    9.7118    1.6196 C   0  0  0  0  0  0  0  0  0  0  0  0
    7.1193   10.0366    2.8564 O   0  0  0  0  0  0  0  0  0  0  0  0
    8.4256    9.3821    1.0227 N   0  0  0  0  0  0  0  0  0  0  0  0
    8.3572    8.5796   -0.1753 C   0  0  0  0  0  0  0  0  0  0  0  0
    9.4949    8.3179   -0.6624 O   0  0  0  0  0  0  0  0  0  0  0  0
    7.1450    8.1205   -0.7645 N   0  0  0  0  0  0  0  0  0  0  0  0
    2.8823    6.2513   -3.3106 C   0  0  0  0  0  0  0  0  0  0  0  0
    1.6628    5.8424   -3.7928 C   0  0  0  0  0  0  0  0  0  0  0  0
   -0.2781    3.3728   -2.8600 N   0  0  0  0  0  0  0  0  0  0  0  0
   -0.4953    2.7146   -4.1342 C   0  0  0  0  0  0  0  0  0  0  0  0
   -1.4746    3.2290   -4.8030 O   0  0  0  0  0  0  0  0  0  0  0  0
    0.0319    1.6176   -4.9715 C   0  0  2  0  0  0  0  0  0  0  0  0
   -1.0806    0.5437   -5.0033 C   0  0  0  0  0  0  0  0  0  0  0  0
   -2.2131    1.1392   -5.5559 O   0  0  0  0  0  0  0  0  0  0  0  0
    1.2120    0.9737   -4.4176 N   0  0  0  0  0  0  0  0  0  0  0  0
    1.9933    0.3499   -5.4736 C   0  0  0  0  0  0  0  0  0  0  0  0
    1.6005    0.4176   -6.6668 O   0  0  0  0  0  0  0  0  0  0  0  0
    3.2540   -0.3521   -4.9735 C   0  0  1  0  0  0  0  0  0  0  0  0
    4.2980   -0.1195   -5.9840 C   0  0  0  0  0  0  0  0  0  0  0  0
    5.6123   -0.7333   -5.6677 C   0  0  0  0  0  0  0  0  0  0  0  0
    6.5998   -0.0523   -4.9476 C   0  0  0  0  0  0  0  0  0  0  0  0
    7.8222   -0.6769   -4.6654 C   0  0  0  0  0  0  0  0  0  0  0  0
    8.0476   -1.9666   -5.1020 C   0  0  0  0  0  0  0  0  0  0  0  0
    7.0883   -2.6407   -5.8083 N   0  0  0  0  0  0  0  0  0  0  0  0
    5.9026   -2.0375   -6.0819 C   0  0  0  0  0  0  0  0  0  0  0  0
    3.5558    0.0205   -3.6191 N   0  0  0  0  0  0  0  0  0  0  0  0
    3.2255   -0.3199   -2.3224 C   0  0  0  0  0  0  0  0  0  0  0  0
    2.3620   -1.2518   -2.2272 O   0  0  0  0  0  0  0  0  0  0  0  0
    3.8759    0.3976   -1.1616 C   0  0  1  0  0  0  0  0  0  0  0  0
    3.8662    1.8487   -1.4008 C   0  0  0  0  0  0  0  0  0  0  0  0
    4.4865    2.6348   -0.2871 C   0  0  0  0  0  0  0  0  0  0  0  0
    3.7376    3.1351    0.7578 C   0  0  0  0  0  0  0  0  0  0  0  0
    4.1919    3.8551    1.8416 C   0  0  0  0  0  0  0  0  0  0  0  0
    5.5750    4.0917    1.8576 C   0  0  0  0  0  0  0  0  0  0  0  0
    6.2125    4.9964    3.1995 Cl  0  0  0  0  0  0  0  0  0  0  0  0
    6.3497    3.6049    0.8279 C   0  0  0  0  0  0  0  0  0  0  0  0
    5.8684    2.8855   -0.2468 C   0  0  0  0  0  0  0  0  0  0  0  0
    3.2190    0.0388    0.0624 N   0  0  0  0  0  0  0  0  0  0  0  0
    3.5311   -1.0591    0.8868 C   0  0  0  0  0  0  0  0  0  0  0  0
    4.4501   -1.9068    0.6473 O   0  0  0  0  0  0  0  0  0  0  0  0
    3.0993   -1.6588    2.1197 C   0  0  1  0  0  0  0  0  0  0  0  0
    1.6797   -1.9466    2.3896 C   0  0  0  0  0  0  0  0  0  0  0  0
    0.7504   -0.7943    2.4143 C   0  0  0  0  0  0  0  0  0  0  0  0
   -0.0653   -0.2522    1.4091 C   0  0  0  0  0  0  0  0  0  0  0  0
   -0.8343    0.8561    1.6944 C   0  0  0  0  0  0  0  0  0  0  0  0
   -0.8701    1.4942    2.9193 C   0  0  0  0  0  0  0  0  0  0  0  0
   -1.6565    2.5998    3.1500 C   0  0  0  0  0  0  0  0  0  0  0  0
   -1.7038    3.2496    4.3650 C   0  0  0  0  0  0  0  0  0  0  0  0
   -0.8965    2.7097    5.3542 C   0  0  0  0  0  0  0  0  0  0  0  0
   -0.1088    1.6035    5.1255 C   0  0  0  0  0  0  0  0  0  0  0  0
   -0.0843    0.9765    3.8983 C   0  0  0  0  0  0  0  0  0  0  0  0
    0.6863   -0.1165    3.6491 C   0  0  0  0  0  0  0  0  0  0  0  0
    3.8554   -2.9174    2.2847 N   0  0  0  0  0  0  0  0  0  0  0  0
    4.7978   -3.2982    3.2516 C   0  0  0  0  0  0  0  0  0  0  0  0
    5.3894   -4.6584    3.1480 C   0  0  0  0  0  0  0  0  0  0  0  0
    5.1238   -2.4988    4.1779 O   0  0  0  0  0  0  0  0  0  0  0  0
   -3.3261   -2.0617    0.3712 C   0  0  0  0  0  0  0  0  0  0  0  0
   -2.4765   -2.2843   -0.5623 O   0  0  0  0  0  0  0  0  0  0  0  0
   -3.1223   -2.9200    1.4969 N   0  0  0  0  0  0  0  0  0  0  0  0
   -2.1647   -3.9474    1.8086 C   0  0  1  0  0  0  0  0  0  0  0  0
   -1.9968   -3.9406    3.2952 C   0  0  0  0  0  0  0  0  0  0  0  0
   -1.0579   -4.9826    3.8426 C   0  0  0  0  0  0  0  0  0  0  0  0
   -0.9611   -5.0170    5.3218 C   0  0  0  0  0  0  0  0  0  0  0  0
   -0.4410   -3.8590    6.0680 C   0  0  0  0  0  0  0  0  0  0  0  0
    0.9175   -3.4888    5.8256 N   0  0  0  0  0  0  0  0  0  0  0  0
    1.2510   -2.3779    6.7340 C   0  0  0  0  0  0  0  0  0  0  0  0
    2.7170   -2.0091    6.6508 C   0  0  0  0  0  0  0  0  0  0  0  0
    1.0113   -2.8396    8.1774 C   0  0  0  0  0  0  0  0  0  0  0  0
   -2.5267   -5.2715    1.2668 C   0  0  0  0  0  0  0  0  0  0  0  0
   -3.5209   -5.8164    0.7346 O   0  0  0  0  0  0  0  0  0  0  0  0
   -2.0560   -6.5872    1.0274 N   0  0  0  0  0  0  0  0  0  0  0  0
   -2.8091   -7.6759    0.4782 C   0  0  0  0  0  0  0  0  0  0  0  0
   -2.5556   -8.8057    1.4833 C   0  0  0  0  0  0  0  0  0  0  0  0
   -1.0603   -8.6900    1.6137 C   0  0  0  0  0  0  0  0  0  0  0  0
   -0.7796   -7.3059    1.1665 C   0  0  1  0  0  0  0  0  0  0  0  0
   -0.0815   -7.2704   -0.1612 C   0  0  0  0  0  0  0  0  0  0  0  0
    0.9590   -7.9612   -0.0964 O   0  0  0  0  0  0  0  0  0  0  0  0
   -0.5189   -6.5706   -1.3104 N   0  0  0  0  0  0  0  0  0  0  0  0
    0.1889   -6.5650   -2.5743 C   0  0  2  0  0  0  0  0  0  0  0  0
    0.4874   -5.1699   -3.0633 C   0  0  0  0  0  0  0  0  0  0  0  0
   -0.6186   -7.2348   -3.6530 C   0  0  0  0  0  0  0  0  0  0  0  0
   -1.8993   -7.8709   -3.7677 N   0  0  0  0  0  0  0  0  0  0  0  0
    0.0048   -7.2354   -4.7585 O   0  0  0  0  0  0  0  0  0  0  0  0
   -7.4962   -3.0217    1.8090 H   0  0  0  0  0  0  0  0  0  0  0  0
   -8.3895   -3.4636    0.3412 H   0  0  0  0  0  0  0  0  0  0  0  0
   -8.3533   -1.7250    0.9845 H   0  0  0  0  0  0  0  0  0  0  0  0
   -6.7013   -1.9938   -0.9498 H   0  0  0  0  0  0  0  0  0  0  0  0
   -5.6223   -4.1038    1.0197 H   0  0  0  0  0  0  0  0  0  0  0  0
   -4.9042   -3.7880   -0.6680 H   0  0  0  0  0  0  0  0  0  0  0  0
   -6.5004   -4.5462   -0.4422 H   0  0  0  0  0  0  0  0  0  0  0  0
   -5.5559   -1.8071    1.8628 H   0  0  0  0  0  0  0  0  0  0  0  0
   -6.2902   -0.4733    0.9884 H   0  0  0  0  0  0  0  0  0  0  0  0
   -4.0205   -0.1629    0.9275 H   0  0  0  0  0  0  0  0  0  0  0  0
   -4.9472   -0.7834   -1.9244 H   0  0  0  0  0  0  0  0  0  0  0  0
   -4.0952    1.0003   -3.6460 H   0  0  0  0  0  0  0  0  0  0  0  0
   -5.2234    3.0497   -1.9018 H   0  0  0  0  0  0  0  0  0  0  0  0
   -5.2722    2.9892   -3.6845 H   0  0  0  0  0  0  0  0  0  0  0  0
   -6.5745    1.6771   -0.5456 H   0  0  0  0  0  0  0  0  0  0  0  0
   -8.5129    0.2764   -0.3244 H   0  0  0  0  0  0  0  0  0  0  0  0
  -10.0626   -1.9410   -2.0138 H   0  0  0  0  0  0  0  0  0  0  0  0
  -13.2818   -0.9440   -2.1843 H   0  0  0  0  0  0  0  0  0  0  0  0
  -12.8816    0.1098   -1.3643 H   0  0  0  0  0  0  0  0  0  0  0  0
   -8.6951   -0.3220   -4.5505 H   0  0  0  0  0  0  0  0  0  0  0  0
   -6.6634    1.1446   -4.8059 H   0  0  0  0  0  0  0  0  0  0  0  0
   -2.0782    2.0082   -2.3923 H   0  0  0  0  0  0  0  0  0  0  0  0
   -1.3135    4.6356   -1.6827 H   0  0  0  0  0  0  0  0  0  0  0  0
   -1.5546    6.5145   -3.0281 H   0  0  0  0  0  0  0  0  0  0  0  0
   -1.0760    5.7329   -4.5305 H   0  0  0  0  0  0  0  0  0  0  0  0
   -0.2352    6.9523   -1.2620 H   0  0  0  0  0  0  0  0  0  0  0  0
    1.8966    7.6357   -0.4832 H   0  0  0  0  0  0  0  0  0  0  0  0
    5.1573    7.1152   -2.3151 H   0  0  0  0  0  0  0  0  0  0  0  0
    6.2592    7.5778    0.9994 H   0  0  0  0  0  0  0  0  0  0  0  0
    6.0981   10.3992   -0.0903 H   0  0  0  0  0  0  0  0  0  0  0  0
    5.0450    9.7542    1.2695 H   0  0  0  0  0  0  0  0  0  0  0  0
    9.3063    9.7118    1.4437 H   0  0  0  0  0  0  0  0  0  0  0  0
    7.1862    7.7580   -1.7250 H   0  0  0  0  0  0  0  0  0  0  0  0
    3.7331    6.0262   -3.9386 H   0  0  0  0  0  0  0  0  0  0  0  0
    1.4978    5.3265   -4.7259 H   0  0  0  0  0  0  0  0  0  0  0  0
    0.5345    2.8316   -2.4667 H   0  0  0  0  0  0  0  0  0  0  0  0
    0.1956    1.9316   -5.9966 H   0  0  0  0  0  0  0  0  0  0  0  0
   -1.2326    0.2293   -3.9682 H   0  0  0  0  0  0  0  0  0  0  0  0
   -0.7087   -0.2851   -5.6154 H   0  0  0  0  0  0  0  0  0  0  0  0
   -2.0166    1.5739   -6.4098 H   0  0  0  0  0  0  0  0  0  0  0  0
    1.3832    1.0115   -3.4056 H   0  0  0  0  0  0  0  0  0  0  0  0
    2.9070   -1.4336   -5.0076 H   0  0  0  0  0  0  0  0  0  0  0  0
    4.3668    0.9887   -6.1507 H   0  0  0  0  0  0  0  0  0  0  0  0
    3.9114   -0.5124   -6.9599 H   0  0  0  0  0  0  0  0  0  0  0  0
    6.4518    0.9385   -4.6021 H   0  0  0  0  0  0  0  0  0  0  0  0
    8.5989   -0.1773   -4.1136 H   0  0  0  0  0  0  0  0  0  0  0  0
    9.0138   -2.4329   -4.8690 H   0  0  0  0  0  0  0  0  0  0  0  0
    5.1172   -2.5335   -6.6360 H   0  0  0  0  0  0  0  0  0  0  0  0
    4.2522    0.8086   -3.7213 H   0  0  0  0  0  0  0  0  0  0  0  0
    4.9141   -0.0637   -1.1272 H   0  0  0  0  0  0  0  0  0  0  0  0
    2.8094    2.1825   -1.4817 H   0  0  0  0  0  0  0  0  0  0  0  0
    4.4068    2.1715   -2.2991 H   0  0  0  0  0  0  0  0  0  0  0  0
    2.6694    2.9234    0.6950 H   0  0  0  0  0  0  0  0  0  0  0  0
    3.4742    4.1714    2.5719 H   0  0  0  0  0  0  0  0  0  0  0  0
    7.4202    3.8322    0.9122 H   0  0  0  0  0  0  0  0  0  0  0  0
    6.5058    2.5197   -1.0326 H   0  0  0  0  0  0  0  0  0  0  0  0
    2.4394    0.5517    0.4896 H   0  0  0  0  0  0  0  0  0  0  0  0
    3.4298   -0.9799    2.9945 H   0  0  0  0  0  0  0  0  0  0  0  0
    1.2663   -2.7697    1.7373 H   0  0  0  0  0  0  0  0  0  0  0  0
    1.6457   -2.4015    3.4068 H   0  0  0  0  0  0  0  0  0  0  0  0
    0.0123   -0.7867    0.5000 H   0  0  0  0  0  0  0  0  0  0  0  0
   -1.4421    1.2453    0.9064 H   0  0  0  0  0  0  0  0  0  0  0  0
   -2.2715    2.9819    2.3414 H   0  0  0  0  0  0  0  0  0  0  0  0
   -2.3407    4.1139    4.4839 H   0  0  0  0  0  0  0  0  0  0  0  0
   -0.9518    3.2437    6.3073 H   0  0  0  0  0  0  0  0  0  0  0  0
    0.5028    1.2251    5.9344 H   0  0  0  0  0  0  0  0  0  0  0  0
    1.2717   -0.4478    4.4923 H   0  0  0  0  0  0  0  0  0  0  0  0
    3.5371   -3.5404    1.4836 H   0  0  0  0  0  0  0  0  0  0  0  0
    5.5767   -5.0959    4.1507 H   0  0  0  0  0  0  0  0  0  0  0  0
    4.6694   -5.3751    2.6580 H   0  0  0  0  0  0  0  0  0  0  0  0
    6.2818   -4.6378    2.4911 H   0  0  0  0  0  0  0  0  0  0  0  0
   -3.8558   -2.7263    2.2481 H   0  0  0  0  0  0  0  0  0  0  0  0
   -1.2195   -3.6887    1.3131 H   0  0  0  0  0  0  0  0  0  0  0  0
   -2.9622   -3.9449    3.8415 H   0  0  0  0  0  0  0  0  0  0  0  0
   -1.5345   -2.9562    3.6092 H   0  0  0  0  0  0  0  0  0  0  0  0
   -0.0778   -4.8967    3.3284 H   0  0  0  0  0  0  0  0  0  0  0  0
   -1.5332   -5.9698    3.5583 H   0  0  0  0  0  0  0  0  0  0  0  0
   -1.9918   -5.2369    5.7130 H   0  0  0  0  0  0  0  0  0  0  0  0
   -0.3841   -5.9533    5.6029 H   0  0  0  0  0  0  0  0  0  0  0  0
   -1.1459   -3.0047    5.9988 H   0  0  0  0  0  0  0  0  0  0  0  0
   -0.4828   -4.1464    7.1634 H   0  0  0  0  0  0  0  0  0  0  0  0
    1.5267   -4.3062    6.0728 H   0  0  0  0  0  0  0  0  0  0  0  0
    0.6081   -1.5064    6.5550 H   0  0  0  0  0  0  0  0  0  0  0  0
    3.1292   -1.8016    7.6828 H   0  0  0  0  0  0  0  0  0  0  0  0
    3.3148   -2.8321    6.2187 H   0  0  0  0  0  0  0  0  0  0  0  0
    2.8562   -1.0721    6.1031 H   0  0  0  0  0  0  0  0  0  0  0  0
    1.7091   -2.2476    8.8074 H   0  0  0  0  0  0  0  0  0  0  0  0
   -0.0465   -2.6592    8.4621 H   0  0  0  0  0  0  0  0  0  0  0  0
    1.3150   -3.8960    8.2121 H   0  0  0  0  0  0  0  0  0  0  0  0
   -2.4647   -8.0311   -0.5147 H   0  0  0  0  0  0  0  0  0  0  0  0
   -3.8848   -7.5765    0.4155 H   0  0  0  0  0  0  0  0  0  0  0  0
   -3.0231   -8.5893    2.4452 H   0  0  0  0  0  0  0  0  0  0  0  0
   -2.8052   -9.7799    1.0662 H   0  0  0  0  0  0  0  0  0  0  0  0
   -0.5272   -9.4279    0.9762 H   0  0  0  0  0  0  0  0  0  0  0  0
   -0.7681   -8.9076    2.6588 H   0  0  0  0  0  0  0  0  0  0  0  0
   -0.0769   -6.7839    1.8524 H   0  0  0  0  0  0  0  0  0  0  0  0
   -1.3974   -6.0300   -1.2290 H   0  0  0  0  0  0  0  0  0  0  0  0
    1.1257   -7.1656   -2.5198 H   0  0  0  0  0  0  0  0  0  0  0  0
    0.6484   -4.4452   -2.2628 H   0  0  0  0  0  0  0  0  0  0  0  0
    1.3848   -5.2057   -3.7203 H   0  0  0  0  0  0  0  0  0  0  0  0
   -0.3599   -4.7939   -3.6872 H   0  0  0  0  0  0  0  0  0  0  0  0
   -1.6701   -8.7908   -3.3242 H   0  0  0  0  0  0  0  0  0  0  0  0
   -2.7580   -7.4262   -4.1976 H   0  0  0  0  0  0  0  0  0  0  0  0
  1  2  1  0
  2  3  1  0
  2  4  1  0
  4  5  1  0
  5  6  1  0
  6  7  1  0
  7  8  2  0
  7  9  1  0
  9 10  1  0
 10 11  1  0
 11 12  2  0
 12 13  1  0
 13 14  2  0
 14 15  1  0
 15 16  1  0
 16 17  1  0
 16 18  2  0
 14 19  1  0
 19 20  2  0
  9 21  1  0
 21 22  1  0
 22 23  2  0
 22 24  1  0
 24 25  1  0
 25 26  1  0
 26 27  2  0
 27 28  1  0
 28 29  2  0
 29 30  1  0
 30 31  1  0
 31 32  2  0
 31 33  1  0
 33 34  1  0
 34 35  1  0
 35 36  2  0
 35 37  1  0
 37 38  1  0
 38 39  2  0
 38 40  1  0
 29 41  1  0
 41 42  2  0
 24 43  1  0
 43 44  1  0
 44 45  2  0
 44 46  1  0
 46 47  1  0
 47 48  1  0
 46 49  1  0
 49 50  1  0
 50 51  2  0
 50 52  1  0
 52 53  1  0
 53 54  1  0
 54 55  2  0
 55 56  1  0
 56 57  2  0
 57 58  1  0
 58 59  2  0
 52 60  1  0
 60 61  1  0
 61 62  2  0
 61 63  1  0
 63 64  1  0
 64 65  1  0
 65 66  2  0
 66 67  1  0
 67 68  2  0
 68 69  1  0
 68 70  1  0
 70 71  2  0
 63 72  1  0
 72 73  1  0
 73 74  2  0
 73 75  1  0
 75 76  1  0
 76 77  1  0
 77 78  2  0
 78 79  1  0
 79 80  2  0
 80 81  1  0
 81 82  2  0
 82 83  1  0
 83 84  2  0
 84 85  1  0
 85 86  2  0
 75 87  1  0
 87 88  1  0
 88 89  1  0
 88 90  2  0
  5 91  1  0
 91 92  2  0
 91 93  1  0
 93 94  1  0
 94 95  1  0
 95 96  1  0
 96 97  1  0
 97 98  1  0
 98 99  1  0
 99100  1  0
100101  1  0
100102  1  0
 94103  1  0
103104  2  0
103105  1  0
105106  1  0
106107  1  0
107108  1  0
108109  1  0
109110  1  0
110111  2  0
110112  1  0
112113  1  0
113114  1  0
113115  1  0
115116  1  0
115117  2  0
 20 11  1  0
 42 26  1  0
 59 54  1  0
 71 65  1  0
 86 77  1  0
109105  1  0
 40 33  1  0
 85 80  1  0
  1118  1  0
  1119  1  0
  1120  1  0
  2121  1  0
  3122  1  0
  3123  1  0
  3124  1  0
  4125  1  0
  4126  1  0
  5127  1  1
  6128  1  0
  9129  1  6
 10130  1  0
 10131  1  0
 12132  1  0
 13133  1  0
 15134  1  0
 17135  1  0
 17136  1  0
 19137  1  0
 20138  1  0
 21139  1  0
 24140  1  1
 25141  1  0
 25142  1  0
 27143  1  0
 28144  1  0
 30145  1  0
 33146  1  1
 34147  1  0
 34148  1  0
 37149  1  0
 40150  1  0
 41151  1  0
 42152  1  0
 43153  1  0
 46154  1  6
 47155  1  0
 47156  1  0
 48157  1  0
 49158  1  0
 52159  1  1
 53160  1  0
 53161  1  0
 55162  1  0
 56163  1  0
 57164  1  0
 59165  1  0
 60166  1  0
 63167  1  1
 64168  1  0
 64169  1  0
 66170  1  0
 67171  1  0
 70172  1  0
 71173  1  0
 72174  1  0
 75175  1  1
 76176  1  0
 76177  1  0
 78178  1  0
 79179  1  0
 81180  1  0
 82181  1  0
 83182  1  0
 84183  1  0
 86184  1  0
 87185  1  0
 89186  1  0
 89187  1  0
 89188  1  0
 93189  1  0
 94190  1  6
 95191  1  0
 95192  1  0
 96193  1  0
 96194  1  0
 97195  1  0
 97196  1  0
 98197  1  0
 98198  1  0
 99199  1  0
100200  1  0
101201  1  0
101202  1  0
101203  1  0
102204  1  0
102205  1  0
102206  1  0
106207  1  0
106208  1  0
107209  1  0
107210  1  0
108211  1  0
108212  1  0
109213  1  1
112214  1  0
113215  1  1
114216  1  0
114217  1  0
114218  1  0
116219  1  0
116220  1  0
M  END
$$$$
