@<TRIPOS>MOLECULE
*****
 38 41 0 0 0
SMALL
GASTEIGER

@<TRIPOS>ATOM
      1 N           0.5395   -2.7442   -4.3656 N.1     1  UNL1       -0.1892
      2 C           0.2334   -1.6825   -4.0470 C.1     1  UNL1        0.1208
      3 C          -0.1791   -0.3224   -3.6307 C.ar    1  UNL1        0.1618
      4 C          -0.7737    0.6161   -4.4433 C.ar    1  UNL1        0.0659
      5 N          -0.9836    1.7144   -3.7111 N.ar    1  UNL1       -0.2333
      6 C          -0.5306    1.4967   -2.4305 C.ar    1  UNL1        0.1555
      7 C          -0.5240    2.2965   -1.3070 C.ar    1  UNL1       -0.0153
      8 C           0.0051    1.7715   -0.1107 C.ar    1  UNL1       -0.0290
      9 C           0.4748    0.5002   -0.1606 C.ar    1  UNL1        0.1103
     10 C           1.0023   -0.1216    1.0777 C.ar    1  UNL1        0.0968
     11 C           0.1273   -0.8433    1.9138 C.ar    1  UNL1        0.0983
     12 C          -1.2771   -1.0879    1.6371 C.ar    1  UNL1        0.0052
     13 C          -2.3368   -0.4160    2.0983 C.ar    1  UNL1       -0.0340
     14 C          -3.6583   -0.7122    1.7272 C.ar    1  UNL1        0.0430
     15 CL         -5.0279    0.1938    2.3167 Cl      1  UNL1       -0.0835
     16 C          -3.8786   -1.7440    0.8476 C.ar    1  UNL1       -0.0250
     17 C          -2.8193   -2.4739    0.3402 C.ar    1  UNL1        0.0430
     18 CL         -3.1479   -3.7687   -0.7685 Cl      1  UNL1       -0.0835
     19 C          -1.5366   -2.1394    0.7392 C.ar    1  UNL1       -0.0340
     20 N           0.9384   -1.2339    2.9300 N.ar    1  UNL1       -0.2351
     21 C           2.2013   -0.7713    2.7009 C.ar    1  UNL1        0.0973
     22 N           2.2221   -0.0696    1.5249 N.ar    1  UNL1       -0.3229
     23 C           3.3945    0.5635    0.9292 C.3     1  UNL1        0.0852
     24 C           3.4928    2.0152    1.3765 C.3     1  UNL1        0.2569
     25 F           3.6145    2.1620    2.7324 F       1  UNL1       -0.2073
     26 F           4.4987    2.6560    0.6828 F       1  UNL1       -0.2073
     27 N           0.4330   -0.2108   -1.2948 N.ar    1  UNL1       -0.1623
     28 N          -0.0510    0.2424   -2.4314 N.ar    1  UNL1       -0.2023
     29 H          -1.0171    0.4578   -5.5021 H       1  UNL1        0.0859
     30 H          -0.9083    3.3093   -1.3245 H       1  UNL1        0.0655
     31 H           0.0265    2.3993    0.7978 H       1  UNL1        0.0641
     32 H          -2.2217    0.4040    2.7916 H       1  UNL1        0.0639
     33 H          -4.9166   -1.9958    0.5419 H       1  UNL1        0.0647
     34 H          -0.7059   -2.7161    0.3388 H       1  UNL1        0.0639
     35 H           3.0930   -0.8969    3.2985 H       1  UNL1        0.1029
     36 H           4.3095    0.0762    1.3435 H       1  UNL1        0.0548
     37 H           3.3522    0.5860   -0.1760 H       1  UNL1        0.0548
     38 H           2.5350    2.4896    1.0171 H       1  UNL1        0.1037
@<TRIPOS>BOND
     1     1     2    3
     2     2     3    1
     3     3     4   ar
     4     4     5   ar
     5     5     6   ar
     6     6     7   ar
     7     7     8   ar
     8     8     9   ar
     9     9    10    1
    10    10    11   ar
    11    11    12    1
    12    12    13   ar
    13    13    14   ar
    14    14    15    1
    15    14    16   ar
    16    16    17   ar
    17    17    18    1
    18    17    19   ar
    19    11    20   ar
    20    20    21   ar
    21    21    22   ar
    22    22    23    1
    23    23    24    1
    24    24    25    1
    25    24    26    1
    26     9    27   ar
    27    27    28   ar
    28    28     3   ar
    29    28     6   ar
    30    22    10   ar
    31    19    12   ar
    32     4    29    1
    33     7    30    1
    34     8    31    1
    35    13    32    1
    36    16    33    1
    37    19    34    1
    38    21    35    1
    39    23    36    1
    40    23    37    1
    41    24    38    1
