
     RDKit          3D

 57 60  0  0  0  0  0  0  0  0999 V2000
   -3.4275   -2.5486   -0.0267 C   0  0  0  0  0  0  0  0  0  0  0  0
   -2.8760   -1.2216   -0.5596 C   0  0  2  0  0  0  0  0  0  0  0  0
   -1.4870   -1.5322   -1.1389 C   0  0  0  0  0  0  0  0  0  0  0  0
   -0.5971   -0.8011   -0.2115 C   0  0  1  0  0  0  0  0  0  0  0  0
    0.7993   -0.5406   -0.6774 C   0  0  2  0  0  0  0  0  0  0  0  0
    1.4725   -1.8882   -0.7519 C   0  0  0  0  0  0  0  0  0  0  0  0
    2.9648   -1.8750   -0.7177 C   0  0  0  0  0  0  0  0  0  0  0  0
    3.5230   -0.7055    0.0183 C   0  0  0  0  0  0  0  0  0  0  0  0
    4.5916   -0.9104    0.7467 C   0  0  0  0  0  0  0  0  0  0  0  0
    5.2435    0.1304    1.5200 C   0  0  0  0  0  0  0  0  0  0  0  0
    6.2532   -0.0326    2.2162 O   0  0  0  0  0  0  0  0  0  0  0  0
    4.6151    1.4488    1.4307 C   0  0  0  0  0  0  0  0  0  0  0  0
    3.5441    1.6410    0.6946 C   0  0  0  0  0  0  0  0  0  0  0  0
    2.8894    0.6210   -0.0820 C   0  0  1  0  0  0  0  0  0  0  0  0
    2.9929    1.0010   -1.5542 C   0  0  0  0  0  0  0  0  0  0  0  0
    1.4570    0.3724    0.3388 C   0  0  2  0  0  0  0  0  0  0  0  0
    1.5626   -0.4010    1.4880 F   0  0  0  0  0  0  0  0  0  0  0  0
    0.6760    1.5644    0.7008 C   0  0  1  0  0  0  0  0  0  0  0  0
    0.5602    2.5534   -0.2387 O   0  0  0  0  0  0  0  0  0  0  0  0
   -0.7160    1.1908    1.1524 C   0  0  0  0  0  0  0  0  0  0  0  0
   -1.3906    0.4630    0.0569 C   0  0  1  0  0  0  0  0  0  0  0  0
   -1.6937    1.2325   -1.1656 C   0  0  0  0  0  0  0  0  0  0  0  0
   -2.6778   -0.2497    0.5263 C   0  0  2  0  0  0  0  0  0  0  0  0
   -2.1725   -0.9993    1.6408 O   0  0  0  0  0  0  0  0  0  0  0  0
   -3.7324    0.5951    0.9829 C   0  0  0  0  0  0  0  0  0  0  0  0
   -3.8482    0.7041    2.2337 O   0  0  0  0  0  0  0  0  0  0  0  0
   -4.7481    1.3898    0.2703 C   0  0  0  0  0  0  0  0  0  0  0  0
   -4.8093    1.2602   -1.0837 O   0  0  0  0  0  0  0  0  0  0  0  0
   -4.5246   -2.4655    0.1493 H   0  0  0  0  0  0  0  0  0  0  0  0
   -2.8625   -2.7627    0.9002 H   0  0  0  0  0  0  0  0  0  0  0  0
   -3.1708   -3.3120   -0.7824 H   0  0  0  0  0  0  0  0  0  0  0  0
   -3.4966   -0.9390   -1.3981 H   0  0  0  0  0  0  0  0  0  0  0  0
   -1.3069   -2.6242   -1.1854 H   0  0  0  0  0  0  0  0  0  0  0  0
   -1.3823   -1.1347   -2.1690 H   0  0  0  0  0  0  0  0  0  0  0  0
   -0.5276   -1.3523    0.7464 H   0  0  0  0  0  0  0  0  0  0  0  0
    0.7383   -0.0850   -1.6830 H   0  0  0  0  0  0  0  0  0  0  0  0
    1.1345   -2.5764    0.0649 H   0  0  0  0  0  0  0  0  0  0  0  0
    1.1032   -2.3774   -1.6956 H   0  0  0  0  0  0  0  0  0  0  0  0
    3.3915   -2.7828   -0.2674 H   0  0  0  0  0  0  0  0  0  0  0  0
    3.3371   -1.8130   -1.7553 H   0  0  0  0  0  0  0  0  0  0  0  0
    5.0559   -1.9073    0.8069 H   0  0  0  0  0  0  0  0  0  0  0  0
    5.0324    2.2964    1.9797 H   0  0  0  0  0  0  0  0  0  0  0  0
    3.1723    2.6934    0.7221 H   0  0  0  0  0  0  0  0  0  0  0  0
    4.0740    1.1876   -1.7397 H   0  0  0  0  0  0  0  0  0  0  0  0
    2.6943    0.1985   -2.2276 H   0  0  0  0  0  0  0  0  0  0  0  0
    2.4997    1.9775   -1.7487 H   0  0  0  0  0  0  0  0  0  0  0  0
    1.1547    2.0296    1.5944 H   0  0  0  0  0  0  0  0  0  0  0  0
    1.0082    3.3841   -0.0575 H   0  0  0  0  0  0  0  0  0  0  0  0
   -1.2290    2.1383    1.4488 H   0  0  0  0  0  0  0  0  0  0  0  0
   -0.6665    0.4910    2.0377 H   0  0  0  0  0  0  0  0  0  0  0  0
   -0.7823    1.4746   -1.7794 H   0  0  0  0  0  0  0  0  0  0  0  0
   -2.2570    2.1483   -0.9102 H   0  0  0  0  0  0  0  0  0  0  0  0
   -2.3188    0.6488   -1.8701 H   0  0  0  0  0  0  0  0  0  0  0  0
   -2.9374   -1.1734    2.2276 H   0  0  0  0  0  0  0  0  0  0  0  0
   -4.6844    2.4832    0.5597 H   0  0  0  0  0  0  0  0  0  0  0  0
   -5.7747    1.1010    0.6552 H   0  0  0  0  0  0  0  0  0  0  0  0
   -5.4437    0.5910   -1.4236 H   0  0  0  0  0  0  0  0  0  0  0  0
  1  2  1  0
  2  3  1  0
  3  4  1  0
  4  5  1  0
  5  6  1  0
  6  7  1  0
  7  8  1  0
  8  9  2  0
  9 10  1  0
 10 11  2  0
 10 12  1  0
 12 13  2  0
 13 14  1  0
 14 15  1  6
 14 16  1  0
 16 17  1  1
 16 18  1  0
 18 19  1  0
 18 20  1  0
 20 21  1  0
 21 22  1  6
 21 23  1  0
 23 24  1  1
 23 25  1  0
 25 26  2  0
 25 27  1  0
 27 28  1  0
 23  2  1  0
 21  4  1  0
 16  5  1  0
 14  8  1  0
  1 29  1  0
  1 30  1  0
  1 31  1  0
  2 32  1  6
  3 33  1  0
  3 34  1  0
  4 35  1  1
  5 36  1  6
  6 37  1  0
  6 38  1  0
  7 39  1  0
  7 40  1  0
  9 41  1  0
 12 42  1  0
 13 43  1  0
 15 44  1  0
 15 45  1  0
 15 46  1  0
 18 47  1  1
 19 48  1  0
 20 49  1  0
 20 50  1  0
 22 51  1  0
 22 52  1  0
 22 53  1  0
 24 54  1  0
 27 55  1  0
 27 56  1  0
 28 57  1  0
M  END
$$$$
