@<TRIPOS>MOLECULE
*****
 57 60 0 0 0
SMALL
GASTEIGER

@<TRIPOS>ATOM
      1 C          -3.4275   -2.5486   -0.0267 C.3     1  UNL1       -0.0594
      2 C          -2.8760   -1.2216   -0.5596 C.3     1  UNL1       -0.0071
      3 C          -1.4870   -1.5322   -1.1389 C.3     1  UNL1       -0.0436
      4 C          -0.5971   -0.8011   -0.2115 C.3     1  UNL1       -0.0263
      5 C           0.7993   -0.5406   -0.6774 C.3     1  UNL1        0.0003
      6 C           1.4725   -1.8882   -0.7519 C.3     1  UNL1       -0.0432
      7 C           2.9648   -1.8750   -0.7177 C.3     1  UNL1       -0.0301
      8 C           3.5230   -0.7055    0.0183 C.2     1  UNL1       -0.0532
      9 C           4.5916   -0.9104    0.7467 C.2     1  UNL1       -0.0148
     10 C           5.2435    0.1304    1.5200 C.2     1  UNL1        0.1787
     11 O           6.2532   -0.0326    2.2162 O.2     1  UNL1       -0.2879
     12 C           4.6151    1.4488    1.4307 C.2     1  UNL1       -0.0180
     13 C           3.5441    1.6410    0.6946 C.2     1  UNL1       -0.0674
     14 C           2.8894    0.6210   -0.0820 C.3     1  UNL1        0.0443
     15 C           2.9929    1.0010   -1.5542 C.3     1  UNL1       -0.0493
     16 C           1.4570    0.3724    0.3388 C.3     1  UNL1        0.1526
     17 F           1.5626   -0.4010    1.4880 F       1  UNL1       -0.2377
     18 C           0.6760    1.5644    0.7008 C.3     1  UNL1        0.0910
     19 O           0.5602    2.5534   -0.2387 O.3     1  UNL1       -0.3886
     20 C          -0.7160    1.1908    1.1524 C.3     1  UNL1       -0.0151
     21 C          -1.3906    0.4630    0.0569 C.3     1  UNL1        0.0096
     22 C          -1.6937    1.2325   -1.1656 C.3     1  UNL1       -0.0562
     23 C          -2.6778   -0.2497    0.5263 C.3     1  UNL1        0.1340
     24 O          -2.1725   -0.9993    1.6408 O.3     1  UNL1       -0.3802
     25 C          -3.7324    0.5951    0.9829 C.2     1  UNL1        0.1904
     26 O          -3.8482    0.7041    2.2337 O.2     1  UNL1       -0.2919
     27 C          -4.7481    1.3898    0.2703 C.3     1  UNL1        0.1052
     28 O          -4.8093    1.2602   -1.0837 O.3     1  UNL1       -0.3874
     29 H          -4.5246   -2.4655    0.1493 H       1  UNL1        0.0233
     30 H          -2.8625   -2.7627    0.9002 H       1  UNL1        0.0233
     31 H          -3.1708   -3.3120   -0.7824 H       1  UNL1        0.0233
     32 H          -3.4966   -0.9390   -1.3981 H       1  UNL1        0.0330
     33 H          -1.3069   -2.6242   -1.1854 H       1  UNL1        0.0272
     34 H          -1.3823   -1.1347   -2.1690 H       1  UNL1        0.0272
     35 H          -0.5276   -1.3523    0.7464 H       1  UNL1        0.0311
     36 H           0.7383   -0.0850   -1.6830 H       1  UNL1        0.0336
     37 H           1.1345   -2.5764    0.0649 H       1  UNL1        0.0272
     38 H           1.1032   -2.3774   -1.6956 H       1  UNL1        0.0272
     39 H           3.3915   -2.7828   -0.2674 H       1  UNL1        0.0310
     40 H           3.3371   -1.8130   -1.7553 H       1  UNL1        0.0310
     41 H           5.0559   -1.9073    0.8069 H       1  UNL1        0.0656
     42 H           5.0324    2.2964    1.9797 H       1  UNL1        0.0653
     43 H           3.1723    2.6934    0.7221 H       1  UNL1        0.0583
     44 H           4.0740    1.1876   -1.7397 H       1  UNL1        0.0242
     45 H           2.6943    0.1985   -2.2276 H       1  UNL1        0.0242
     46 H           2.4997    1.9775   -1.7487 H       1  UNL1        0.0242
     47 H           1.1547    2.0296    1.5944 H       1  UNL1        0.0626
     48 H           1.0082    3.3841   -0.0575 H       1  UNL1        0.2099
     49 H          -1.2290    2.1383    1.4488 H       1  UNL1        0.0297
     50 H          -0.6665    0.4910    2.0377 H       1  UNL1        0.0297
     51 H          -0.7823    1.4746   -1.7794 H       1  UNL1        0.0236
     52 H          -2.2570    2.1483   -0.9102 H       1  UNL1        0.0236
     53 H          -2.3188    0.6488   -1.8701 H       1  UNL1        0.0236
     54 H          -2.9374   -1.1734    2.2276 H       1  UNL1        0.2108
     55 H          -4.6844    2.4832    0.5597 H       1  UNL1        0.0637
     56 H          -5.7747    1.1010    0.6552 H       1  UNL1        0.0637
     57 H          -5.4437    0.5910   -1.4236 H       1  UNL1        0.2100
@<TRIPOS>BOND
     1     1     2    1
     2     2     3    1
     3     3     4    1
     4     4     5    1
     5     5     6    1
     6     6     7    1
     7     7     8    1
     8     8     9    2
     9     9    10    1
    10    10    11    2
    11    10    12    1
    12    12    13    2
    13    13    14    1
    14    14    15    1
    15    14    16    1
    16    16    17    1
    17    16    18    1
    18    18    19    1
    19    18    20    1
    20    20    21    1
    21    21    22    1
    22    21    23    1
    23    23    24    1
    24    23    25    1
    25    25    26    2
    26    25    27    1
    27    27    28    1
    28    23     2    1
    29    21     4    1
    30    16     5    1
    31    14     8    1
    32     1    29    1
    33     1    30    1
    34     1    31    1
    35     2    32    1
    36     3    33    1
    37     3    34    1
    38     4    35    1
    39     5    36    1
    40     6    37    1
    41     6    38    1
    42     7    39    1
    43     7    40    1
    44     9    41    1
    45    12    42    1
    46    13    43    1
    47    15    44    1
    48    15    45    1
    49    15    46    1
    50    18    47    1
    51    19    48    1
    52    20    49    1
    53    20    50    1
    54    22    51    1
    55    22    52    1
    56    22    53    1
    57    24    54    1
    58    27    55    1
    59    27    56    1
    60    28    57    1
