
     RDKit          3D

 59 64  0  0  0  0  0  0  0  0999 V2000
    6.4351   -2.5796    3.4527 C   0  0  0  0  0  0  0  0  0  0  0  0
    5.2078   -1.9555    3.4982 C   0  0  0  0  0  0  0  0  0  0  0  0
    4.9618   -0.9268    2.6193 C   0  0  0  0  0  0  0  0  0  0  0  0
    5.9246   -0.5333    1.7155 C   0  0  0  0  0  0  0  0  0  0  0  0
    5.6665    0.4978    0.8407 C   0  0  0  0  0  0  0  0  0  0  0  0
    4.3717    1.1511    0.8927 C   0  0  0  0  0  0  0  0  0  0  0  0
    3.9577    2.2359    1.6268 C   0  0  0  0  0  0  0  0  0  0  0  0
    2.6738    2.4471    1.3195 N   0  0  0  0  0  0  0  0  0  0  0  0
    2.2293    1.5683    0.4335 N   0  0  0  0  0  0  0  0  0  0  0  0
    1.0095    1.4109   -0.1523 C   0  0  0  0  0  0  0  0  0  0  0  0
    0.7884    0.4022   -1.0619 C   0  0  0  0  0  0  0  0  0  0  0  0
   -0.4954    0.1986   -1.7120 C   0  0  0  0  0  0  0  0  0  0  0  0
   -0.6338   -0.3142   -2.9788 C   0  0  0  0  0  0  0  0  0  0  0  0
   -1.8636   -0.4871   -3.5469 C   0  0  0  0  0  0  0  0  0  0  0  0
   -3.0493   -0.1469   -2.8591 C   0  0  0  0  0  0  0  0  0  0  0  0
   -4.2166   -0.3457   -3.4833 O   0  0  0  0  0  0  0  0  0  0  0  0
   -5.5064   -0.1430   -3.1397 C   0  0  0  0  0  0  0  0  0  0  0  0
   -6.0362   -0.8642   -1.9375 C   0  0  0  0  0  0  0  0  0  0  0  0
   -5.3864   -0.4572   -0.7350 N   0  0  0  0  0  0  0  0  0  0  0  0
   -5.7669    0.8861   -0.3327 C   0  0  0  0  0  0  0  0  0  0  0  0
   -4.8193    1.3847    0.7235 C   0  0  0  0  0  0  0  0  0  0  0  0
   -4.0832    0.2659    1.3150 N   0  0  0  0  0  0  0  0  0  0  0  0
   -5.0569   -0.7882    1.6252 C   0  0  0  0  0  0  0  0  0  0  0  0
   -5.6693   -1.3468    0.3726 C   0  0  0  0  0  0  0  0  0  0  0  0
   -2.8544    0.3480   -1.6290 N   0  0  0  0  0  0  0  0  0  0  0  0
   -1.6623    0.5268   -1.0511 C   0  0  0  0  0  0  0  0  0  0  0  0
    1.8724   -0.4269   -1.3355 C   0  0  0  0  0  0  0  0  0  0  0  0
    3.0614   -0.2418   -0.7385 N   0  0  0  0  0  0  0  0  0  0  0  0
    3.2631    0.7555    0.1545 C   0  0  0  0  0  0  0  0  0  0  0  0
    6.6492    0.8668   -0.0499 C   0  0  0  0  0  0  0  0  0  0  0  0
    7.8516    0.2360   -0.0758 C   0  0  0  0  0  0  0  0  0  0  0  0
    8.0981   -0.7645    0.7754 N   0  0  0  0  0  0  0  0  0  0  0  0
    7.1547   -1.1493    1.6604 C   0  0  0  0  0  0  0  0  0  0  0  0
    7.4030   -2.1918    2.5520 C   0  0  0  0  0  0  0  0  0  0  0  0
    6.5929   -3.3886    4.1635 H   0  0  0  0  0  0  0  0  0  0  0  0
    4.4591   -2.2736    4.2129 H   0  0  0  0  0  0  0  0  0  0  0  0
    4.0134   -0.4045    2.6153 H   0  0  0  0  0  0  0  0  0  0  0  0
    4.6089    2.7663    2.3046 H   0  0  0  0  0  0  0  0  0  0  0  0
    0.1908    2.0756    0.0862 H   0  0  0  0  0  0  0  0  0  0  0  0
    0.2611   -0.5868   -3.5361 H   0  0  0  0  0  0  0  0  0  0  0  0
   -1.9999   -0.8863   -4.5366 H   0  0  0  0  0  0  0  0  0  0  0  0
   -5.7756    0.9713   -3.0594 H   0  0  0  0  0  0  0  0  0  0  0  0
   -6.1568   -0.4401   -4.0332 H   0  0  0  0  0  0  0  0  0  0  0  0
   -7.1447   -0.7927   -1.8883 H   0  0  0  0  0  0  0  0  0  0  0  0
   -5.7877   -1.9533   -2.0899 H   0  0  0  0  0  0  0  0  0  0  0  0
   -5.8757    1.5957   -1.1523 H   0  0  0  0  0  0  0  0  0  0  0  0
   -6.7911    0.7770    0.1206 H   0  0  0  0  0  0  0  0  0  0  0  0
   -4.0580    2.0341    0.2402 H   0  0  0  0  0  0  0  0  0  0  0  0
   -5.3711    1.9664    1.5071 H   0  0  0  0  0  0  0  0  0  0  0  0
   -3.6913    0.5706    2.2285 H   0  0  0  0  0  0  0  0  0  0  0  0
   -5.8221   -0.3860    2.3280 H   0  0  0  0  0  0  0  0  0  0  0  0
   -4.5356   -1.5943    2.1642 H   0  0  0  0  0  0  0  0  0  0  0  0
   -5.3374   -2.3870    0.1634 H   0  0  0  0  0  0  0  0  0  0  0  0
   -6.7640   -1.4173    0.5329 H   0  0  0  0  0  0  0  0  0  0  0  0
   -1.6021    0.9271   -0.0692 H   0  0  0  0  0  0  0  0  0  0  0  0
    1.6926   -1.2178   -2.0516 H   0  0  0  0  0  0  0  0  0  0  0  0
    6.4446    1.6889   -0.7480 H   0  0  0  0  0  0  0  0  0  0  0  0
    8.6149    0.5379   -0.7831 H   0  0  0  0  0  0  0  0  0  0  0  0
    8.3550   -2.6808    2.5218 H   0  0  0  0  0  0  0  0  0  0  0  0
  1  2  2  0
  2  3  1  0
  3  4  2  0
  4  5  1  0
  5  6  1  0
  6  7  1  0
  7  8  2  0
  8  9  1  0
  9 10  1  0
 10 11  2  0
 11 12  1  0
 12 13  2  0
 13 14  1  0
 14 15  2  0
 15 16  1  0
 16 17  1  0
 17 18  1  0
 18 19  1  0
 19 20  1  0
 20 21  1  0
 21 22  1  0
 22 23  1  0
 23 24  1  0
 15 25  1  0
 25 26  2  0
 11 27  1  0
 27 28  2  0
 28 29  1  0
  5 30  2  0
 30 31  1  0
 31 32  2  0
 32 33  1  0
 33 34  2  0
 34  1  1  0
 33  4  1  0
 29  6  2  0
 29  9  1  0
 26 12  1  0
 24 19  1  0
  1 35  1  0
  2 36  1  0
  3 37  1  0
  7 38  1  0
 10 39  1  0
 13 40  1  0
 14 41  1  0
 17 42  1  0
 17 43  1  0
 18 44  1  0
 18 45  1  0
 20 46  1  0
 20 47  1  0
 21 48  1  0
 21 49  1  0
 22 50  1  0
 23 51  1  0
 23 52  1  0
 24 53  1  0
 24 54  1  0
 26 55  1  0
 27 56  1  0
 30 57  1  0
 31 58  1  0
 34 59  1  0
M  END
$$$$
