@<TRIPOS>MOLECULE
*****
 59 64 0 0 0
SMALL
GASTEIGER

@<TRIPOS>ATOM
      1 C           6.4351   -2.5796    3.4527 C.ar    1  UNL1       -0.0597
      2 C           5.2078   -1.9555    3.4982 C.ar    1  UNL1       -0.0611
      3 C           4.9618   -0.9268    2.6193 C.ar    1  UNL1       -0.0520
      4 C           5.9246   -0.5333    1.7155 C.ar    1  UNL1        0.0082
      5 C           5.6665    0.4978    0.8407 C.ar    1  UNL1       -0.0022
      6 C           4.3717    1.1511    0.8927 C.ar    1  UNL1        0.0467
      7 C           3.9577    2.2359    1.6268 C.ar    1  UNL1        0.0597
      8 N           2.6738    2.4471    1.3195 N.ar    1  UNL1       -0.1727
      9 N           2.2293    1.5683    0.4335 N.ar    1  UNL1       -0.2206
     10 C           1.0095    1.4109   -0.1523 C.ar    1  UNL1        0.0406
     11 C           0.7884    0.4022   -1.0619 C.ar    1  UNL1        0.0199
     12 C          -0.4954    0.1986   -1.7120 C.ar    1  UNL1        0.0034
     13 C          -0.6338   -0.3142   -2.9788 C.ar    1  UNL1       -0.0475
     14 C          -1.8636   -0.4871   -3.5469 C.ar    1  UNL1        0.0006
     15 C          -3.0493   -0.1469   -2.8591 C.ar    1  UNL1        0.2147
     16 O          -4.2166   -0.3457   -3.4833 O.3     1  UNL1       -0.4751
     17 C          -5.5064   -0.1430   -3.1397 C.3     1  UNL1        0.1039
     18 C          -6.0362   -0.8642   -1.9375 C.3     1  UNL1        0.0333
     19 N          -5.3864   -0.4572   -0.7350 N.3     1  UNL1       -0.2967
     20 C          -5.7669    0.8861   -0.3327 C.3     1  UNL1        0.0116
     21 C          -4.8193    1.3847    0.7235 C.3     1  UNL1        0.0087
     22 N          -4.0832    0.2659    1.3150 N.3     1  UNL1       -0.3136
     23 C          -5.0569   -0.7882    1.6252 C.3     1  UNL1        0.0087
     24 C          -5.6693   -1.3468    0.3726 C.3     1  UNL1        0.0116
     25 N          -2.8544    0.3480   -1.6290 N.ar    1  UNL1       -0.2207
     26 C          -1.6623    0.5268   -1.0511 C.ar    1  UNL1        0.0392
     27 C           1.8724   -0.4269   -1.3355 C.ar    1  UNL1        0.0392
     28 N           3.0614   -0.2418   -0.7385 N.ar    1  UNL1       -0.2350
     29 C           3.2631    0.7555    0.1545 C.ar    1  UNL1        0.1632
     30 C           6.6492    0.8668   -0.0499 C.ar    1  UNL1       -0.0351
     31 C           7.8516    0.2360   -0.0758 C.ar    1  UNL1        0.0288
     32 N           8.0981   -0.7645    0.7754 N.ar    1  UNL1       -0.2549
     33 C           7.1547   -1.1493    1.6604 C.ar    1  UNL1        0.0715
     34 C           7.4030   -2.1918    2.5520 C.ar    1  UNL1       -0.0357
     35 H           6.5929   -3.3886    4.1635 H       1  UNL1        0.0618
     36 H           4.4591   -2.2736    4.2129 H       1  UNL1        0.0618
     37 H           4.0134   -0.4045    2.6153 H       1  UNL1        0.0624
     38 H           4.6089    2.7663    2.3046 H       1  UNL1        0.0855
     39 H           0.1908    2.0756    0.0862 H       1  UNL1        0.0837
     40 H           0.2611   -0.5868   -3.5361 H       1  UNL1        0.0626
     41 H          -1.9999   -0.8863   -4.5366 H       1  UNL1        0.0671
     42 H          -5.7756    0.9713   -3.0594 H       1  UNL1        0.0710
     43 H          -6.1568   -0.4401   -4.0332 H       1  UNL1        0.0710
     44 H          -7.1447   -0.7927   -1.8883 H       1  UNL1        0.0460
     45 H          -5.7877   -1.9533   -2.0899 H       1  UNL1        0.0460
     46 H          -5.8757    1.5957   -1.1523 H       1  UNL1        0.0439
     47 H          -6.7911    0.7770    0.1206 H       1  UNL1        0.0439
     48 H          -4.0580    2.0341    0.2402 H       1  UNL1        0.0437
     49 H          -5.3711    1.9664    1.5071 H       1  UNL1        0.0437
     50 H          -3.6913    0.5706    2.2285 H       1  UNL1        0.1220
     51 H          -5.8221   -0.3860    2.3280 H       1  UNL1        0.0437
     52 H          -4.5356   -1.5943    2.1642 H       1  UNL1        0.0437
     53 H          -5.3374   -2.3870    0.1634 H       1  UNL1        0.0439
     54 H          -6.7640   -1.4173    0.5329 H       1  UNL1        0.0439
     55 H          -1.6021    0.9271   -0.0692 H       1  UNL1        0.0837
     56 H           1.6926   -1.2178   -2.0516 H       1  UNL1        0.0837
     57 H           6.4446    1.6889   -0.7480 H       1  UNL1        0.0639
     58 H           8.6149    0.5379   -0.7831 H       1  UNL1        0.0830
     59 H           8.3550   -2.6808    2.5218 H       1  UNL1        0.0639
@<TRIPOS>BOND
     1     1     2   ar
     2     2     3   ar
     3     3     4   ar
     4     4     5   ar
     5     5     6    1
     6     6     7   ar
     7     7     8   ar
     8     8     9   ar
     9     9    10   ar
    10    10    11   ar
    11    11    12    1
    12    12    13   ar
    13    13    14   ar
    14    14    15   ar
    15    15    16    1
    16    16    17    1
    17    17    18    1
    18    18    19    1
    19    19    20    1
    20    20    21    1
    21    21    22    1
    22    22    23    1
    23    23    24    1
    24    15    25   ar
    25    25    26   ar
    26    11    27   ar
    27    27    28   ar
    28    28    29   ar
    29     5    30   ar
    30    30    31   ar
    31    31    32   ar
    32    32    33   ar
    33    33    34   ar
    34    34     1   ar
    35    33     4   ar
    36    29     6   ar
    37    29     9   ar
    38    26    12   ar
    39    24    19    1
    40     1    35    1
    41     2    36    1
    42     3    37    1
    43     7    38    1
    44    10    39    1
    45    13    40    1
    46    14    41    1
    47    17    42    1
    48    17    43    1
    49    18    44    1
    50    18    45    1
    51    20    46    1
    52    20    47    1
    53    21    48    1
    54    21    49    1
    55    22    50    1
    56    23    51    1
    57    23    52    1
    58    24    53    1
    59    24    54    1
    60    26    55    1
    61    27    56    1
    62    30    57    1
    63    31    58    1
    64    34    59    1
