
     RDKit          3D

 45 47  0  0  0  0  0  0  0  0999 V2000
    5.0131    2.4281    2.3580 C   0  0  0  0  0  0  0  0  0  0  0  0
    4.1168    2.1384    1.3248 O   0  0  0  0  0  0  0  0  0  0  0  0
    4.2541    1.0857    0.4450 C   0  0  0  0  0  0  0  0  0  0  0  0
    5.3351    0.2293    0.5503 C   0  0  0  0  0  0  0  0  0  0  0  0
    5.4160   -0.7989   -0.3540 C   0  0  0  0  0  0  0  0  0  0  0  0
    4.4664   -0.9972   -1.3455 C   0  0  0  0  0  0  0  0  0  0  0  0
    3.3948   -0.1391   -1.4410 C   0  0  0  0  0  0  0  0  0  0  0  0
    2.3949   -0.3450   -2.4889 C   0  0  0  0  0  0  0  0  0  0  0  0
    1.3304   -1.2229   -2.0747 N   0  0  0  0  0  0  0  0  0  0  0  0
    1.4174   -2.6743   -2.2508 C   0  0  0  0  0  0  0  0  0  0  0  0
    0.1715   -0.6586   -1.4824 C   0  0  0  0  0  0  0  0  0  0  0  0
    0.0532    0.5941   -1.3154 O   0  0  0  0  0  0  0  0  0  0  0  0
   -0.8786   -1.5214   -1.0684 N   0  0  0  0  0  0  0  0  0  0  0  0
   -2.0260   -0.9485   -0.4812 C   0  0  0  0  0  0  0  0  0  0  0  0
   -2.0691   -0.7724    0.8753 C   0  0  0  0  0  0  0  0  0  0  0  0
   -3.2000   -0.2110    1.4262 C   0  0  0  0  0  0  0  0  0  0  0  0
   -4.2984    0.1876    0.6941 C   0  0  0  0  0  0  0  0  0  0  0  0
   -5.4582    0.7745    1.3552 C   0  0  0  0  0  0  0  0  0  0  0  0
   -5.8785    0.4375    2.6448 C   0  0  0  0  0  0  0  0  0  0  0  0
   -6.9551    1.1768    2.8870 N   0  0  0  0  0  0  0  0  0  0  0  0
   -7.2469    1.9425    1.8726 N   0  0  0  0  0  0  0  0  0  0  0  0
   -6.3415    1.7164    0.9132 C   0  0  0  0  0  0  0  0  0  0  0  0
   -4.2274   -0.0019   -0.6720 C   0  0  0  0  0  0  0  0  0  0  0  0
   -3.0931   -0.5679   -1.2503 C   0  0  0  0  0  0  0  0  0  0  0  0
    3.2938    0.8971   -0.5464 C   0  0  0  0  0  0  0  0  0  0  0  0
    5.1370    1.5062    2.9781 H   0  0  0  0  0  0  0  0  0  0  0  0
    6.0360    2.6330    1.9478 H   0  0  0  0  0  0  0  0  0  0  0  0
    4.6601    3.2869    2.9346 H   0  0  0  0  0  0  0  0  0  0  0  0
    6.0538    0.4115    1.3314 H   0  0  0  0  0  0  0  0  0  0  0  0
    6.2480   -1.4821   -0.2958 H   0  0  0  0  0  0  0  0  0  0  0  0
    4.6064   -1.8329   -2.0176 H   0  0  0  0  0  0  0  0  0  0  0  0
    2.8319   -0.7993   -3.4211 H   0  0  0  0  0  0  0  0  0  0  0  0
    1.9184    0.6047   -2.8289 H   0  0  0  0  0  0  0  0  0  0  0  0
    1.2529   -3.2055   -1.2945 H   0  0  0  0  0  0  0  0  0  0  0  0
    0.6153   -2.9762   -2.9819 H   0  0  0  0  0  0  0  0  0  0  0  0
    2.4230   -2.9382   -2.6226 H   0  0  0  0  0  0  0  0  0  0  0  0
   -0.8373   -2.5535   -1.1794 H   0  0  0  0  0  0  0  0  0  0  0  0
   -1.2379   -1.0668    1.4936 H   0  0  0  0  0  0  0  0  0  0  0  0
   -3.2433   -0.0674    2.4983 H   0  0  0  0  0  0  0  0  0  0  0  0
   -5.3911   -0.2925    3.2906 H   0  0  0  0  0  0  0  0  0  0  0  0
   -8.0485    2.6073    1.8342 H   0  0  0  0  0  0  0  0  0  0  0  0
   -6.3078    2.2046   -0.0712 H   0  0  0  0  0  0  0  0  0  0  0  0
   -5.0856    0.3060   -1.2722 H   0  0  0  0  0  0  0  0  0  0  0  0
   -3.0980   -0.6921   -2.3453 H   0  0  0  0  0  0  0  0  0  0  0  0
    2.4819    1.5974   -0.5746 H   0  0  0  0  0  0  0  0  0  0  0  0
  1  2  1  0
  2  3  1  0
  3  4  2  0
  4  5  1  0
  5  6  2  0
  6  7  1  0
  7  8  1  0
  8  9  1  0
  9 10  1  0
  9 11  1  0
 11 12  2  0
 11 13  1  0
 13 14  1  0
 14 15  2  0
 15 16  1  0
 16 17  2  0
 17 18  1  0
 18 19  1  0
 19 20  2  0
 20 21  1  0
 21 22  1  0
 17 23  1  0
 23 24  2  0
  7 25  2  0
 25  3  1  0
 24 14  1  0
 22 18  2  0
  1 26  1  0
  1 27  1  0
  1 28  1  0
  4 29  1  0
  5 30  1  0
  6 31  1  0
  8 32  1  0
  8 33  1  0
 10 34  1  0
 10 35  1  0
 10 36  1  0
 13 37  1  0
 15 38  1  0
 16 39  1  0
 19 40  1  0
 21 41  1  0
 22 42  1  0
 23 43  1  0
 24 44  1  0
 25 45  1  0
M  END
$$$$
