@<TRIPOS>MOLECULE
*****
 45 47 0 0 0
SMALL
GASTEIGER

@<TRIPOS>ATOM
      1 C           5.0131    2.4281    2.3580 C.3     1  UNL1        0.0788
      2 O           4.1168    2.1384    1.3248 O.3     1  UNL1       -0.4951
      3 C           4.2541    1.0857    0.4450 C.ar    1  UNL1        0.1204
      4 C           5.3351    0.2293    0.5503 C.ar    1  UNL1       -0.0199
      5 C           5.4160   -0.7989   -0.3540 C.ar    1  UNL1       -0.0580
      6 C           4.4664   -0.9972   -1.3455 C.ar    1  UNL1       -0.0568
      7 C           3.3948   -0.1391   -1.4410 C.ar    1  UNL1       -0.0266
      8 C           2.3949   -0.3450   -2.4889 C.3     1  UNL1        0.0410
      9 N           1.3304   -1.2229   -2.0747 N.am    1  UNL1       -0.2841
     10 C           1.4174   -2.6743   -2.2508 C.3     1  UNL1        0.0050
     11 C           0.1715   -0.6586   -1.4824 C.2     1  UNL1        0.3065
     12 O           0.0532    0.5941   -1.3154 O.2     1  UNL1       -0.2523
     13 N          -0.8786   -1.5214   -1.0684 N.am    1  UNL1       -0.2693
     14 C          -2.0260   -0.9485   -0.4812 C.ar    1  UNL1        0.0348
     15 C          -2.0691   -0.7724    0.8753 C.ar    1  UNL1       -0.0399
     16 C          -3.2000   -0.2110    1.4262 C.ar    1  UNL1       -0.0522
     17 C          -4.2984    0.1876    0.6941 C.ar    1  UNL1       -0.0148
     18 C          -5.4582    0.7745    1.3552 C.ar    1  UNL1        0.0193
     19 C          -5.8785    0.4375    2.6448 C.ar    1  UNL1        0.0568
     20 N          -6.9551    1.1768    2.8870 N.ar    1  UNL1       -0.1817
     21 N          -7.2469    1.9425    1.8726 N.ar    1  UNL1       -0.2841
     22 C          -6.3415    1.7164    0.9132 C.ar    1  UNL1        0.0300
     23 C          -4.2274   -0.0019   -0.6720 C.ar    1  UNL1       -0.0522
     24 C          -3.0931   -0.5679   -1.2503 C.ar    1  UNL1       -0.0399
     25 C           3.2938    0.8971   -0.5464 C.ar    1  UNL1       -0.0153
     26 H           5.1370    1.5062    2.9781 H       1  UNL1        0.0660
     27 H           6.0360    2.6330    1.9478 H       1  UNL1        0.0660
     28 H           4.6601    3.2869    2.9346 H       1  UNL1        0.0660
     29 H           6.0538    0.4115    1.3314 H       1  UNL1        0.0654
     30 H           6.2480   -1.4821   -0.2958 H       1  UNL1        0.0619
     31 H           4.6064   -1.8329   -2.0176 H       1  UNL1        0.0621
     32 H           2.8319   -0.7993   -3.4211 H       1  UNL1        0.0514
     33 H           1.9184    0.6047   -2.8289 H       1  UNL1        0.0514
     34 H           1.2529   -3.2055   -1.2945 H       1  UNL1        0.0429
     35 H           0.6153   -2.9762   -2.9819 H       1  UNL1        0.0429
     36 H           2.4230   -2.9382   -2.6226 H       1  UNL1        0.0429
     37 H          -0.8373   -2.5535   -1.1794 H       1  UNL1        0.1564
     38 H          -1.2379   -1.0668    1.4936 H       1  UNL1        0.0636
     39 H          -3.2433   -0.0674    2.4983 H       1  UNL1        0.0624
     40 H          -5.3911   -0.2925    3.2906 H       1  UNL1        0.0854
     41 H          -8.0485    2.6073    1.8342 H       1  UNL1        0.1882
     42 H          -6.3078    2.2046   -0.0712 H       1  UNL1        0.0830
     43 H          -5.0856    0.3060   -1.2722 H       1  UNL1        0.0624
     44 H          -3.0980   -0.6921   -2.3453 H       1  UNL1        0.0636
     45 H           2.4819    1.5974   -0.5746 H       1  UNL1        0.0657
@<TRIPOS>BOND
     1     1     2    1
     2     2     3    1
     3     3     4   ar
     4     4     5   ar
     5     5     6   ar
     6     6     7   ar
     7     7     8    1
     8     8     9    1
     9     9    10    1
    10     9    11   am
    11    11    12    2
    12    11    13   am
    13    13    14    1
    14    14    15   ar
    15    15    16   ar
    16    16    17   ar
    17    17    18    1
    18    18    19   ar
    19    19    20   ar
    20    20    21   ar
    21    21    22   ar
    22    17    23   ar
    23    23    24   ar
    24     7    25   ar
    25    25     3   ar
    26    24    14   ar
    27    22    18   ar
    28     1    26    1
    29     1    27    1
    30     1    28    1
    31     4    29    1
    32     5    30    1
    33     6    31    1
    34     8    32    1
    35     8    33    1
    36    10    34    1
    37    10    35    1
    38    10    36    1
    39    13    37    1
    40    15    38    1
    41    16    39    1
    42    19    40    1
    43    21    41    1
    44    22    42    1
    45    23    43    1
    46    24    44    1
    47    25    45    1
