@<TRIPOS>MOLECULE
*****
 66 70 0 0 0
SMALL
GASTEIGER

@<TRIPOS>ATOM
      1 C          -5.0939    1.9292    1.4689 C.3     1  UNL1       -0.0220
      2 C          -3.8572    2.2534    2.2043 C.ar    1  UNL1        0.0471
      3 C          -2.6014    1.7934    1.8706 C.ar    1  UNL1        0.0643
      4 C          -2.1130    0.9684    0.8563 C.ar    1  UNL1        0.1324
      5 O          -3.0372    0.4830   -0.0260 O.3     1  UNL1       -0.4880
      6 C          -2.8493   -0.3486   -1.1226 C.3     1  UNL1        0.1021
      7 C          -3.2685    0.3874   -2.3722 C.3     1  UNL1       -0.0275
      8 C          -3.5843   -1.6706   -0.9888 C.3     1  UNL1        0.0195
      9 C          -5.0622   -1.5135   -0.8494 C.3     1  UNL1        0.0182
     10 N          -5.6606   -2.6018   -1.6350 N.am    1  UNL1       -0.3149
     11 C          -4.6769   -3.1639   -2.4822 C.2     1  UNL1        0.2135
     12 O          -4.8759   -4.1022   -3.2784 O.2     1  UNL1       -0.2758
     13 C          -3.4080   -2.4572   -2.2583 C.3     1  UNL1        0.0315
     14 C          -0.7781    0.7211    0.8321 C.ar    1  UNL1       -0.0113
     15 C           0.1154    1.2414    1.7549 C.ar    1  UNL1       -0.0094
     16 C           1.5509    0.9397    1.6813 C.ar    1  UNL1        0.0198
     17 C           2.4628    0.8391    2.7175 C.ar    1  UNL1        0.0571
     18 N           3.6369    0.5501    2.1586 N.ar    1  UNL1       -0.1788
     19 N           3.5522    0.4569    0.8440 N.ar    1  UNL1       -0.2676
     20 C           4.6688    0.1537   -0.0267 C.3     1  UNL1        0.0573
     21 C           4.6551    0.9041   -1.3160 C.3     1  UNL1       -0.0068
     22 C           5.3446    0.0945   -2.3859 C.3     1  UNL1        0.0503
     23 O           6.4131   -0.6379   -1.8825 O.3     1  UNL1       -0.3738
     24 C           5.9915   -1.6905   -1.0746 C.3     1  UNL1        0.0659
     25 C           5.6491   -2.8530   -1.9822 C.3     1  UNL1       -0.0360
     26 C           7.1132   -2.1071   -0.1764 C.3     1  UNL1       -0.0360
     27 C           4.7366   -1.3319   -0.3031 C.3     1  UNL1       -0.0017
     28 C           2.2633    0.6966    0.5368 C.ar    1  UNL1        0.0335
     29 C          -0.4052    2.0508    2.7403 C.ar    1  UNL1       -0.0259
     30 C          -1.7528    2.3295    2.8044 C.ar    1  UNL1        0.0971
     31 N          -2.5127    3.0818    3.6551 N.ar    1  UNL1       -0.1711
     32 N          -3.7839    3.0380    3.2957 N.ar    1  UNL1       -0.2704
     33 C          -4.9123    3.7039    3.9415 C.3     1  UNL1        0.0305
     34 H          -5.8715    2.7135    1.5734 H       1  UNL1        0.0293
     35 H          -4.9623    1.7274    0.4089 H       1  UNL1        0.0293
     36 H          -5.5352    1.0132    1.9357 H       1  UNL1        0.0293
     37 H          -1.7746   -0.5952   -1.2157 H       1  UNL1        0.0733
     38 H          -3.1710    1.4975   -2.2335 H       1  UNL1        0.0265
     39 H          -2.5514    0.1311   -3.1759 H       1  UNL1        0.0265
     40 H          -4.2672    0.1048   -2.7317 H       1  UNL1        0.0265
     41 H          -3.2164   -2.2434   -0.1196 H       1  UNL1        0.0356
     42 H          -5.4700   -0.5697   -1.2229 H       1  UNL1        0.0466
     43 H          -5.4126   -1.7104    0.2036 H       1  UNL1        0.0466
     44 H          -6.6481   -2.9289   -1.5949 H       1  UNL1        0.1487
     45 H          -3.2188   -1.7902   -3.0990 H       1  UNL1        0.0363
     46 H          -2.6120   -3.2294   -2.1581 H       1  UNL1        0.0363
     47 H          -0.3746    0.0841    0.0555 H       1  UNL1        0.0660
     48 H           2.1936    0.9821    3.7572 H       1  UNL1        0.0854
     49 H           5.6252    0.4120    0.4956 H       1  UNL1        0.0546
     50 H           5.1922    1.8776   -1.1899 H       1  UNL1        0.0308
     51 H           3.6296    1.1383   -1.6731 H       1  UNL1        0.0308
     52 H           4.5737   -0.5672   -2.8486 H       1  UNL1        0.0561
     53 H           5.7214    0.7738   -3.1753 H       1  UNL1        0.0561
     54 H           4.6286   -2.7889   -2.3881 H       1  UNL1        0.0257
     55 H           5.8138   -3.7909   -1.3856 H       1  UNL1        0.0257
     56 H           6.4345   -2.8816   -2.7858 H       1  UNL1        0.0257
     57 H           7.1028   -3.1881    0.0758 H       1  UNL1        0.0257
     58 H           8.1206   -1.8530   -0.5634 H       1  UNL1        0.0257
     59 H           7.0394   -1.5781    0.8128 H       1  UNL1        0.0257
     60 H           4.7691   -1.9102    0.6432 H       1  UNL1        0.0313
     61 H           3.8729   -1.6153   -0.9049 H       1  UNL1        0.0313
     62 H           1.8866    0.6890   -0.4762 H       1  UNL1        0.0832
     63 H           0.2674    2.4775    3.4830 H       1  UNL1        0.0646
     64 H          -5.0679    4.7063    3.5301 H       1  UNL1        0.0473
     65 H          -5.8502    3.1192    3.7296 H       1  UNL1        0.0473
     66 H          -4.7877    3.6758    5.0358 H       1  UNL1        0.0473
@<TRIPOS>BOND
     1     1     2    1
     2     2     3   ar
     3     3     4   ar
     4     4     5    1
     5     5     6    1
     6     6     7    1
     7     6     8    1
     8     8     9    1
     9     9    10    1
    10    10    11   am
    11    11    12    2
    12    11    13    1
    13     4    14   ar
    14    14    15   ar
    15    15    16    1
    16    16    17   ar
    17    17    18   ar
    18    18    19   ar
    19    19    20    1
    20    20    21    1
    21    21    22    1
    22    22    23    1
    23    23    24    1
    24    24    25    1
    25    24    26    1
    26    24    27    1
    27    19    28   ar
    28    15    29   ar
    29    29    30   ar
    30    30    31   ar
    31    31    32   ar
    32    32    33    1
    33    32     2   ar
    34    30     3   ar
    35    13     8    1
    36    28    16   ar
    37    27    20    1
    38     1    34    1
    39     1    35    1
    40     1    36    1
    41     6    37    1
    42     7    38    1
    43     7    39    1
    44     7    40    1
    45     8    41    1
    46     9    42    1
    47     9    43    1
    48    10    44    1
    49    13    45    1
    50    13    46    1
    51    14    47    1
    52    17    48    1
    53    20    49    1
    54    21    50    1
    55    21    51    1
    56    22    52    1
    57    22    53    1
    58    25    54    1
    59    25    55    1
    60    25    56    1
    61    26    57    1
    62    26    58    1
    63    26    59    1
    64    27    60    1
    65    27    61    1
    66    28    62    1
    67    29    63    1
    68    33    64    1
    69    33    65    1
    70    33    66    1
