
     RDKit          3D

 66 70  0  0  0  0  0  0  0  0999 V2000
   -5.0939    1.9292    1.4689 C   0  0  0  0  0  0  0  0  0  0  0  0
   -3.8572    2.2534    2.2043 C   0  0  0  0  0  0  0  0  0  0  0  0
   -2.6014    1.7934    1.8706 C   0  0  0  0  0  0  0  0  0  0  0  0
   -2.1130    0.9684    0.8563 C   0  0  0  0  0  0  0  0  0  0  0  0
   -3.0372    0.4830   -0.0260 O   0  0  0  0  0  0  0  0  0  0  0  0
   -2.8493   -0.3486   -1.1226 C   0  0  2  0  0  0  0  0  0  0  0  0
   -3.2685    0.3874   -2.3722 C   0  0  0  0  0  0  0  0  0  0  0  0
   -3.5843   -1.6706   -0.9888 C   0  0  1  0  0  0  0  0  0  0  0  0
   -5.0622   -1.5135   -0.8494 C   0  0  0  0  0  0  0  0  0  0  0  0
   -5.6606   -2.6018   -1.6350 N   0  0  0  0  0  0  0  0  0  0  0  0
   -4.6769   -3.1639   -2.4822 C   0  0  0  0  0  0  0  0  0  0  0  0
   -4.8759   -4.1022   -3.2784 O   0  0  0  0  0  0  0  0  0  0  0  0
   -3.4080   -2.4572   -2.2583 C   0  0  0  0  0  0  0  0  0  0  0  0
   -0.7781    0.7211    0.8321 C   0  0  0  0  0  0  0  0  0  0  0  0
    0.1154    1.2414    1.7549 C   0  0  0  0  0  0  0  0  0  0  0  0
    1.5509    0.9397    1.6813 C   0  0  0  0  0  0  0  0  0  0  0  0
    2.4628    0.8391    2.7175 C   0  0  0  0  0  0  0  0  0  0  0  0
    3.6369    0.5501    2.1586 N   0  0  0  0  0  0  0  0  0  0  0  0
    3.5522    0.4569    0.8440 N   0  0  0  0  0  0  0  0  0  0  0  0
    4.6688    0.1537   -0.0267 C   0  0  2  0  0  0  0  0  0  0  0  0
    4.6551    0.9041   -1.3160 C   0  0  0  0  0  0  0  0  0  0  0  0
    5.3446    0.0945   -2.3859 C   0  0  0  0  0  0  0  0  0  0  0  0
    6.4131   -0.6379   -1.8825 O   0  0  0  0  0  0  0  0  0  0  0  0
    5.9915   -1.6905   -1.0746 C   0  0  0  0  0  0  0  0  0  0  0  0
    5.6491   -2.8530   -1.9822 C   0  0  0  0  0  0  0  0  0  0  0  0
    7.1132   -2.1071   -0.1764 C   0  0  0  0  0  0  0  0  0  0  0  0
    4.7366   -1.3319   -0.3031 C   0  0  0  0  0  0  0  0  0  0  0  0
    2.2633    0.6966    0.5368 C   0  0  0  0  0  0  0  0  0  0  0  0
   -0.4052    2.0508    2.7403 C   0  0  0  0  0  0  0  0  0  0  0  0
   -1.7528    2.3295    2.8044 C   0  0  0  0  0  0  0  0  0  0  0  0
   -2.5127    3.0818    3.6551 N   0  0  0  0  0  0  0  0  0  0  0  0
   -3.7839    3.0380    3.2957 N   0  0  0  0  0  0  0  0  0  0  0  0
   -4.9123    3.7039    3.9415 C   0  0  0  0  0  0  0  0  0  0  0  0
   -5.8715    2.7135    1.5734 H   0  0  0  0  0  0  0  0  0  0  0  0
   -4.9623    1.7274    0.4089 H   0  0  0  0  0  0  0  0  0  0  0  0
   -5.5352    1.0132    1.9357 H   0  0  0  0  0  0  0  0  0  0  0  0
   -1.7746   -0.5952   -1.2157 H   0  0  0  0  0  0  0  0  0  0  0  0
   -3.1710    1.4975   -2.2335 H   0  0  0  0  0  0  0  0  0  0  0  0
   -2.5514    0.1311   -3.1759 H   0  0  0  0  0  0  0  0  0  0  0  0
   -4.2672    0.1048   -2.7317 H   0  0  0  0  0  0  0  0  0  0  0  0
   -3.2164   -2.2434   -0.1196 H   0  0  0  0  0  0  0  0  0  0  0  0
   -5.4700   -0.5697   -1.2229 H   0  0  0  0  0  0  0  0  0  0  0  0
   -5.4126   -1.7104    0.2036 H   0  0  0  0  0  0  0  0  0  0  0  0
   -6.6481   -2.9289   -1.5949 H   0  0  0  0  0  0  0  0  0  0  0  0
   -3.2188   -1.7902   -3.0990 H   0  0  0  0  0  0  0  0  0  0  0  0
   -2.6120   -3.2294   -2.1581 H   0  0  0  0  0  0  0  0  0  0  0  0
   -0.3746    0.0841    0.0555 H   0  0  0  0  0  0  0  0  0  0  0  0
    2.1936    0.9821    3.7572 H   0  0  0  0  0  0  0  0  0  0  0  0
    5.6252    0.4120    0.4956 H   0  0  0  0  0  0  0  0  0  0  0  0
    5.1922    1.8776   -1.1899 H   0  0  0  0  0  0  0  0  0  0  0  0
    3.6296    1.1383   -1.6731 H   0  0  0  0  0  0  0  0  0  0  0  0
    4.5737   -0.5672   -2.8486 H   0  0  0  0  0  0  0  0  0  0  0  0
    5.7214    0.7738   -3.1753 H   0  0  0  0  0  0  0  0  0  0  0  0
    4.6286   -2.7889   -2.3881 H   0  0  0  0  0  0  0  0  0  0  0  0
    5.8138   -3.7909   -1.3856 H   0  0  0  0  0  0  0  0  0  0  0  0
    6.4345   -2.8816   -2.7858 H   0  0  0  0  0  0  0  0  0  0  0  0
    7.1028   -3.1881    0.0758 H   0  0  0  0  0  0  0  0  0  0  0  0
    8.1206   -1.8530   -0.5634 H   0  0  0  0  0  0  0  0  0  0  0  0
    7.0394   -1.5781    0.8128 H   0  0  0  0  0  0  0  0  0  0  0  0
    4.7691   -1.9102    0.6432 H   0  0  0  0  0  0  0  0  0  0  0  0
    3.8729   -1.6153   -0.9049 H   0  0  0  0  0  0  0  0  0  0  0  0
    1.8866    0.6890   -0.4762 H   0  0  0  0  0  0  0  0  0  0  0  0
    0.2674    2.4775    3.4830 H   0  0  0  0  0  0  0  0  0  0  0  0
   -5.0679    4.7063    3.5301 H   0  0  0  0  0  0  0  0  0  0  0  0
   -5.8502    3.1192    3.7296 H   0  0  0  0  0  0  0  0  0  0  0  0
   -4.7877    3.6758    5.0358 H   0  0  0  0  0  0  0  0  0  0  0  0
  1  2  1  0
  2  3  2  0
  3  4  1  0
  4  5  1  0
  5  6  1  0
  6  7  1  0
  6  8  1  0
  8  9  1  0
  9 10  1  0
 10 11  1  0
 11 12  2  0
 11 13  1  0
  4 14  2  0
 14 15  1  0
 15 16  1  0
 16 17  1  0
 17 18  2  0
 18 19  1  0
 19 20  1  0
 20 21  1  0
 21 22  1  0
 22 23  1  0
 23 24  1  0
 24 25  1  0
 24 26  1  0
 24 27  1  0
 19 28  1  0
 15 29  2  0
 29 30  1  0
 30 31  2  0
 31 32  1  0
 32 33  1  0
 32  2  1  0
 30  3  1  0
 13  8  1  0
 28 16  2  0
 27 20  1  0
  1 34  1  0
  1 35  1  0
  1 36  1  0
  6 37  1  6
  7 38  1  0
  7 39  1  0
  7 40  1  0
  8 41  1  1
  9 42  1  0
  9 43  1  0
 10 44  1  0
 13 45  1  0
 13 46  1  0
 14 47  1  0
 17 48  1  0
 20 49  1  1
 21 50  1  0
 21 51  1  0
 22 52  1  0
 22 53  1  0
 25 54  1  0
 25 55  1  0
 25 56  1  0
 26 57  1  0
 26 58  1  0
 26 59  1  0
 27 60  1  0
 27 61  1  0
 28 62  1  0
 29 63  1  0
 33 64  1  0
 33 65  1  0
 33 66  1  0
M  END
$$$$
