@<TRIPOS>MOLECULE
*****
 54 56 0 0 0
SMALL
GASTEIGER

@<TRIPOS>ATOM
      1 C          -5.8935    2.7552   -2.1230 C.3     1  UNL1        0.0003
      2 N          -5.6976    1.3741   -2.5532 N.pl3   1  UNL1       -0.3164
      3 C          -5.0423    0.4315   -1.7227 C.ar    1  UNL1        0.2208
      4 N          -5.7560   -0.3133   -0.8667 N.ar    1  UNL1       -0.1811
      5 C          -5.1826   -1.2271   -0.0518 C.ar    1  UNL1        0.2208
      6 N          -6.0300   -1.9609    0.8158 N.pl3   1  UNL1       -0.3164
      7 C          -6.2688   -1.3764    2.1357 C.3     1  UNL1        0.0003
      8 N          -3.8532   -1.3772   -0.1187 N.ar    1  UNL1       -0.1809
      9 C          -3.0847   -0.6584   -0.9577 C.ar    1  UNL1        0.2237
     10 N          -1.6811   -0.8060   -1.0395 N.pl3   1  UNL1       -0.2994
     11 C          -1.0235   -1.8049   -0.1934 C.3     1  UNL1        0.0156
     12 C           0.3783   -1.2822    0.1710 C.3     1  UNL1       -0.0260
     13 C           0.2183    0.2289    0.2116 C.3     1  UNL1        0.0384
     14 C           1.2849    0.8647    1.0196 C.2     1  UNL1        0.2165
     15 O           0.9915    1.5201    2.0471 O.2     1  UNL1       -0.2755
     16 N           2.6628    0.7717    0.6859 N.am    1  UNL1       -0.3110
     17 C           3.7068    1.3909    1.4727 C.3     1  UNL1        0.0374
     18 C           5.0468    1.1584    0.9441 C.ar    1  UNL1       -0.0187
     19 C           5.7089    2.1539    0.2116 C.ar    1  UNL1       -0.0565
     20 C           6.9672    1.9711   -0.3144 C.ar    1  UNL1       -0.0614
     21 C           7.6194    0.7733   -0.1263 C.ar    1  UNL1       -0.0612
     22 C           6.9690   -0.2025    0.5928 C.ar    1  UNL1       -0.0498
     23 C           5.6914   -0.0360    1.1350 C.ar    1  UNL1        0.0595
     24 C           5.0492   -1.1104    1.9059 C.3     1  UNL1        0.4177
     25 F           4.7554   -0.7410    3.2051 F       1  UNL1       -0.1659
     26 F           5.9966   -2.1429    2.0538 F       1  UNL1       -0.1659
     27 F           3.9894   -1.7204    1.2683 F       1  UNL1       -0.1659
     28 C           0.1519    0.7438   -1.1823 C.3     1  UNL1       -0.0260
     29 C          -0.9246    0.0235   -1.9461 C.3     1  UNL1        0.0156
     30 N          -3.7172    0.2419   -1.7495 N.ar    1  UNL1       -0.1809
     31 H          -6.6950    3.2080   -2.7148 H       1  UNL1        0.0426
     32 H          -4.9119    3.2738   -2.2532 H       1  UNL1        0.0426
     33 H          -6.2042    2.7907   -1.0518 H       1  UNL1        0.0426
     34 H          -6.0557    1.0874   -3.5018 H       1  UNL1        0.1486
     35 H          -6.4794   -2.8541    0.5913 H       1  UNL1        0.1486
     36 H          -7.1059   -1.8793    2.6310 H       1  UNL1        0.0426
     37 H          -6.5201   -0.3008    2.0657 H       1  UNL1        0.0426
     38 H          -5.3421   -1.4605    2.7599 H       1  UNL1        0.0426
     39 H          -1.5855   -1.8440    0.7590 H       1  UNL1        0.0465
     40 H          -0.9922   -2.7965   -0.6475 H       1  UNL1        0.0465
     41 H           1.0665   -1.5156   -0.6585 H       1  UNL1        0.0288
     42 H           0.7089   -1.6187    1.1521 H       1  UNL1        0.0288
     43 H          -0.7543    0.4284    0.7010 H       1  UNL1        0.0395
     44 H           2.8939    0.2307   -0.1746 H       1  UNL1        0.1490
     45 H           3.5447    1.0628    2.5208 H       1  UNL1        0.0512
     46 H           3.5585    2.5123    1.5249 H       1  UNL1        0.0512
     47 H           5.1777    3.1068    0.0683 H       1  UNL1        0.0621
     48 H           7.4770    2.7356   -0.8773 H       1  UNL1        0.0618
     49 H           8.6242    0.5902   -0.5310 H       1  UNL1        0.0618
     50 H           7.4618   -1.1702    0.7608 H       1  UNL1        0.0623
     51 H           0.0411    1.8486   -1.2428 H       1  UNL1        0.0288
     52 H           1.1487    0.5029   -1.6611 H       1  UNL1        0.0288
     53 H          -0.4964   -0.6233   -2.7417 H       1  UNL1        0.0465
     54 H          -1.5929    0.8004   -2.4092 H       1  UNL1        0.0465
@<TRIPOS>BOND
     1     1     2    1
     2     2     3    1
     3     3     4   ar
     4     4     5   ar
     5     5     6    1
     6     6     7    1
     7     5     8   ar
     8     8     9   ar
     9     9    10    1
    10    10    11    1
    11    11    12    1
    12    12    13    1
    13    13    14    1
    14    14    15    2
    15    14    16   am
    16    16    17    1
    17    17    18    1
    18    18    19   ar
    19    19    20   ar
    20    20    21   ar
    21    21    22   ar
    22    22    23   ar
    23    23    24    1
    24    24    25    1
    25    24    26    1
    26    24    27    1
    27    13    28    1
    28    28    29    1
    29     9    30   ar
    30    30     3   ar
    31    29    10    1
    32    23    18   ar
    33     1    31    1
    34     1    32    1
    35     1    33    1
    36     2    34    1
    37     6    35    1
    38     7    36    1
    39     7    37    1
    40     7    38    1
    41    11    39    1
    42    11    40    1
    43    12    41    1
    44    12    42    1
    45    13    43    1
    46    16    44    1
    47    17    45    1
    48    17    46    1
    49    19    47    1
    50    20    48    1
    51    21    49    1
    52    22    50    1
    53    28    51    1
    54    28    52    1
    55    29    53    1
    56    29    54    1
