@<TRIPOS>MOLECULE
*****
 27 29 0 0 0
SMALL
GASTEIGER

@<TRIPOS>ATOM
      1 O          -2.7993    2.0288   -1.6971 O.2     1  UNL1       -0.2701
      2 C          -2.7125    1.0220   -0.9789 C.2     1  UNL1        0.2458
      3 N          -3.8674    0.3137   -0.5468 N.am    1  UNL1       -0.3109
      4 C          -3.7558   -0.4386    0.6763 C.3     1  UNL1        0.0172
      5 C          -2.5679   -1.3589    0.6832 C.3     1  UNL1        0.0038
      6 C          -1.3541   -0.5969    0.2466 C.ar    1  UNL1        0.0301
      7 N          -0.0297   -0.8272    0.5044 N.ar    1  UNL1       -0.3573
      8 C           0.7027    0.1096   -0.1046 C.ar    1  UNL1        0.0475
      9 C           2.1774    0.1835   -0.0511 C.ar    1  UNL1        0.0012
     10 C           2.8609    1.1848   -0.7092 C.ar    1  UNL1       -0.0345
     11 C           4.2455    1.2231   -0.6370 C.ar    1  UNL1        0.0282
     12 N           4.9324    0.3098    0.0571 N.ar    1  UNL1       -0.2632
     13 C           4.2800   -0.6708    0.7027 C.ar    1  UNL1        0.0282
     14 C           2.9081   -0.7453    0.6570 C.ar    1  UNL1       -0.0345
     15 C          -0.1048    0.9898   -0.7840 C.ar    1  UNL1       -0.0240
     16 C          -1.3892    0.5240   -0.5469 C.ar    1  UNL1        0.0578
     17 H          -4.7632    0.3208   -1.0672 H       1  UNL1        0.1490
     18 H          -4.6586   -1.0828    0.8490 H       1  UNL1        0.0466
     19 H          -3.6602    0.2328    1.5754 H       1  UNL1        0.0466
     20 H          -2.3893   -1.7208    1.7130 H       1  UNL1        0.0343
     21 H          -2.7851   -2.1968   -0.0256 H       1  UNL1        0.0343
     22 H           0.3125   -1.6360    1.1002 H       1  UNL1        0.1656
     23 H           2.2841    1.9061   -1.2598 H       1  UNL1        0.0639
     24 H           4.7261    2.0254   -1.1690 H       1  UNL1        0.0830
     25 H           4.8442   -1.4112    1.2659 H       1  UNL1        0.0830
     26 H           2.4076   -1.5452    1.1860 H       1  UNL1        0.0639
     27 H           0.1554    1.8564   -1.3774 H       1  UNL1        0.0646
@<TRIPOS>BOND
     1     1     2    2
     2     2     3   am
     3     3     4    1
     4     4     5    1
     5     5     6    1
     6     6     7   ar
     7     7     8   ar
     8     8     9    1
     9     9    10   ar
    10    10    11   ar
    11    11    12   ar
    12    12    13   ar
    13    13    14   ar
    14     8    15   ar
    15    15    16   ar
    16    16     2    1
    17    16     6   ar
    18    14     9   ar
    19     3    17    1
    20     4    18    1
    21     4    19    1
    22     5    20    1
    23     5    21    1
    24     7    22    1
    25    10    23    1
    26    11    24    1
    27    13    25    1
    28    14    26    1
    29    15    27    1
