
     RDKit          3D

 27 29  0  0  0  0  0  0  0  0999 V2000
   -2.7993    2.0288   -1.6971 O   0  0  0  0  0  0  0  0  0  0  0  0
   -2.7125    1.0220   -0.9789 C   0  0  0  0  0  0  0  0  0  0  0  0
   -3.8674    0.3137   -0.5468 N   0  0  0  0  0  0  0  0  0  0  0  0
   -3.7558   -0.4386    0.6763 C   0  0  0  0  0  0  0  0  0  0  0  0
   -2.5679   -1.3589    0.6832 C   0  0  0  0  0  0  0  0  0  0  0  0
   -1.3541   -0.5969    0.2466 C   0  0  0  0  0  0  0  0  0  0  0  0
   -0.0297   -0.8272    0.5044 N   0  0  0  0  0  0  0  0  0  0  0  0
    0.7027    0.1096   -0.1046 C   0  0  0  0  0  0  0  0  0  0  0  0
    2.1774    0.1835   -0.0511 C   0  0  0  0  0  0  0  0  0  0  0  0
    2.8609    1.1848   -0.7092 C   0  0  0  0  0  0  0  0  0  0  0  0
    4.2455    1.2231   -0.6370 C   0  0  0  0  0  0  0  0  0  0  0  0
    4.9324    0.3098    0.0571 N   0  0  0  0  0  0  0  0  0  0  0  0
    4.2800   -0.6708    0.7027 C   0  0  0  0  0  0  0  0  0  0  0  0
    2.9081   -0.7453    0.6570 C   0  0  0  0  0  0  0  0  0  0  0  0
   -0.1048    0.9898   -0.7840 C   0  0  0  0  0  0  0  0  0  0  0  0
   -1.3892    0.5240   -0.5469 C   0  0  0  0  0  0  0  0  0  0  0  0
   -4.7632    0.3208   -1.0672 H   0  0  0  0  0  0  0  0  0  0  0  0
   -4.6586   -1.0828    0.8490 H   0  0  0  0  0  0  0  0  0  0  0  0
   -3.6602    0.2328    1.5754 H   0  0  0  0  0  0  0  0  0  0  0  0
   -2.3893   -1.7208    1.7130 H   0  0  0  0  0  0  0  0  0  0  0  0
   -2.7851   -2.1968   -0.0256 H   0  0  0  0  0  0  0  0  0  0  0  0
    0.3125   -1.6360    1.1002 H   0  0  0  0  0  0  0  0  0  0  0  0
    2.2841    1.9061   -1.2598 H   0  0  0  0  0  0  0  0  0  0  0  0
    4.7261    2.0254   -1.1690 H   0  0  0  0  0  0  0  0  0  0  0  0
    4.8442   -1.4112    1.2659 H   0  0  0  0  0  0  0  0  0  0  0  0
    2.4076   -1.5452    1.1860 H   0  0  0  0  0  0  0  0  0  0  0  0
    0.1554    1.8564   -1.3774 H   0  0  0  0  0  0  0  0  0  0  0  0
  1  2  2  0
  2  3  1  0
  3  4  1  0
  4  5  1  0
  5  6  1  0
  6  7  1  0
  7  8  1  0
  8  9  1  0
  9 10  2  0
 10 11  1  0
 11 12  2  0
 12 13  1  0
 13 14  2  0
  8 15  2  0
 15 16  1  0
 16  2  1  0
 16  6  2  0
 14  9  1  0
  3 17  1  0
  4 18  1  0
  4 19  1  0
  5 20  1  0
  5 21  1  0
  7 22  1  0
 10 23  1  0
 11 24  1  0
 13 25  1  0
 14 26  1  0
 15 27  1  0
M  END
$$$$
