
     RDKit          3D

 55 57  0  0  0  0  0  0  0  0999 V2000
   -0.1066   -3.1872    0.6700 C   0  0  0  0  0  0  0  0  0  0  0  0
   -1.3638   -2.7553    1.3894 C   0  0  0  0  0  0  0  0  0  0  0  0
   -2.4181   -3.7991    1.0312 C   0  0  0  0  0  0  0  0  0  0  0  0
   -1.8087   -1.4451    0.8564 C   0  0  0  0  0  0  0  0  0  0  0  0
   -2.7806   -1.4072   -0.1235 C   0  0  0  0  0  0  0  0  0  0  0  0
   -3.2579   -0.2723   -0.6512 N   0  0  0  0  0  0  0  0  0  0  0  0
   -2.7952    0.9459   -0.2361 C   0  0  0  0  0  0  0  0  0  0  0  0
   -3.3352    2.1643   -0.8296 C   0  0  0  0  0  0  0  0  0  0  0  0
   -2.9321    3.4195   -0.4753 C   0  0  0  0  0  0  0  0  0  0  0  0
   -3.4529    4.5728   -1.0465 C   0  0  0  0  0  0  0  0  0  0  0  0
   -2.8723    6.1492   -0.5265 Cl  0  0  0  0  0  0  0  0  0  0  0  0
   -4.4153    4.4260   -2.0091 C   0  0  0  0  0  0  0  0  0  0  0  0
   -4.8516    3.1768   -2.3971 C   0  0  0  0  0  0  0  0  0  0  0  0
   -4.3090    2.0502   -1.8050 C   0  0  0  0  0  0  0  0  0  0  0  0
   -4.7745    0.8310   -2.2236 F   0  0  0  0  0  0  0  0  0  0  0  0
   -1.8326    0.9080    0.7337 C   0  0  0  0  0  0  0  0  0  0  0  0
   -1.3006   -0.2393    1.3164 C   0  0  0  0  0  0  0  0  0  0  0  0
   -0.3004   -0.1462    2.3082 N   0  0  0  0  0  0  0  0  0  0  0  0
    0.9661   -0.7012    2.4205 C   0  0  0  0  0  0  0  0  0  0  0  0
    1.1238   -1.5517    3.5401 C   0  0  0  0  0  0  0  0  0  0  0  0
    2.2899   -2.1978    3.8109 C   0  0  0  0  0  0  0  0  0  0  0  0
    3.3089   -1.9992    2.9646 N   0  0  0  0  0  0  0  0  0  0  0  0
    3.2122   -1.2069    1.8958 C   0  0  0  0  0  0  0  0  0  0  0  0
    2.0227   -0.5236    1.5871 C   0  0  0  0  0  0  0  0  0  0  0  0
    2.0023    0.3716    0.4499 C   0  0  0  0  0  0  0  0  0  0  0  0
    1.0517    1.1272    0.2484 O   0  0  0  0  0  0  0  0  0  0  0  0
    3.0640    0.4311   -0.4922 N   0  0  0  0  0  0  0  0  0  0  0  0
    2.9920    1.3608   -1.6333 C   0  0  0  0  0  0  0  0  0  0  0  0
    4.2291    1.2344   -2.4838 C   0  0  2  0  0  0  0  0  0  0  0  0
    4.3379   -0.1936   -2.9862 C   0  0  0  0  0  0  0  0  0  0  0  0
    5.3558    1.5330   -1.7340 O   0  0  0  0  0  0  0  0  0  0  0  0
    0.6909   -3.4509    1.3986 H   0  0  0  0  0  0  0  0  0  0  0  0
    0.3003   -2.3123    0.1006 H   0  0  0  0  0  0  0  0  0  0  0  0
   -0.2663   -4.0618    0.0155 H   0  0  0  0  0  0  0  0  0  0  0  0
   -1.1582   -2.7444    2.4570 H   0  0  0  0  0  0  0  0  0  0  0  0
   -2.2475   -4.7382    1.6114 H   0  0  0  0  0  0  0  0  0  0  0  0
   -3.4368   -3.4001    1.1827 H   0  0  0  0  0  0  0  0  0  0  0  0
   -2.3201   -4.0810   -0.0312 H   0  0  0  0  0  0  0  0  0  0  0  0
   -3.2111   -2.3305   -0.5208 H   0  0  0  0  0  0  0  0  0  0  0  0
   -2.1790    3.5640    0.2768 H   0  0  0  0  0  0  0  0  0  0  0  0
   -4.8145    5.3432   -2.4482 H   0  0  0  0  0  0  0  0  0  0  0  0
   -5.6216    3.1201   -3.1697 H   0  0  0  0  0  0  0  0  0  0  0  0
   -1.4568    1.8925    1.0713 H   0  0  0  0  0  0  0  0  0  0  0  0
   -0.5497    0.4839    3.1713 H   0  0  0  0  0  0  0  0  0  0  0  0
    0.2956   -1.7109    4.2249 H   0  0  0  0  0  0  0  0  0  0  0  0
    2.3717   -2.8486    4.6891 H   0  0  0  0  0  0  0  0  0  0  0  0
    4.0872   -1.1152    1.2839 H   0  0  0  0  0  0  0  0  0  0  0  0
    3.9178   -0.1570   -0.4327 H   0  0  0  0  0  0  0  0  0  0  0  0
    2.0663    1.2244   -2.2094 H   0  0  0  0  0  0  0  0  0  0  0  0
    2.9679    2.3897   -1.1992 H   0  0  0  0  0  0  0  0  0  0  0  0
    4.2241    1.8831   -3.3571 H   0  0  0  0  0  0  0  0  0  0  0  0
    4.6408   -0.9012   -2.1878 H   0  0  0  0  0  0  0  0  0  0  0  0
    5.1102   -0.2596   -3.8071 H   0  0  0  0  0  0  0  0  0  0  0  0
    3.3843   -0.5578   -3.4175 H   0  0  0  0  0  0  0  0  0  0  0  0
    6.1557    1.6924   -2.2717 H   0  0  0  0  0  0  0  0  0  0  0  0
  1  2  1  0
  2  3  1  0
  2  4  1  0
  4  5  2  0
  5  6  1  0
  6  7  2  0
  7  8  1  0
  8  9  2  0
  9 10  1  0
 10 11  1  0
 10 12  2  0
 12 13  1  0
 13 14  2  0
 14 15  1  0
  7 16  1  0
 16 17  2  0
 17 18  1  0
 18 19  1  0
 19 20  2  0
 20 21  1  0
 21 22  2  0
 22 23  1  0
 23 24  2  0
 24 25  1  0
 25 26  2  0
 25 27  1  0
 27 28  1  0
 28 29  1  0
 29 30  1  0
 29 31  1  0
 17  4  1  0
 24 19  1  0
 14  8  1  0
  1 32  1  0
  1 33  1  0
  1 34  1  0
  2 35  1  0
  3 36  1  0
  3 37  1  0
  3 38  1  0
  5 39  1  0
  9 40  1  0
 12 41  1  0
 13 42  1  0
 16 43  1  0
 18 44  1  0
 20 45  1  0
 21 46  1  0
 23 47  1  0
 27 48  1  0
 28 49  1  0
 28 50  1  0
 29 51  1  6
 30 52  1  0
 30 53  1  0
 30 54  1  0
 31 55  1  0
M  END
$$$$
