@<TRIPOS>MOLECULE
*****
 55 57 0 0 0
SMALL
GASTEIGER

@<TRIPOS>ATOM
      1 C          -0.1066   -3.1872    0.6700 C.3     1  UNL1       -0.0585
      2 C          -1.3638   -2.7553    1.3894 C.3     1  UNL1       -0.0183
      3 C          -2.4181   -3.7991    1.0312 C.3     1  UNL1       -0.0585
      4 C          -1.8087   -1.4451    0.8564 C.ar    1  UNL1       -0.0056
      5 C          -2.7806   -1.4072   -0.1235 C.ar    1  UNL1        0.0334
      6 N          -3.2579   -0.2723   -0.6512 N.ar    1  UNL1       -0.2545
      7 C          -2.7952    0.9459   -0.2361 C.ar    1  UNL1        0.0755
      8 C          -3.3352    2.1643   -0.8296 C.ar    1  UNL1        0.0369
      9 C          -2.9321    3.4195   -0.4753 C.ar    1  UNL1       -0.0314
     10 C          -3.4529    4.5728   -1.0465 C.ar    1  UNL1        0.0418
     11 CL         -2.8723    6.1492   -0.5265 Cl      1  UNL1       -0.0835
     12 C          -4.4153    4.4260   -2.0091 C.ar    1  UNL1       -0.0406
     13 C          -4.8516    3.1768   -2.3971 C.ar    1  UNL1       -0.0244
     14 C          -4.3090    2.0502   -1.8050 C.ar    1  UNL1        0.1326
     15 F          -4.7745    0.8310   -2.2236 F       1  UNL1       -0.2048
     16 C          -1.8326    0.9080    0.7337 C.ar    1  UNL1       -0.0141
     17 C          -1.3006   -0.2393    1.3164 C.ar    1  UNL1        0.0383
     18 N          -0.3004   -0.1462    2.3082 N.pl3   1  UNL1       -0.3135
     19 C           0.9661   -0.7012    2.4205 C.ar    1  UNL1        0.0465
     20 C           1.1238   -1.5517    3.5401 C.ar    1  UNL1       -0.0217
     21 C           2.2899   -2.1978    3.8109 C.ar    1  UNL1        0.0293
     22 N           3.3089   -1.9992    2.9646 N.ar    1  UNL1       -0.2624
     23 C           3.2122   -1.2069    1.8958 C.ar    1  UNL1        0.0415
     24 C           2.0227   -0.5236    1.5871 C.ar    1  UNL1        0.0758
     25 C           2.0023    0.3716    0.4499 C.2     1  UNL1        0.2474
     26 O           1.0517    1.1272    0.2484 O.2     1  UNL1       -0.2701
     27 N           3.0640    0.4311   -0.4922 N.am    1  UNL1       -0.3088
     28 C           2.9920    1.3608   -1.6333 C.3     1  UNL1        0.0377
     29 C           4.2291    1.2344   -2.4838 C.3     1  UNL1        0.0679
     30 C           4.3379   -0.1936   -2.9862 C.3     1  UNL1       -0.0375
     31 O           5.3558    1.5330   -1.7340 O.3     1  UNL1       -0.3905
     32 H           0.6909   -3.4509    1.3986 H       1  UNL1        0.0235
     33 H           0.3003   -2.3123    0.1006 H       1  UNL1        0.0235
     34 H          -0.2663   -4.0618    0.0155 H       1  UNL1        0.0235
     35 H          -1.1582   -2.7444    2.4570 H       1  UNL1        0.0344
     36 H          -2.2475   -4.7382    1.6114 H       1  UNL1        0.0235
     37 H          -3.4368   -3.4001    1.1827 H       1  UNL1        0.0235
     38 H          -2.3201   -4.0810   -0.0312 H       1  UNL1        0.0235
     39 H          -3.2111   -2.3305   -0.5208 H       1  UNL1        0.0833
     40 H          -2.1790    3.5640    0.2768 H       1  UNL1        0.0639
     41 H          -4.8145    5.3432   -2.4482 H       1  UNL1        0.0633
     42 H          -5.6216    3.1201   -3.1697 H       1  UNL1        0.0647
     43 H          -1.4568    1.8925    1.0713 H       1  UNL1        0.0658
     44 H          -0.5497    0.4839    3.1713 H       1  UNL1        0.1522
     45 H           0.2956   -1.7109    4.2249 H       1  UNL1        0.0651
     46 H           2.3717   -2.8486    4.6891 H       1  UNL1        0.0830
     47 H           4.0872   -1.1152    1.2839 H       1  UNL1        0.0838
     48 H           3.9178   -0.1570   -0.4327 H       1  UNL1        0.1491
     49 H           2.0663    1.2244   -2.2094 H       1  UNL1        0.0487
     50 H           2.9679    2.3897   -1.1992 H       1  UNL1        0.0487
     51 H           4.2241    1.8831   -3.3571 H       1  UNL1        0.0606
     52 H           4.6408   -0.9012   -2.1878 H       1  UNL1        0.0255
     53 H           5.1102   -0.2596   -3.8071 H       1  UNL1        0.0255
     54 H           3.3843   -0.5578   -3.4175 H       1  UNL1        0.0255
     55 H           6.1557    1.6924   -2.2717 H       1  UNL1        0.2098
@<TRIPOS>BOND
     1     1     2    1
     2     2     3    1
     3     2     4    1
     4     4     5   ar
     5     5     6   ar
     6     6     7   ar
     7     7     8    1
     8     8     9   ar
     9     9    10   ar
    10    10    11    1
    11    10    12   ar
    12    12    13   ar
    13    13    14   ar
    14    14    15    1
    15     7    16   ar
    16    16    17   ar
    17    17    18    1
    18    18    19    1
    19    19    20   ar
    20    20    21   ar
    21    21    22   ar
    22    22    23   ar
    23    23    24   ar
    24    24    25    1
    25    25    26    2
    26    25    27   am
    27    27    28    1
    28    28    29    1
    29    29    30    1
    30    29    31    1
    31    17     4   ar
    32    24    19   ar
    33    14     8   ar
    34     1    32    1
    35     1    33    1
    36     1    34    1
    37     2    35    1
    38     3    36    1
    39     3    37    1
    40     3    38    1
    41     5    39    1
    42     9    40    1
    43    12    41    1
    44    13    42    1
    45    16    43    1
    46    18    44    1
    47    20    45    1
    48    21    46    1
    49    23    47    1
    50    27    48    1
    51    28    49    1
    52    28    50    1
    53    29    51    1
    54    30    52    1
    55    30    53    1
    56    30    54    1
    57    31    55    1
