@<TRIPOS>MOLECULE
*****
 43 46 0 0 0
SMALL
GASTEIGER

@<TRIPOS>ATOM
      1 C           6.9814    1.2495   -0.3253 C.3     1  UNL1       -0.0583
      2 C           6.7679   -0.1022    0.2994 C.3     1  UNL1        0.0078
      3 C           5.3598   -0.2911    0.7696 C.ar    1  UNL1        0.1720
      4 N           4.8353   -0.0058    1.9702 N.ar    1  UNL1       -0.0608
      5 O           3.5615   -0.3143    1.9964 O.2     1  UNL1       -0.3295
      6 C           3.2094   -0.8088    0.8209 C.ar    1  UNL1        0.2958
      7 C           1.8558   -1.2555    0.4975 C.ar    1  UNL1        0.2221
      8 N           1.2316   -2.4037    0.8059 N.ar    1  UNL1       -0.1241
      9 N          -0.0104   -2.3826    0.3014 N.ar    1  UNL1       -0.1319
     10 C          -0.1996   -1.2395   -0.3277 C.ar    1  UNL1        0.1542
     11 N           0.9558   -0.5337   -0.2103 N.ar    1  UNL1       -0.3040
     12 C           1.0117    0.7708   -0.8247 C.3     1  UNL1        0.0424
     13 C          -0.2039    1.5865   -0.4642 C.3     1  UNL1        0.0338
     14 N          -1.4369    0.7313   -0.4438 N.am    1  UNL1       -0.2860
     15 C          -2.5560    1.2434    0.1919 C.2     1  UNL1        0.2472
     16 O          -2.4675    2.4202    0.7138 O.2     1  UNL1       -0.2700
     17 C          -3.8399    0.5861    0.3380 C.ar    1  UNL1        0.0371
     18 C          -4.9412    1.1239   -0.3368 C.ar    1  UNL1       -0.0469
     19 C          -6.1710    0.5465   -0.2117 C.ar    1  UNL1       -0.0257
     20 C          -6.3842   -0.5683    0.5691 C.ar    1  UNL1        0.1234
     21 F          -7.5998   -1.1494    0.6989 F       1  UNL1       -0.2055
     22 C          -5.2761   -1.0770    1.2256 C.ar    1  UNL1       -0.0257
     23 C          -4.0348   -0.5232    1.1189 C.ar    1  UNL1       -0.0469
     24 C          -1.2632   -0.5177   -1.0948 C.3     1  UNL1        0.0834
     25 C          -2.4236   -1.3480   -1.4324 C.3     1  UNL1       -0.0393
     26 N           4.3152   -0.7986    0.0559 N.ar    1  UNL1       -0.1892
     27 H           6.7492    1.2164   -1.4266 H       1  UNL1        0.0234
     28 H           8.0324    1.5872   -0.2552 H       1  UNL1        0.0234
     29 H           6.3547    2.0248    0.1635 H       1  UNL1        0.0234
     30 H           7.0873   -0.9012   -0.3931 H       1  UNL1        0.0342
     31 H           7.4387   -0.1436    1.1910 H       1  UNL1        0.0342
     32 H           1.9020    1.3290   -0.5030 H       1  UNL1        0.0508
     33 H           1.0437    0.6891   -1.9422 H       1  UNL1        0.0508
     34 H          -0.3591    2.4394   -1.1217 H       1  UNL1        0.0482
     35 H          -0.1349    1.9645    0.5840 H       1  UNL1        0.0482
     36 H          -4.7680    2.0030   -0.9508 H       1  UNL1        0.0626
     37 H          -7.0374    0.9699   -0.7441 H       1  UNL1        0.0646
     38 H          -5.4379   -1.9414    1.8362 H       1  UNL1        0.0646
     39 H          -3.2081   -0.9497    1.6440 H       1  UNL1        0.0626
     40 H          -0.7428   -0.2719   -2.0852 H       1  UNL1        0.0579
     41 H          -2.2284   -1.9217   -2.4113 H       1  UNL1        0.0252
     42 H          -2.5904   -2.1782   -0.7053 H       1  UNL1        0.0252
     43 H          -3.3782   -0.8543   -1.6277 H       1  UNL1        0.0252
@<TRIPOS>BOND
     1     1     2    1
     2     2     3    1
     3     3     4   ar
     4     4     5   ar
     5     5     6   ar
     6     6     7    1
     7     7     8   ar
     8     8     9   ar
     9     9    10   ar
    10    10    11   ar
    11    11    12    1
    12    12    13    1
    13    13    14    1
    14    14    15   am
    15    15    16    2
    16    15    17    1
    17    17    18   ar
    18    18    19   ar
    19    19    20   ar
    20    20    21    1
    21    20    22   ar
    22    22    23   ar
    23    14    24    1
    24    24    25    1
    25     6    26   ar
    26    26     3   ar
    27    11     7   ar
    28    23    17   ar
    29    24    10    1
    30     1    27    1
    31     1    28    1
    32     1    29    1
    33     2    30    1
    34     2    31    1
    35    12    32    1
    36    12    33    1
    37    13    34    1
    38    13    35    1
    39    18    36    1
    40    19    37    1
    41    22    38    1
    42    23    39    1
    43    24    40    1
    44    25    41    1
    45    25    42    1
    46    25    43    1
