
     RDKit          3D

 43 46  0  0  0  0  0  0  0  0999 V2000
    6.9814    1.2495   -0.3253 C   0  0  0  0  0  0  0  0  0  0  0  0
    6.7679   -0.1022    0.2994 C   0  0  0  0  0  0  0  0  0  0  0  0
    5.3598   -0.2911    0.7696 C   0  0  0  0  0  0  0  0  0  0  0  0
    4.8353   -0.0058    1.9702 N   0  0  0  0  0  0  0  0  0  0  0  0
    3.5615   -0.3143    1.9964 O   0  0  0  0  0  0  0  0  0  0  0  0
    3.2094   -0.8088    0.8209 C   0  0  0  0  0  0  0  0  0  0  0  0
    1.8558   -1.2555    0.4975 C   0  0  0  0  0  0  0  0  0  0  0  0
    1.2316   -2.4037    0.8059 N   0  0  0  0  0  0  0  0  0  0  0  0
   -0.0104   -2.3826    0.3014 N   0  0  0  0  0  0  0  0  0  0  0  0
   -0.1996   -1.2395   -0.3277 C   0  0  0  0  0  0  0  0  0  0  0  0
    0.9558   -0.5337   -0.2103 N   0  0  0  0  0  0  0  0  0  0  0  0
    1.0117    0.7708   -0.8247 C   0  0  0  0  0  0  0  0  0  0  0  0
   -0.2039    1.5865   -0.4642 C   0  0  0  0  0  0  0  0  0  0  0  0
   -1.4369    0.7313   -0.4438 N   0  0  0  0  0  0  0  0  0  0  0  0
   -2.5560    1.2434    0.1919 C   0  0  0  0  0  0  0  0  0  0  0  0
   -2.4675    2.4202    0.7138 O   0  0  0  0  0  0  0  0  0  0  0  0
   -3.8399    0.5861    0.3380 C   0  0  0  0  0  0  0  0  0  0  0  0
   -4.9412    1.1239   -0.3368 C   0  0  0  0  0  0  0  0  0  0  0  0
   -6.1710    0.5465   -0.2117 C   0  0  0  0  0  0  0  0  0  0  0  0
   -6.3842   -0.5683    0.5691 C   0  0  0  0  0  0  0  0  0  0  0  0
   -7.5998   -1.1494    0.6989 F   0  0  0  0  0  0  0  0  0  0  0  0
   -5.2761   -1.0770    1.2256 C   0  0  0  0  0  0  0  0  0  0  0  0
   -4.0348   -0.5232    1.1189 C   0  0  0  0  0  0  0  0  0  0  0  0
   -1.2632   -0.5177   -1.0948 C   0  0  2  0  0  0  0  0  0  0  0  0
   -2.4236   -1.3480   -1.4324 C   0  0  0  0  0  0  0  0  0  0  0  0
    4.3152   -0.7986    0.0559 N   0  0  0  0  0  0  0  0  0  0  0  0
    6.7492    1.2164   -1.4266 H   0  0  0  0  0  0  0  0  0  0  0  0
    8.0324    1.5872   -0.2552 H   0  0  0  0  0  0  0  0  0  0  0  0
    6.3547    2.0248    0.1635 H   0  0  0  0  0  0  0  0  0  0  0  0
    7.0873   -0.9012   -0.3931 H   0  0  0  0  0  0  0  0  0  0  0  0
    7.4387   -0.1436    1.1910 H   0  0  0  0  0  0  0  0  0  0  0  0
    1.9020    1.3290   -0.5030 H   0  0  0  0  0  0  0  0  0  0  0  0
    1.0437    0.6891   -1.9422 H   0  0  0  0  0  0  0  0  0  0  0  0
   -0.3591    2.4394   -1.1217 H   0  0  0  0  0  0  0  0  0  0  0  0
   -0.1349    1.9645    0.5840 H   0  0  0  0  0  0  0  0  0  0  0  0
   -4.7680    2.0030   -0.9508 H   0  0  0  0  0  0  0  0  0  0  0  0
   -7.0374    0.9699   -0.7441 H   0  0  0  0  0  0  0  0  0  0  0  0
   -5.4379   -1.9414    1.8362 H   0  0  0  0  0  0  0  0  0  0  0  0
   -3.2081   -0.9497    1.6440 H   0  0  0  0  0  0  0  0  0  0  0  0
   -0.7428   -0.2719   -2.0852 H   0  0  0  0  0  0  0  0  0  0  0  0
   -2.2284   -1.9217   -2.4113 H   0  0  0  0  0  0  0  0  0  0  0  0
   -2.5904   -2.1782   -0.7053 H   0  0  0  0  0  0  0  0  0  0  0  0
   -3.3782   -0.8543   -1.6277 H   0  0  0  0  0  0  0  0  0  0  0  0
  1  2  1  0
  2  3  1  0
  3  4  2  0
  4  5  1  0
  5  6  1  0
  6  7  1  0
  7  8  2  0
  8  9  1  0
  9 10  2  0
 10 11  1  0
 11 12  1  0
 12 13  1  0
 13 14  1  0
 14 15  1  0
 15 16  2  0
 15 17  1  0
 17 18  2  0
 18 19  1  0
 19 20  2  0
 20 21  1  0
 20 22  1  0
 22 23  2  0
 14 24  1  0
 24 25  1  0
  6 26  2  0
 26  3  1  0
 11  7  1  0
 23 17  1  0
 24 10  1  0
  1 27  1  0
  1 28  1  0
  1 29  1  0
  2 30  1  0
  2 31  1  0
 12 32  1  0
 12 33  1  0
 13 34  1  0
 13 35  1  0
 18 36  1  0
 19 37  1  0
 22 38  1  0
 23 39  1  0
 24 40  1  6
 25 41  1  0
 25 42  1  0
 25 43  1  0
M  END
$$$$
