@<TRIPOS>MOLECULE
*****
 70 73 0 0 0
SMALL
GASTEIGER

@<TRIPOS>ATOM
      1 C          -5.3076   -5.2965    0.4617 C.3     1  UNL1       -0.0128
      2 N          -4.4651   -4.1528    0.4445 N.3     1  UNL1       -0.3052
      3 C          -4.3117   -3.4946    1.7022 C.3     1  UNL1        0.0003
      4 C          -3.1829   -2.5047    1.7437 C.3     1  UNL1       -0.0216
      5 C          -2.9473   -1.8473    0.4014 C.3     1  UNL1        0.0257
      6 N          -2.4250   -0.5167    0.5230 N.am    1  UNL1       -0.3083
      7 C          -1.1136   -0.1609    0.0001 C.2     1  UNL1        0.2491
      8 O          -0.5353   -1.1218   -0.5312 O.2     1  UNL1       -0.2700
      9 C          -0.6134    1.1759    0.1336 C.ar    1  UNL1        0.0945
     10 C          -1.6128    2.1731    0.1368 C.ar    1  UNL1        0.0466
     11 N          -1.3417    3.4811    0.1637 N.ar    1  UNL1       -0.2218
     12 C          -0.0885    3.9251    0.1885 C.ar    1  UNL1        0.2212
     13 N           0.2498    5.3148    0.2084 N.pl3   1  UNL1       -0.2835
     14 C          -0.7207    6.3172    0.0882 C.ar    1  UNL1        0.0363
     15 C          -1.9853    6.1320   -0.4048 C.ar    1  UNL1       -0.0220
     16 C          -2.8824    7.1900   -0.4638 C.ar    1  UNL1        0.0441
     17 CL         -4.4962    6.9687   -1.0866 Cl      1  UNL1       -0.0834
     18 C          -2.4854    8.4306   -0.0206 C.ar    1  UNL1       -0.0249
     19 C          -1.2099    8.6254    0.4781 C.ar    1  UNL1        0.0441
     20 CL         -0.6997   10.2218    1.0467 Cl      1  UNL1       -0.0834
     21 C          -0.3350    7.5921    0.5355 C.ar    1  UNL1       -0.0220
     22 N           0.8725    2.9995    0.1867 N.ar    1  UNL1       -0.1987
     23 C           0.6617    1.6236    0.1611 C.ar    1  UNL1        0.1363
     24 N           1.7786    0.8035    0.2284 N.pl3   1  UNL1       -0.3255
     25 C           2.1494   -0.5463    0.2464 C.3     1  UNL1        0.0221
     26 C           3.5142   -0.7150    1.0040 C.3     1  UNL1       -0.0331
     27 C           4.1357   -1.9785    0.4578 C.3     1  UNL1       -0.0357
     28 C           4.8129   -1.5460   -0.8498 C.3     1  UNL1        0.0100
     29 N           5.5472   -2.5836   -1.4845 N.3     1  UNL1       -0.3054
     30 C           4.7690   -3.7563   -1.8184 C.3     1  UNL1       -0.0128
     31 C           6.7350   -2.9131   -0.7354 C.3     1  UNL1       -0.0128
     32 C           3.7522   -0.9212   -1.6873 C.3     1  UNL1       -0.0357
     33 C           2.3624   -1.0903   -1.1560 C.3     1  UNL1       -0.0331
     34 C          -4.2336   -1.9141   -0.3631 C.3     1  UNL1       -0.0216
     35 C          -4.4968   -3.3499   -0.7161 C.3     1  UNL1        0.0003
     36 H          -5.8690   -5.2633    1.4417 H       1  UNL1        0.0391
     37 H          -4.7633   -6.2560    0.3550 H       1  UNL1        0.0391
     38 H          -6.0888   -5.2262   -0.3232 H       1  UNL1        0.0391
     39 H          -5.2626   -3.0011    1.9606 H       1  UNL1        0.0427
     40 H          -4.1180   -4.2670    2.4731 H       1  UNL1        0.0427
     41 H          -3.4626   -1.7075    2.4619 H       1  UNL1        0.0295
     42 H          -2.2683   -2.9891    2.1429 H       1  UNL1        0.0295
     43 H          -2.2048   -2.4729   -0.1284 H       1  UNL1        0.0499
     44 H          -2.9467    0.2314    0.9968 H       1  UNL1        0.1493
     45 H          -2.6586    1.8460    0.0983 H       1  UNL1        0.0839
     46 H           1.2539    5.5795    0.3113 H       1  UNL1        0.1550
     47 H          -2.3410    5.1814   -0.7812 H       1  UNL1        0.0651
     48 H          -3.1253    9.3087   -0.0330 H       1  UNL1        0.0647
     49 H           0.6872    7.7354    0.9324 H       1  UNL1        0.0651
     50 H           2.7025    1.4327    0.2837 H       1  UNL1        0.1478
     51 H           1.4937   -1.1899    0.8112 H       1  UNL1        0.0498
     52 H           4.1767    0.1229    0.8070 H       1  UNL1        0.0284
     53 H           3.3192   -0.8521    2.0799 H       1  UNL1        0.0284
     54 H           3.3153   -2.7038    0.2061 H       1  UNL1        0.0281
     55 H           4.8762   -2.4219    1.1334 H       1  UNL1        0.0281
     56 H           5.5343   -0.7432   -0.5719 H       1  UNL1        0.0462
     57 H           3.7050   -3.6895   -1.5526 H       1  UNL1        0.0391
     58 H           5.1671   -4.6401   -1.2533 H       1  UNL1        0.0391
     59 H           4.9128   -3.9617   -2.9028 H       1  UNL1        0.0391
     60 H           7.0024   -2.0864   -0.0373 H       1  UNL1        0.0391
     61 H           7.6006   -3.0456   -1.4280 H       1  UNL1        0.0391
     62 H           6.5953   -3.8654   -0.1795 H       1  UNL1        0.0391
     63 H           3.9582    0.1580   -1.9006 H       1  UNL1        0.0281
     64 H           3.7648   -1.4082   -2.6974 H       1  UNL1        0.0281
     65 H           1.9463   -2.1000   -1.2697 H       1  UNL1        0.0284
     66 H           1.7176   -0.4282   -1.8169 H       1  UNL1        0.0284
     67 H          -5.1109   -1.5191    0.1966 H       1  UNL1        0.0295
     68 H          -4.0913   -1.2962   -1.2785 H       1  UNL1        0.0295
     69 H          -3.7483   -3.6624   -1.4839 H       1  UNL1        0.0427
     70 H          -5.5202   -3.3644   -1.1971 H       1  UNL1        0.0427
@<TRIPOS>BOND
     1     1     2    1
     2     2     3    1
     3     3     4    1
     4     4     5    1
     5     5     6    1
     6     6     7   am
     7     7     8    2
     8     7     9    1
     9     9    10   ar
    10    10    11   ar
    11    11    12   ar
    12    12    13    1
    13    13    14    1
    14    14    15   ar
    15    15    16   ar
    16    16    17    1
    17    16    18   ar
    18    18    19   ar
    19    19    20    1
    20    19    21   ar
    21    12    22   ar
    22    22    23   ar
    23    23    24    1
    24    24    25    1
    25    25    26    1
    26    26    27    1
    27    27    28    1
    28    28    29    1
    29    29    30    1
    30    29    31    1
    31    28    32    1
    32    32    33    1
    33     5    34    1
    34    34    35    1
    35    35     2    1
    36    23     9   ar
    37    33    25    1
    38    21    14   ar
    39     1    36    1
    40     1    37    1
    41     1    38    1
    42     3    39    1
    43     3    40    1
    44     4    41    1
    45     4    42    1
    46     5    43    1
    47     6    44    1
    48    10    45    1
    49    13    46    1
    50    15    47    1
    51    18    48    1
    52    21    49    1
    53    24    50    1
    54    25    51    1
    55    26    52    1
    56    26    53    1
    57    27    54    1
    58    27    55    1
    59    28    56    1
    60    30    57    1
    61    30    58    1
    62    30    59    1
    63    31    60    1
    64    31    61    1
    65    31    62    1
    66    32    63    1
    67    32    64    1
    68    33    65    1
    69    33    66    1
    70    34    67    1
    71    34    68    1
    72    35    69    1
    73    35    70    1
