@<TRIPOS>MOLECULE
*****
 28 29 0 0 0
SMALL
GASTEIGER

@<TRIPOS>ATOM
      1 C           1.7883    1.2320    1.9343 C.3     1  UNL1       -0.0394
      2 C           1.5631    0.0957    0.9595 C.3     1  UNL1        0.0826
      3 N           2.3930    0.3182   -0.2092 N.am    1  UNL1       -0.1601
      4 O           2.3040    1.3653   -1.0606 O.3     1  UNL1       -0.2907
      5 C           3.3833   -0.6724   -0.4584 C.2     1  UNL1        0.3230
      6 N           4.2958   -0.6405   -1.5494 N.am    1  UNL1       -0.3116
      7 O           3.5483   -1.6739    0.2630 O.2     1  UNL1       -0.2507
      8 C           0.1689    0.0125    0.6275 C.ar    1  UNL1        0.0135
      9 C          -0.7065    0.6896   -0.1509 C.ar    1  UNL1       -0.0419
     10 C          -2.0247    0.3205   -0.2376 C.ar    1  UNL1       -0.0105
     11 C          -3.0149    0.9206   -0.9884 C.ar    1  UNL1       -0.0535
     12 C          -4.2644    0.3966   -0.9345 C.ar    1  UNL1       -0.0611
     13 C          -4.6773   -0.6871   -0.2051 C.ar    1  UNL1       -0.0607
     14 C          -3.7020   -1.2969    0.5491 C.ar    1  UNL1       -0.0474
     15 C          -2.4142   -0.7863    0.5165 C.ar    1  UNL1        0.0196
     16 S          -0.9022   -1.3171    1.3617 S.2     1  UNL1       -0.0912
     17 H           1.1187    1.1445    2.8130 H       1  UNL1        0.0252
     18 H           1.5914    2.2003    1.4130 H       1  UNL1        0.0252
     19 H           2.8558    1.2376    2.2382 H       1  UNL1        0.0252
     20 H           1.9237   -0.8530    1.4051 H       1  UNL1        0.0578
     21 H           2.5015    1.0765   -1.9986 H       1  UNL1        0.2417
     22 H           4.8488    0.2353   -1.3157 H       1  UNL1        0.1465
     23 H           5.0686   -0.2999   -2.1459 H       1  UNL1        0.1465
     24 H          -0.2407    1.5181   -0.6658 H       1  UNL1        0.0632
     25 H          -2.8286    1.7892   -1.6142 H       1  UNL1        0.0624
     26 H          -5.0433    0.8832   -1.5365 H       1  UNL1        0.0618
     27 H          -5.6799   -1.0853   -0.1792 H       1  UNL1        0.0618
     28 H          -3.8544   -2.1456    1.1691 H       1  UNL1        0.0629
@<TRIPOS>BOND
     1     1     2    1
     2     2     3    1
     3     3     4    1
     4     3     5   am
     5     5     6   am
     6     5     7    2
     7     2     8    1
     8     8     9   ar
     9     9    10   ar
    10    10    11   ar
    11    11    12   ar
    12    12    13   ar
    13    13    14   ar
    14    14    15   ar
    15    15    16   ar
    16    16     8   ar
    17    15    10   ar
    18     1    17    1
    19     1    18    1
    20     1    19    1
    21     2    20    1
    22     4    21    1
    23     6    22    1
    24     6    23    1
    25     9    24    1
    26    11    25    1
    27    12    26    1
    28    13    27    1
    29    14    28    1
