@<TRIPOS>MOLECULE
*****
 69 71 0 0 0
SMALL
GASTEIGER

@<TRIPOS>ATOM
      1 C           7.3096    1.0499    1.6228 C.3     1  UNL1       -0.0130
      2 N           7.1126    1.2181    0.1852 N.3     1  UNL1       -0.3069
      3 C           7.9700    0.3134   -0.5170 C.3     1  UNL1       -0.0130
      4 C           5.7260    1.1349   -0.1657 C.3     1  UNL1        0.0141
      5 C           5.1205   -0.2343    0.0117 C.3     1  UNL1        0.0275
      6 N           3.7264   -0.1315   -0.3806 N.am    1  UNL1       -0.2987
      7 C           2.7508    0.2068    0.6098 C.3     1  UNL1        0.0305
      8 C           1.4083   -0.5245    0.3888 C.3     1  UNL1        0.0308
      9 N           0.7000    0.0046   -0.7295 N.am    1  UNL1       -0.2955
     10 C          -0.6348   -0.2455   -1.0481 C.2     1  UNL1        0.2490
     11 O          -1.0584    0.3812   -2.1082 O.2     1  UNL1       -0.2699
     12 C          -1.6333   -1.0874   -0.3934 C.ar    1  UNL1        0.0657
     13 C          -1.3719   -1.9639    0.5921 C.ar    1  UNL1       -0.0370
     14 C          -2.3611   -2.7171    1.1144 C.ar    1  UNL1       -0.0023
     15 C          -2.3928   -3.7377    2.1706 C.3     1  UNL1       -0.0064
     16 C          -2.1547   -5.0820    1.5131 C.3     1  UNL1       -0.0556
     17 C          -3.7525   -3.7119    2.8334 C.3     1  UNL1       -0.0556
     18 C          -1.3375   -3.5065    3.2236 C.3     1  UNL1       -0.0556
     19 S          -3.7470   -2.2423    0.2465 S.2     1  UNL1       -0.0771
     20 C          -2.9428   -1.0127   -0.8228 C.ar    1  UNL1        0.0853
     21 N          -3.6035   -0.2287   -1.8160 N.am    1  UNL1       -0.2629
     22 C          -4.1479    1.0229   -1.4402 C.2     1  UNL1        0.3085
     23 O          -4.0253    1.3900   -0.2429 O.2     1  UNL1       -0.2521
     24 N          -4.8323    1.8990   -2.3434 N.am    1  UNL1       -0.2678
     25 C          -5.3631    3.1512   -1.9015 C.ar    1  UNL1        0.0546
     26 C          -4.5680    4.2761   -1.9569 C.ar    1  UNL1       -0.0389
     27 C          -5.0375    5.5213   -1.5380 C.ar    1  UNL1       -0.0585
     28 C          -6.3342    5.6262   -1.0554 C.ar    1  UNL1       -0.0419
     29 C          -7.1270    4.4979   -1.0012 C.ar    1  UNL1        0.0610
     30 CL         -8.7463    4.5968   -0.4029 Cl      1  UNL1       -0.0820
     31 C          -6.6483    3.2610   -1.4219 C.ar    1  UNL1        0.0804
     32 CL         -7.6580    1.8286   -1.3511 Cl      1  UNL1       -0.0801
     33 C           1.3947    0.9181   -1.7068 C.3     1  UNL1        0.0233
     34 C           2.3334    0.0838   -2.5540 C.3     1  UNL1        0.0399
     35 C           3.4956   -0.3896   -1.7543 C.2     1  UNL1        0.2171
     36 O           4.3323   -1.0733   -2.3625 O.2     1  UNL1       -0.2755
     37 H           6.5384    1.6110    2.1904 H       1  UNL1        0.0391
     38 H           7.2282   -0.0517    1.8414 H       1  UNL1        0.0391
     39 H           8.3062    1.4566    1.8640 H       1  UNL1        0.0391
     40 H           8.7065    0.8998   -1.1357 H       1  UNL1        0.0391
     41 H           7.4486   -0.3526   -1.2101 H       1  UNL1        0.0391
     42 H           8.5468   -0.3181    0.1963 H       1  UNL1        0.0391
     43 H           5.1379    1.8316    0.4503 H       1  UNL1        0.0442
     44 H           5.5990    1.3956   -1.2376 H       1  UNL1        0.0442
     45 H           5.1239   -0.4875    1.1030 H       1  UNL1        0.0477
     46 H           5.6326   -1.0264   -0.5701 H       1  UNL1        0.0477
     47 H           2.5553    1.2722    0.7245 H       1  UNL1        0.0480
     48 H           3.1349   -0.1998    1.5897 H       1  UNL1        0.0480
     49 H           0.8701   -0.3208    1.3614 H       1  UNL1        0.0480
     50 H           1.6860   -1.5869    0.2733 H       1  UNL1        0.0480
     51 H          -0.3544   -2.1373    1.0224 H       1  UNL1        0.0634
     52 H          -2.0546   -5.8978    2.2570 H       1  UNL1        0.0238
     53 H          -1.1928   -5.0498    0.9608 H       1  UNL1        0.0238
     54 H          -3.0147   -5.2848    0.8434 H       1  UNL1        0.0238
     55 H          -4.1558   -2.6558    2.8329 H       1  UNL1        0.0238
     56 H          -4.4451   -4.3988    2.3162 H       1  UNL1        0.0238
     57 H          -3.6709   -3.9643    3.9213 H       1  UNL1        0.0238
     58 H          -1.1871   -4.4643    3.7686 H       1  UNL1        0.0238
     59 H          -0.3991   -3.1970    2.7628 H       1  UNL1        0.0238
     60 H          -1.6666   -2.7211    3.9302 H       1  UNL1        0.0238
     61 H          -3.7075   -0.5291   -2.8050 H       1  UNL1        0.1569
     62 H          -4.9190    1.5720   -3.3337 H       1  UNL1        0.1564
     63 H          -3.5575    4.1842   -2.3359 H       1  UNL1        0.0637
     64 H          -4.4208    6.4073   -1.5781 H       1  UNL1        0.0619
     65 H          -6.7692    6.5543   -0.7138 H       1  UNL1        0.0633
     66 H           1.9732    1.6671   -1.1693 H       1  UNL1        0.0469
     67 H           0.6557    1.3649   -2.3790 H       1  UNL1        0.0469
     68 H           1.8082   -0.7861   -2.9910 H       1  UNL1        0.0374
     69 H           2.6612    0.7201   -3.3947 H       1  UNL1        0.0374
@<TRIPOS>BOND
     1     1     2    1
     2     2     3    1
     3     2     4    1
     4     4     5    1
     5     5     6    1
     6     6     7    1
     7     7     8    1
     8     8     9    1
     9     9    10   am
    10    10    11    2
    11    10    12    1
    12    12    13   ar
    13    13    14   ar
    14    14    15    1
    15    15    16    1
    16    15    17    1
    17    15    18    1
    18    14    19   ar
    19    19    20   ar
    20    20    21    1
    21    21    22   am
    22    22    23    2
    23    22    24   am
    24    24    25    1
    25    25    26   ar
    26    26    27   ar
    27    27    28   ar
    28    28    29   ar
    29    29    30    1
    30    29    31   ar
    31    31    32    1
    32     9    33    1
    33    33    34    1
    34    34    35    1
    35    35    36    2
    36    35     6   am
    37    20    12   ar
    38    31    25   ar
    39     1    37    1
    40     1    38    1
    41     1    39    1
    42     3    40    1
    43     3    41    1
    44     3    42    1
    45     4    43    1
    46     4    44    1
    47     5    45    1
    48     5    46    1
    49     7    47    1
    50     7    48    1
    51     8    49    1
    52     8    50    1
    53    13    51    1
    54    16    52    1
    55    16    53    1
    56    16    54    1
    57    17    55    1
    58    17    56    1
    59    17    57    1
    60    18    58    1
    61    18    59    1
    62    18    60    1
    63    21    61    1
    64    24    62    1
    65    26    63    1
    66    27    64    1
    67    28    65    1
    68    33    66    1
    69    33    67    1
    70    34    68    1
    71    34    69    1
