@<TRIPOS>MOLECULE
*****
 61 65 0 0 0
SMALL
GASTEIGER

@<TRIPOS>ATOM
      1 C           7.0831    1.4657    0.3852 C.3     1  UNL1       -0.0223
      2 C           6.7474    0.3514   -0.5580 C.ar    1  UNL1        0.0400
      3 C           5.4112    0.0025   -0.8083 C.ar    1  UNL1       -0.0194
      4 C           5.0559   -1.0096   -1.6627 C.ar    1  UNL1        0.0367
      5 N           3.7615   -1.3942   -1.9491 N.pl3   1  UNL1       -0.2835
      6 C           2.5402   -0.8183   -1.4832 C.ar    1  UNL1        0.2212
      7 N           2.5260    0.2421   -0.6720 N.ar    1  UNL1       -0.2219
      8 C           1.4135    0.8094   -0.2186 C.ar    1  UNL1        0.0442
      9 C           0.1499    0.2686   -0.6102 C.ar    1  UNL1        0.0650
     10 C          -0.9763    1.1573   -0.2502 C.ar    1  UNL1        0.1137
     11 N          -1.1509    2.0975    0.4615 N.ar    1  UNL1       -0.2389
     12 C          -2.1826    2.8896    0.5470 C.ar    1  UNL1        0.0788
     13 C          -2.3074    4.0465    1.4758 C.ar    1  UNL1        0.0009
     14 C          -3.4425    4.7984    1.4667 C.ar    1  UNL1       -0.0525
     15 C          -3.5383    5.8769    2.3432 C.ar    1  UNL1       -0.0611
     16 C          -2.5307    6.1968    3.2049 C.ar    1  UNL1       -0.0617
     17 C          -1.3831    5.4152    3.1957 C.ar    1  UNL1       -0.0611
     18 C          -1.2789    4.3467    2.3325 C.ar    1  UNL1       -0.0525
     19 C          -3.2101    2.5911   -0.3086 C.ar    1  UNL1        0.0037
     20 S          -2.5951    1.1754   -1.1757 S.2     1  UNL1       -0.0749
     21 C           0.1320   -0.7945   -1.4113 C.ar    1  UNL1        0.1339
     22 N          -1.0018   -1.5918   -1.6720 N.pl3   1  UNL1       -0.3230
     23 C          -2.2849   -1.7478   -1.1252 C.3     1  UNL1        0.0507
     24 C          -2.3131   -1.8760    0.3909 C.3     1  UNL1       -0.0247
     25 C          -3.3839   -2.8913    0.7327 C.3     1  UNL1        0.0124
     26 C          -2.7177   -3.9490    1.5980 C.3     1  UNL1        0.0495
     27 O          -3.5995   -4.9435    1.9797 O.3     1  UNL1       -0.3946
     28 C          -3.8280   -3.4456   -0.5926 C.3     1  UNL1        0.0877
     29 O          -4.7817   -2.5351   -1.1020 O.3     1  UNL1       -0.3888
     30 C          -2.5875   -3.3107   -1.4119 C.3     1  UNL1        0.0996
     31 O          -2.7367   -3.4830   -2.7600 O.3     1  UNL1       -0.3874
     32 N           1.3546   -1.3202   -1.8406 N.ar    1  UNL1       -0.1988
     33 C           6.1257   -1.6719   -2.2693 C.ar    1  UNL1       -0.0223
     34 C           7.4301   -1.3187   -2.0142 C.ar    1  UNL1        0.0296
     35 N           7.7329   -0.3202   -1.1696 N.ar    1  UNL1       -0.2600
     36 H           7.2877    2.4176   -0.1630 H       1  UNL1        0.0292
     37 H           6.2524    1.6274    1.1025 H       1  UNL1        0.0292
     38 H           7.9886    1.2245    0.9807 H       1  UNL1        0.0292
     39 H           4.6946    0.5882   -0.2775 H       1  UNL1        0.0654
     40 H           3.6421   -2.2377   -2.6083 H       1  UNL1        0.1550
     41 H           1.4090    1.6657    0.4384 H       1  UNL1        0.0839
     42 H          -4.2812    4.6162    0.8219 H       1  UNL1        0.0624
     43 H          -4.4328    6.4795    2.3452 H       1  UNL1        0.0618
     44 H          -2.5953    7.0364    3.8932 H       1  UNL1        0.0618
     45 H          -0.5701    5.6244    3.8484 H       1  UNL1        0.0618
     46 H          -0.3806    3.7506    2.3385 H       1  UNL1        0.0624
     47 H          -4.2010    3.0540   -0.4841 H       1  UNL1        0.0715
     48 H          -0.8088   -2.2223   -2.5687 H       1  UNL1        0.1479
     49 H          -3.1497   -1.3119   -1.5836 H       1  UNL1        0.0524
     50 H          -2.5582   -0.9314    0.8840 H       1  UNL1        0.0288
     51 H          -1.3063   -2.1957    0.7219 H       1  UNL1        0.0288
     52 H          -4.2169   -2.4201    1.2631 H       1  UNL1        0.0349
     53 H          -2.4136   -3.4180    2.5390 H       1  UNL1        0.0561
     54 H          -1.8233   -4.3288    1.0907 H       1  UNL1        0.0561
     55 H          -3.2470   -5.8592    1.7844 H       1  UNL1        0.2094
     56 H          -4.2256   -4.4578   -0.5372 H       1  UNL1        0.0623
     57 H          -5.2377   -2.0530   -0.3430 H       1  UNL1        0.2099
     58 H          -1.7293   -3.7978   -0.9474 H       1  UNL1        0.0638
     59 H          -1.9023   -3.8489   -3.1348 H       1  UNL1        0.2100
     60 H           5.9111   -2.4788   -2.9533 H       1  UNL1        0.0651
     61 H           8.2607   -1.8325   -2.4848 H       1  UNL1        0.0830
@<TRIPOS>BOND
     1     1     2    1
     2     2     3   ar
     3     3     4   ar
     4     4     5    1
     5     5     6    1
     6     6     7   ar
     7     7     8   ar
     8     8     9   ar
     9     9    10    1
    10    10    11   ar
    11    11    12   ar
    12    12    13    1
    13    13    14   ar
    14    14    15   ar
    15    15    16   ar
    16    16    17   ar
    17    17    18   ar
    18    12    19   ar
    19    19    20   ar
    20     9    21   ar
    21    21    22    1
    22    22    23    1
    23    23    24    1
    24    24    25    1
    25    25    26    1
    26    26    27    1
    27    25    28    1
    28    28    29    1
    29    28    30    1
    30    30    31    1
    31    21    32   ar
    32     4    33   ar
    33    33    34   ar
    34    34    35   ar
    35    35     2   ar
    36    32     6   ar
    37    20    10   ar
    38    30    23    1
    39    18    13   ar
    40     1    36    1
    41     1    37    1
    42     1    38    1
    43     3    39    1
    44     5    40    1
    45     8    41    1
    46    14    42    1
    47    15    43    1
    48    16    44    1
    49    17    45    1
    50    18    46    1
    51    19    47    1
    52    22    48    1
    53    23    49    1
    54    24    50    1
    55    24    51    1
    56    25    52    1
    57    26    53    1
    58    26    54    1
    59    27    55    1
    60    28    56    1
    61    29    57    1
    62    30    58    1
    63    31    59    1
    64    33    60    1
    65    34    61    1
