@<TRIPOS>MOLECULE
*****
 42 44 0 0 0
SMALL
GASTEIGER

@<TRIPOS>ATOM
      1 C          -1.3092    3.1838   -1.2073 C.3     1  UNL1       -0.0152
      2 N          -2.1109    2.1465   -0.6443 N.3     1  UNL1       -0.3110
      3 C          -1.5133    0.8223   -0.8317 C.3     1  UNL1        0.0527
      4 C          -0.1759    0.8623   -0.1441 C.3     1  UNL1        0.0545
      5 N           0.7005   -0.2037   -0.5542 N.pl3   1  UNL1       -0.2006
      6 C           2.1053   -0.2001   -0.6339 C.ar    1  UNL1        0.0548
      7 C           2.8626   -0.5809    0.4606 C.ar    1  UNL1        0.0027
      8 C           4.2420   -0.5894    0.4180 C.ar    1  UNL1        0.1219
      9 O           4.9229   -0.9854    1.5613 O.3     1  UNL1       -0.4950
     10 C           6.3306   -1.0122    1.5717 C.3     1  UNL1        0.0788
     11 C           4.8462   -0.2008   -0.7667 C.ar    1  UNL1       -0.0198
     12 C           4.1035    0.1830   -1.8710 C.ar    1  UNL1       -0.0565
     13 C           2.7111    0.1876   -1.8160 C.ar    1  UNL1       -0.0388
     14 S          -0.1628   -1.6358   -0.9875 S.O2    1  UNL1        0.0814
     15 O          -0.2416   -1.8057   -2.4760 O.2     1  UNL1       -0.1493
     16 O           0.5310   -2.7781   -0.3315 O.2     1  UNL1       -0.1493
     17 C          -1.7570   -1.4539   -0.2982 C.ar    1  UNL1        0.1524
     18 C          -2.3737   -0.2353   -0.2449 C.ar    1  UNL1        0.0068
     19 C          -3.6239   -0.1490    0.3061 C.ar    1  UNL1       -0.0214
     20 C          -4.1788   -1.3443    0.7799 C.ar    1  UNL1        0.1443
     21 S          -2.9034   -2.5647    0.4282 S.2     1  UNL1       -0.0481
     22 S          -5.7211   -1.5808    1.5233 S.O2    1  UNL1        0.0623
     23 N          -6.5268   -0.0578    1.6058 N.3     1  UNL1       -0.2030
     24 O          -6.4963   -2.5286    0.6790 O.2     1  UNL1       -0.1527
     25 O          -5.4678   -2.1333    2.9144 O.2     1  UNL1       -0.1527
     26 H          -2.0139    3.9701   -1.5937 H       1  UNL1        0.0388
     27 H          -0.7061    2.7416   -2.0275 H       1  UNL1        0.0388
     28 H          -0.6850    3.6380   -0.4034 H       1  UNL1        0.0388
     29 H          -2.4569    2.3061    0.3189 H       1  UNL1        0.1222
     30 H          -1.3932    0.6979   -1.9163 H       1  UNL1        0.0527
     31 H           0.3146    1.8046   -0.5301 H       1  UNL1        0.0501
     32 H          -0.2875    0.9944    0.9332 H       1  UNL1        0.0501
     33 H           2.3305   -0.8691    1.3435 H       1  UNL1        0.0673
     34 H           6.7188   -1.8849    0.9821 H       1  UNL1        0.0660
     35 H           6.7605   -0.1019    1.1456 H       1  UNL1        0.0660
     36 H           6.6566   -1.2043    2.6197 H       1  UNL1        0.0660
     37 H           5.9285   -0.2073   -0.8007 H       1  UNL1        0.0654
     38 H           4.6832    0.4667   -2.7426 H       1  UNL1        0.0619
     39 H           2.1847    0.4960   -2.7067 H       1  UNL1        0.0637
     40 H          -4.1863    0.7702    0.3904 H       1  UNL1        0.0646
     41 H          -6.3237    0.5587    0.8108 H       1  UNL1        0.1443
     42 H          -6.3179    0.4777    2.4730 H       1  UNL1        0.1443
@<TRIPOS>BOND
     1     1     2    1
     2     2     3    1
     3     3     4    1
     4     4     5    1
     5     5     6    1
     6     6     7   ar
     7     7     8   ar
     8     8     9    1
     9     9    10    1
    10     8    11   ar
    11    11    12   ar
    12    12    13   ar
    13     5    14    1
    14    14    15    2
    15    14    16    2
    16    14    17    1
    17    17    18   ar
    18    18    19   ar
    19    19    20   ar
    20    20    21   ar
    21    20    22    1
    22    22    23    1
    23    22    24    2
    24    22    25    2
    25    18     3    1
    26    13     6   ar
    27    21    17   ar
    28     1    26    1
    29     1    27    1
    30     1    28    1
    31     2    29    1
    32     3    30    1
    33     4    31    1
    34     4    32    1
    35     7    33    1
    36    10    34    1
    37    10    35    1
    38    10    36    1
    39    11    37    1
    40    12    38    1
    41    13    39    1
    42    19    40    1
    43    23    41    1
    44    23    42    1
