
     RDKit          3D

 39 42  0  0  0  0  0  0  0  0999 V2000
    0.1575    3.8919   -0.8149 C   0  0  0  0  0  0  0  0  0  0  0  0
    0.1830    2.8991   -1.9272 C   0  0  0  0  0  0  0  0  0  0  0  0
    1.1076    1.7916   -1.6703 N   0  0  0  0  0  0  0  0  0  0  0  0
    2.3882    1.6766   -1.9765 C   0  0  0  0  0  0  0  0  0  0  0  0
    2.8383    0.4848   -1.5496 N   0  0  0  0  0  0  0  0  0  0  0  0
    1.8194   -0.1956   -0.9475 C   0  0  0  0  0  0  0  0  0  0  0  0
    1.9080   -1.5345   -0.3554 C   0  0  0  0  0  0  0  0  0  0  0  0
    1.6847   -1.7651    0.9857 C   0  0  0  0  0  0  0  0  0  0  0  0
    1.7678   -3.0241    1.5578 C   0  0  0  0  0  0  0  0  0  0  0  0
    2.0910   -4.0865    0.7285 C   0  0  0  0  0  0  0  0  0  0  0  0
    2.1831   -5.3508    1.2562 F   0  0  0  0  0  0  0  0  0  0  0  0
    2.3229   -3.9087   -0.6178 C   0  0  0  0  0  0  0  0  0  0  0  0
    2.7344   -5.2973   -1.6313 Cl  0  0  0  0  0  0  0  0  0  0  0  0
    2.2275   -2.6422   -1.1314 C   0  0  0  0  0  0  0  0  0  0  0  0
    0.7423    0.6566   -1.0406 C   0  0  0  0  0  0  0  0  0  0  0  0
   -0.5983    0.3315   -0.5080 C   0  0  0  0  0  0  0  0  0  0  0  0
   -1.5839   -0.1950   -1.3145 C   0  0  0  0  0  0  0  0  0  0  0  0
   -2.8304   -0.4768   -0.7563 C   0  0  0  0  0  0  0  0  0  0  0  0
   -3.0948   -0.2418    0.5738 C   0  0  0  0  0  0  0  0  0  0  0  0
   -4.1848   -0.4155    1.3566 N   0  0  0  0  0  0  0  0  0  0  0  0
   -3.8904   -0.0117    2.6081 C   0  0  0  0  0  0  0  0  0  0  0  0
   -2.5833    0.4146    2.5642 C   0  0  0  0  0  0  0  0  0  0  0  0
   -1.8782    0.9358    3.7109 C   0  0  0  0  0  0  0  0  0  0  0  0
   -1.3170    1.3374    4.6417 N   0  0  0  0  0  0  0  0  0  0  0  0
   -2.0932    0.2762    1.3238 N   0  0  0  0  0  0  0  0  0  0  0  0
   -0.8838    0.5561    0.8092 C   0  0  0  0  0  0  0  0  0  0  0  0
    0.6067    4.8701   -1.0903 H   0  0  0  0  0  0  0  0  0  0  0  0
   -0.8875    4.0970   -0.5276 H   0  0  0  0  0  0  0  0  0  0  0  0
    0.7263    3.5550    0.0853 H   0  0  0  0  0  0  0  0  0  0  0  0
    0.4928    3.3735   -2.9081 H   0  0  0  0  0  0  0  0  0  0  0  0
   -0.8489    2.5415   -2.1125 H   0  0  0  0  0  0  0  0  0  0  0  0
    2.9494    2.4642   -2.4997 H   0  0  0  0  0  0  0  0  0  0  0  0
    1.4326   -0.9581    1.6487 H   0  0  0  0  0  0  0  0  0  0  0  0
    1.5918   -3.1980    2.6122 H   0  0  0  0  0  0  0  0  0  0  0  0
    2.4080   -2.4987   -2.1831 H   0  0  0  0  0  0  0  0  0  0  0  0
   -1.4097   -0.3907   -2.3603 H   0  0  0  0  0  0  0  0  0  0  0  0
   -3.6090   -0.8896   -1.3830 H   0  0  0  0  0  0  0  0  0  0  0  0
   -4.5772   -0.0417    3.4257 H   0  0  0  0  0  0  0  0  0  0  0  0
   -0.0927    0.9691    1.4178 H   0  0  0  0  0  0  0  0  0  0  0  0
  1  2  1  0
  2  3  1  0
  3  4  1  0
  4  5  2  0
  5  6  1  0
  6  7  1  0
  7  8  2  0
  8  9  1  0
  9 10  2  0
 10 11  1  0
 10 12  1  0
 12 13  1  0
 12 14  2  0
  6 15  2  0
 15 16  1  0
 16 17  1  0
 17 18  2  0
 18 19  1  0
 19 20  2  0
 20 21  1  0
 21 22  2  0
 22 23  1  0
 23 24  3  0
 22 25  1  0
 25 26  1  0
 15  3  1  0
 26 16  2  0
 14  7  1  0
 25 19  1  0
  1 27  1  0
  1 28  1  0
  1 29  1  0
  2 30  1  0
  2 31  1  0
  4 32  1  0
  8 33  1  0
  9 34  1  0
 14 35  1  0
 17 36  1  0
 18 37  1  0
 21 38  1  0
 26 39  1  0
M  END
$$$$
