@<TRIPOS>MOLECULE
*****
 39 42 0 0 0
SMALL
GASTEIGER

@<TRIPOS>ATOM
      1 C           0.1575    3.8919   -0.8149 C.3     1  UNL1       -0.0470
      2 C           0.1830    2.8991   -1.9272 C.3     1  UNL1        0.0219
      3 N           1.1076    1.7916   -1.6703 N.ar    1  UNL1       -0.3298
      4 C           2.3882    1.6766   -1.9765 C.ar    1  UNL1        0.0971
      5 N           2.8383    0.4848   -1.5496 N.ar    1  UNL1       -0.2351
      6 C           1.8194   -0.1956   -0.9475 C.ar    1  UNL1        0.0968
      7 C           1.9080   -1.5345   -0.3554 C.ar    1  UNL1        0.0040
      8 C           1.6847   -1.7651    0.9857 C.ar    1  UNL1       -0.0497
      9 C           1.7678   -3.0241    1.5578 C.ar    1  UNL1       -0.0244
     10 C           2.0910   -4.0865    0.7285 C.ar    1  UNL1        0.1417
     11 F           2.1831   -5.3508    1.2562 F       1  UNL1       -0.2040
     12 C           2.3229   -3.9087   -0.6178 C.ar    1  UNL1        0.0767
     13 CL          2.7344   -5.2973   -1.6313 Cl      1  UNL1       -0.0806
     14 C           2.2275   -2.6422   -1.1314 C.ar    1  UNL1       -0.0313
     15 C           0.7423    0.6566   -1.0406 C.ar    1  UNL1        0.0778
     16 C          -0.5983    0.3315   -0.5080 C.ar    1  UNL1        0.0173
     17 C          -1.5839   -0.1950   -1.3145 C.ar    1  UNL1       -0.0477
     18 C          -2.8304   -0.4768   -0.7563 C.ar    1  UNL1       -0.0181
     19 C          -3.0948   -0.2418    0.5738 C.ar    1  UNL1        0.1385
     20 N          -4.1848   -0.4155    1.3566 N.ar    1  UNL1       -0.2348
     21 C          -3.8904   -0.0117    2.6081 C.ar    1  UNL1        0.0643
     22 C          -2.5833    0.4146    2.5642 C.ar    1  UNL1        0.1438
     23 C          -1.8782    0.9358    3.7109 C.1     1  UNL1        0.1192
     24 N          -1.3170    1.3374    4.6417 N.1     1  UNL1       -0.1893
     25 N          -2.0932    0.2762    1.3238 N.ar    1  UNL1       -0.2906
     26 C          -0.8838    0.5561    0.8092 C.ar    1  UNL1        0.0216
     27 H           0.6067    4.8701   -1.0903 H       1  UNL1        0.0247
     28 H          -0.8875    4.0970   -0.5276 H       1  UNL1        0.0247
     29 H           0.7263    3.5550    0.0853 H       1  UNL1        0.0247
     30 H           0.4928    3.3735   -2.9081 H       1  UNL1        0.0489
     31 H          -0.8489    2.5415   -2.1125 H       1  UNL1        0.0489
     32 H           2.9494    2.4642   -2.4997 H       1  UNL1        0.1029
     33 H           1.4326   -0.9581    1.6487 H       1  UNL1        0.0625
     34 H           1.5918   -3.1980    2.6122 H       1  UNL1        0.0647
     35 H           2.4080   -2.4987   -2.1831 H       1  UNL1        0.0640
     36 H          -1.4097   -0.3907   -2.3603 H       1  UNL1        0.0626
     37 H          -3.6090   -0.8896   -1.3830 H       1  UNL1        0.0654
     38 H          -4.5772   -0.0417    3.4257 H       1  UNL1        0.0859
     39 H          -0.0927    0.9691    1.4178 H       1  UNL1        0.0820
@<TRIPOS>BOND
     1     1     2    1
     2     2     3    1
     3     3     4   ar
     4     4     5   ar
     5     5     6   ar
     6     6     7    1
     7     7     8   ar
     8     8     9   ar
     9     9    10   ar
    10    10    11    1
    11    10    12   ar
    12    12    13    1
    13    12    14   ar
    14     6    15   ar
    15    15    16    1
    16    16    17   ar
    17    17    18   ar
    18    18    19   ar
    19    19    20   ar
    20    20    21   ar
    21    21    22   ar
    22    22    23    1
    23    23    24    3
    24    22    25   ar
    25    25    26   ar
    26    15     3   ar
    27    26    16   ar
    28    14     7   ar
    29    25    19   ar
    30     1    27    1
    31     1    28    1
    32     1    29    1
    33     2    30    1
    34     2    31    1
    35     4    32    1
    36     8    33    1
    37     9    34    1
    38    14    35    1
    39    17    36    1
    40    18    37    1
    41    21    38    1
    42    26    39    1
