@<TRIPOS>MOLECULE
*****
 68 72 0 0 0
SMALL
GASTEIGER

@<TRIPOS>ATOM
      1 C           2.0264    3.8084   -0.1539 C.3     1  UNL1        0.0804
      2 O           1.6115    2.5016   -0.4372 O.3     1  UNL1       -0.4794
      3 C           2.0108    1.3696    0.2993 C.ar    1  UNL1        0.2190
      4 N           2.8421    1.6199    1.3261 N.ar    1  UNL1       -0.2127
      5 C           3.2839    0.6100    2.0936 C.ar    1  UNL1        0.0749
      6 C           2.8643   -0.6664    1.7987 C.ar    1  UNL1        0.0019
      7 C           3.3289   -1.6719    2.5950 C.ar    1  UNL1       -0.0386
      8 C           4.1803   -1.4489    3.6531 C.ar    1  UNL1        0.0186
      9 BR          4.7765   -2.8997    4.7063 Br      1  UNL1       -0.0503
     10 C           4.5561   -0.1502    3.8872 C.ar    1  UNL1       -0.0457
     11 C           4.1325    0.9231    3.1307 C.ar    1  UNL1       -0.0346
     12 C           2.0134   -0.8656    0.7365 C.ar    1  UNL1       -0.0436
     13 C           1.5128    0.1082   -0.1001 C.ar    1  UNL1        0.0252
     14 C           0.5995   -0.0786   -1.2368 C.3     1  UNL1        0.0472
     15 C           1.0543   -0.8814   -2.3698 C.ar    1  UNL1       -0.0367
     16 C           1.2399   -0.3699   -3.6731 C.ar    1  UNL1       -0.0579
     17 C           1.6691   -1.0226   -4.7938 C.ar    1  UNL1       -0.0615
     18 C           1.9663   -2.3595   -4.6567 C.ar    1  UNL1       -0.0617
     19 C           1.8235   -2.9704   -3.4289 C.ar    1  UNL1       -0.0615
     20 C           1.3851   -2.2171   -2.3728 C.ar    1  UNL1       -0.0579
     21 C          -0.8417   -0.2449   -0.9342 C.3     1  UNL1        0.1035
     22 O          -1.6239   -0.4202   -2.0549 O.3     1  UNL1       -0.3830
     23 C          -1.1409   -1.6308   -0.2765 C.3     1  UNL1       -0.0061
     24 C          -2.6202   -1.8073   -0.0233 C.3     1  UNL1        0.0013
     25 N          -2.9088   -3.0879    0.6047 N.3     1  UNL1       -0.3082
     26 C          -4.3608   -3.1243    0.7815 C.3     1  UNL1       -0.0130
     27 C          -2.3263   -3.1907    1.9280 C.3     1  UNL1       -0.0130
     28 C          -1.3561    0.7097    0.0731 C.ar    1  UNL1       -0.0075
     29 C          -1.4993    0.4877    1.4286 C.ar    1  UNL1       -0.0552
     30 C          -1.8890    1.4263    2.3578 C.ar    1  UNL1       -0.0608
     31 C          -2.1713    2.7094    1.9552 C.ar    1  UNL1       -0.0540
     32 C          -2.0528    3.0114    0.6175 C.ar    1  UNL1       -0.0175
     33 C          -1.6591    2.0273   -0.2623 C.ar    1  UNL1       -0.0120
     34 C          -1.6047    2.4671   -1.5675 C.ar    1  UNL1       -0.0537
     35 C          -1.8983    3.7416   -2.0021 C.ar    1  UNL1       -0.0612
     36 C          -2.2821    4.6726   -1.0709 C.ar    1  UNL1       -0.0612
     37 C          -2.3603    4.3027    0.2536 C.ar    1  UNL1       -0.0540
     38 H           1.9801    4.0619    0.9356 H       1  UNL1        0.0660
     39 H           1.4288    4.5019   -0.7602 H       1  UNL1        0.0660
     40 H           3.0873    3.8953   -0.4952 H       1  UNL1        0.0660
     41 H           3.0210   -2.6990    2.3961 H       1  UNL1        0.0635
     42 H           5.2353    0.0761    4.7219 H       1  UNL1        0.0629
     43 H           4.4655    1.9286    3.3663 H       1  UNL1        0.0639
     44 H           1.7529   -1.8840    0.6007 H       1  UNL1        0.0629
     45 H           0.6442    0.9822   -1.7074 H       1  UNL1        0.0430
     46 H           1.0155    0.6999   -3.8406 H       1  UNL1        0.0620
     47 H           1.7722   -0.5200   -5.7435 H       1  UNL1        0.0618
     48 H           2.3067   -2.8931   -5.5299 H       1  UNL1        0.0618
     49 H           2.0702   -4.0128   -3.3844 H       1  UNL1        0.0618
     50 H           1.3243   -2.8051   -1.4717 H       1  UNL1        0.0620
     51 H          -1.5377   -1.2792   -2.4878 H       1  UNL1        0.2107
     52 H          -0.9031   -2.3662   -1.0816 H       1  UNL1        0.0309
     53 H          -0.6057   -1.7911    0.6360 H       1  UNL1        0.0309
     54 H          -3.1142   -1.0387    0.5743 H       1  UNL1        0.0427
     55 H          -3.1712   -1.8892   -1.0256 H       1  UNL1        0.0427
     56 H          -4.6610   -3.0856    1.8390 H       1  UNL1        0.0391
     57 H          -4.8746   -2.3238    0.2199 H       1  UNL1        0.0391
     58 H          -4.6709   -4.1253    0.3624 H       1  UNL1        0.0391
     59 H          -2.6756   -2.3064    2.4998 H       1  UNL1        0.0391
     60 H          -1.2404   -3.2755    1.8772 H       1  UNL1        0.0391
     61 H          -2.7888   -4.0640    2.4537 H       1  UNL1        0.0391
     62 H          -1.2949   -0.4538    1.8660 H       1  UNL1        0.0621
     63 H          -1.9894    1.2115    3.4123 H       1  UNL1        0.0618
     64 H          -2.4774    3.4593    2.6678 H       1  UNL1        0.0624
     65 H          -1.3356    1.8123   -2.3772 H       1  UNL1        0.0624
     66 H          -1.8512    4.0676   -3.0149 H       1  UNL1        0.0618
     67 H          -2.5315    5.6955   -1.3131 H       1  UNL1        0.0618
     68 H          -2.6626    5.0322    0.9919 H       1  UNL1        0.0624
@<TRIPOS>BOND
     1     1     2    1
     2     2     3    1
     3     3     4   ar
     4     4     5   ar
     5     5     6   ar
     6     6     7   ar
     7     7     8   ar
     8     8     9    1
     9     8    10   ar
    10    10    11   ar
    11     6    12   ar
    12    12    13   ar
    13    13    14    1
    14    14    15    1
    15    15    16   ar
    16    16    17   ar
    17    17    18   ar
    18    18    19   ar
    19    19    20   ar
    20    14    21    1
    21    21    22    1
    22    21    23    1
    23    23    24    1
    24    24    25    1
    25    25    26    1
    26    25    27    1
    27    21    28    1
    28    28    29   ar
    29    29    30   ar
    30    30    31   ar
    31    31    32   ar
    32    32    33   ar
    33    33    34   ar
    34    34    35   ar
    35    35    36   ar
    36    36    37   ar
    37    13     3   ar
    38    20    15   ar
    39    33    28   ar
    40    11     5   ar
    41    37    32   ar
    42     1    38    1
    43     1    39    1
    44     1    40    1
    45     7    41    1
    46    10    42    1
    47    11    43    1
    48    12    44    1
    49    14    45    1
    50    16    46    1
    51    17    47    1
    52    18    48    1
    53    19    49    1
    54    20    50    1
    55    22    51    1
    56    23    52    1
    57    23    53    1
    58    24    54    1
    59    24    55    1
    60    26    56    1
    61    26    57    1
    62    26    58    1
    63    27    59    1
    64    27    60    1
    65    27    61    1
    66    29    62    1
    67    30    63    1
    68    31    64    1
    69    34    65    1
    70    35    66    1
    71    36    67    1
    72    37    68    1
