
     RDKit          3D

 50 54  0  0  0  0  0  0  0  0999 V2000
    8.0430    2.8333    0.6474 C   0  0  0  0  0  0  0  0  0  0  0  0
    6.5894    2.5350    0.5613 C   0  0  0  0  0  0  0  0  0  0  0  0
    5.5378    3.3761    0.6422 N   0  0  0  0  0  0  0  0  0  0  0  0
    4.4111    2.6578    0.5095 N   0  0  0  0  0  0  0  0  0  0  0  0
    4.7194    1.3687    0.3448 C   0  0  0  0  0  0  0  0  0  0  0  0
    3.8310    0.2216    0.1616 C   0  0  0  0  0  0  0  0  0  0  0  0
    4.3276   -1.0559    0.0042 C   0  0  0  0  0  0  0  0  0  0  0  0
    3.4879   -2.1362   -0.1682 C   0  0  0  0  0  0  0  0  0  0  0  0
    2.1023   -2.0015   -0.1933 C   0  0  0  0  0  0  0  0  0  0  0  0
    1.2396   -3.2149   -0.3760 C   0  0  0  0  0  0  0  0  0  0  0  0
    1.5967   -0.7336   -0.0378 C   0  0  0  0  0  0  0  0  0  0  0  0
    0.1557   -0.5343   -0.0644 C   0  0  0  0  0  0  0  0  0  0  0  0
   -0.4391    0.2224    0.9175 C   0  0  0  0  0  0  0  0  0  0  0  0
   -1.7992    0.4331    0.9076 C   0  0  0  0  0  0  0  0  0  0  0  0
   -2.6080   -0.1136   -0.0958 C   0  0  0  0  0  0  0  0  0  0  0  0
   -2.0003   -0.8695   -1.0735 C   0  0  0  0  0  0  0  0  0  0  0  0
   -0.6180   -1.0807   -1.0591 C   0  0  0  0  0  0  0  0  0  0  0  0
   -3.0353   -1.2955   -1.9516 N   0  0  0  0  0  0  0  0  0  0  0  0
   -4.2968   -0.8049   -1.5229 C   0  0  0  0  0  0  0  0  0  0  0  0
   -5.3696   -1.0452   -2.1343 O   0  0  0  0  0  0  0  0  0  0  0  0
   -4.0590   -0.0200   -0.3010 C   0  0  0  0  0  0  0  0  0  0  0  0
   -4.5349    1.4089   -0.4436 C   0  0  0  0  0  0  0  0  0  0  0  0
   -5.9774    1.5314   -0.0550 C   0  0  0  0  0  0  0  0  0  0  0  0
   -6.6995    0.3681   -0.2871 O   0  0  0  0  0  0  0  0  0  0  0  0
   -6.2689   -0.6963    0.4792 C   0  0  0  0  0  0  0  0  0  0  0  0
   -4.8316   -0.6173    0.8764 C   0  0  0  0  0  0  0  0  0  0  0  0
    2.4622    0.3579    0.1371 C   0  0  0  0  0  0  0  0  0  0  0  0
    6.0682    1.3221    0.3808 N   0  0  0  0  0  0  0  0  0  0  0  0
    8.2155    3.9244    0.8041 H   0  0  0  0  0  0  0  0  0  0  0  0
    8.6105    2.4346   -0.2225 H   0  0  0  0  0  0  0  0  0  0  0  0
    8.5043    2.3387    1.5438 H   0  0  0  0  0  0  0  0  0  0  0  0
    5.4153   -1.1813    0.0212 H   0  0  0  0  0  0  0  0  0  0  0  0
    3.8790   -3.1407   -0.2920 H   0  0  0  0  0  0  0  0  0  0  0  0
    0.2429   -3.0692    0.0680 H   0  0  0  0  0  0  0  0  0  0  0  0
    1.6757   -4.0793    0.2141 H   0  0  0  0  0  0  0  0  0  0  0  0
    1.2043   -3.5243   -1.4217 H   0  0  0  0  0  0  0  0  0  0  0  0
    0.1926    0.6390    1.6858 H   0  0  0  0  0  0  0  0  0  0  0  0
   -2.2855    1.0330    1.6824 H   0  0  0  0  0  0  0  0  0  0  0  0
   -0.2287   -1.6716   -1.8481 H   0  0  0  0  0  0  0  0  0  0  0  0
   -2.8754   -1.8974   -2.8069 H   0  0  0  0  0  0  0  0  0  0  0  0
   -4.3240    1.8100   -1.4685 H   0  0  0  0  0  0  0  0  0  0  0  0
   -3.9278    2.0239    0.2560 H   0  0  0  0  0  0  0  0  0  0  0  0
   -6.4320    2.3278   -0.6792 H   0  0  0  0  0  0  0  0  0  0  0  0
   -6.0770    1.8473    1.0035 H   0  0  0  0  0  0  0  0  0  0  0  0
   -6.9152   -0.8450    1.3897 H   0  0  0  0  0  0  0  0  0  0  0  0
   -6.4141   -1.6190   -0.1235 H   0  0  0  0  0  0  0  0  0  0  0  0
   -4.7430    0.0559    1.7463 H   0  0  0  0  0  0  0  0  0  0  0  0
   -4.4121   -1.6120    1.1045 H   0  0  0  0  0  0  0  0  0  0  0  0
    2.0223    1.3458    0.2570 H   0  0  0  0  0  0  0  0  0  0  0  0
    6.6382    0.4426    0.2797 H   0  0  0  0  0  0  0  0  0  0  0  0
  1  2  1  0
  2  3  2  0
  3  4  1  0
  4  5  2  0
  5  6  1  0
  6  7  2  0
  7  8  1  0
  8  9  2  0
  9 10  1  0
  9 11  1  0
 11 12  1  0
 12 13  2  0
 13 14  1  0
 14 15  2  0
 15 16  1  0
 16 17  2  0
 16 18  1  0
 18 19  1  0
 19 20  2  0
 19 21  1  0
 21 22  1  0
 22 23  1  0
 23 24  1  0
 24 25  1  0
 25 26  1  0
 11 27  2  0
  5 28  1  0
 28  2  1  0
 27  6  1  0
 17 12  1  0
 26 21  1  0
 21 15  1  0
  1 29  1  0
  1 30  1  0
  1 31  1  0
  7 32  1  0
  8 33  1  0
 10 34  1  0
 10 35  1  0
 10 36  1  0
 13 37  1  0
 14 38  1  0
 17 39  1  0
 18 40  1  0
 22 41  1  0
 22 42  1  0
 23 43  1  0
 23 44  1  0
 25 45  1  0
 25 46  1  0
 26 47  1  0
 26 48  1  0
 27 49  1  0
 28 50  1  0
M  END
$$$$
