@<TRIPOS>MOLECULE
*****
 50 54 0 0 0
SMALL
GASTEIGER

@<TRIPOS>ATOM
      1 C           8.0430    2.8333    0.6474 C.3     1  UNL1       -0.0046
      2 C           6.5894    2.5350    0.5613 C.ar    1  UNL1        0.1280
      3 N           5.5378    3.3761    0.6422 N.ar    1  UNL1       -0.1345
      4 N           4.4111    2.6578    0.5095 N.ar    1  UNL1       -0.1294
      5 C           4.7194    1.3687    0.3448 C.ar    1  UNL1        0.1617
      6 C           3.8310    0.2216    0.1616 C.ar    1  UNL1        0.0196
      7 C           4.3276   -1.0559    0.0042 C.ar    1  UNL1       -0.0508
      8 C           3.4879   -2.1362   -0.1682 C.ar    1  UNL1       -0.0576
      9 C           2.1023   -2.0015   -0.1933 C.ar    1  UNL1       -0.0427
     10 C           1.2396   -3.2149   -0.3760 C.3     1  UNL1       -0.0391
     11 C           1.5967   -0.7336   -0.0378 C.ar    1  UNL1       -0.0142
     12 C           0.1557   -0.5343   -0.0644 C.ar    1  UNL1       -0.0158
     13 C          -0.4391    0.2224    0.9175 C.ar    1  UNL1       -0.0536
     14 C          -1.7992    0.4331    0.9076 C.ar    1  UNL1       -0.0552
     15 C          -2.6080   -0.1136   -0.0958 C.ar    1  UNL1       -0.0110
     16 C          -2.0003   -0.8695   -1.0735 C.ar    1  UNL1        0.0382
     17 C          -0.6180   -1.0807   -1.0591 C.ar    1  UNL1       -0.0325
     18 N          -3.0353   -1.2955   -1.9516 N.am    1  UNL1       -0.2845
     19 C          -4.2968   -0.8049   -1.5229 C.2     1  UNL1        0.2279
     20 O          -5.3696   -1.0452   -2.1343 O.2     1  UNL1       -0.2745
     21 C          -4.0590   -0.0200   -0.3010 C.3     1  UNL1        0.0779
     22 C          -4.5349    1.4089   -0.4436 C.3     1  UNL1       -0.0113
     23 C          -5.9774    1.5314   -0.0550 C.3     1  UNL1        0.0489
     24 O          -6.6995    0.3681   -0.2871 O.3     1  UNL1       -0.3797
     25 C          -6.2689   -0.6963    0.4792 C.3     1  UNL1        0.0489
     26 C          -4.8316   -0.6173    0.8764 C.3     1  UNL1       -0.0113
     27 C           2.4622    0.3579    0.1371 C.ar    1  UNL1       -0.0431
     28 N           6.0682    1.3221    0.3808 N.ar    1  UNL1       -0.3253
     29 H           8.2155    3.9244    0.8041 H       1  UNL1        0.0308
     30 H           8.6105    2.4346   -0.2225 H       1  UNL1        0.0308
     31 H           8.5043    2.3387    1.5438 H       1  UNL1        0.0308
     32 H           5.4153   -1.1813    0.0212 H       1  UNL1        0.0625
     33 H           3.8790   -3.1407   -0.2920 H       1  UNL1        0.0621
     34 H           0.2429   -3.0692    0.0680 H       1  UNL1        0.0278
     35 H           1.6757   -4.0793    0.2141 H       1  UNL1        0.0278
     36 H           1.2043   -3.5243   -1.4217 H       1  UNL1        0.0278
     37 H           0.1926    0.6390    1.6858 H       1  UNL1        0.0624
     38 H          -2.2855    1.0330    1.6824 H       1  UNL1        0.0621
     39 H          -0.2287   -1.6716   -1.8481 H       1  UNL1        0.0642
     40 H          -2.8754   -1.8974   -2.8069 H       1  UNL1        0.1548
     41 H          -4.3240    1.8100   -1.4685 H       1  UNL1        0.0301
     42 H          -3.9278    2.0239    0.2560 H       1  UNL1        0.0301
     43 H          -6.4320    2.3278   -0.6792 H       1  UNL1        0.0560
     44 H          -6.0770    1.8473    1.0035 H       1  UNL1        0.0560
     45 H          -6.9152   -0.8450    1.3897 H       1  UNL1        0.0560
     46 H          -6.4141   -1.6190   -0.1235 H       1  UNL1        0.0560
     47 H          -4.7430    0.0559    1.7463 H       1  UNL1        0.0301
     48 H          -4.4121   -1.6120    1.1045 H       1  UNL1        0.0301
     49 H           2.0223    1.3458    0.2570 H       1  UNL1        0.0631
     50 H           6.6382    0.4426    0.2797 H       1  UNL1        0.1685
@<TRIPOS>BOND
     1     1     2    1
     2     2     3   ar
     3     3     4   ar
     4     4     5   ar
     5     5     6    1
     6     6     7   ar
     7     7     8   ar
     8     8     9   ar
     9     9    10    1
    10     9    11   ar
    11    11    12    1
    12    12    13   ar
    13    13    14   ar
    14    14    15   ar
    15    15    16   ar
    16    16    17   ar
    17    16    18    1
    18    18    19   am
    19    19    20    2
    20    19    21    1
    21    21    22    1
    22    22    23    1
    23    23    24    1
    24    24    25    1
    25    25    26    1
    26    11    27   ar
    27     5    28   ar
    28    28     2   ar
    29    27     6   ar
    30    17    12   ar
    31    26    21    1
    32    21    15    1
    33     1    29    1
    34     1    30    1
    35     1    31    1
    36     7    32    1
    37     8    33    1
    38    10    34    1
    39    10    35    1
    40    10    36    1
    41    13    37    1
    42    14    38    1
    43    17    39    1
    44    18    40    1
    45    22    41    1
    46    22    42    1
    47    23    43    1
    48    23    44    1
    49    25    45    1
    50    25    46    1
    51    26    47    1
    52    26    48    1
    53    27    49    1
    54    28    50    1
