@<TRIPOS>MOLECULE
*****
 48 50 0 0 0
SMALL
GASTEIGER

@<TRIPOS>ATOM
      1 C          -1.9756   -2.8927   -0.9357 C.3     1  UNL1       -0.0602
      2 C          -1.0219   -2.0657   -0.1192 C.3     1  UNL1       -0.0185
      3 C           0.0622   -1.4128   -0.8972 C.3     1  UNL1        0.0181
      4 C          -0.3913   -0.4487   -1.9445 C.3     1  UNL1       -0.0114
      5 C          -1.4198    0.4867   -1.3937 C.ar    1  UNL1       -0.0419
      6 C          -1.7426    1.6100   -2.1330 C.ar    1  UNL1       -0.0548
      7 C          -2.6926    2.4811   -1.6290 C.ar    1  UNL1       -0.0199
      8 C          -3.3002    2.2293   -0.4166 C.ar    1  UNL1        0.1172
      9 O          -4.2321    3.1486    0.0076 O.3     1  UNL1       -0.5068
     10 C          -2.9706    1.0937    0.3253 C.ar    1  UNL1       -0.0162
     11 C          -2.0221    0.2258   -0.1799 C.ar    1  UNL1       -0.0344
     12 C          -1.7105   -0.9670    0.6552 C.3     1  UNL1       -0.0015
     13 C          -2.9869   -1.4351    1.2931 C.3     1  UNL1       -0.0552
     14 C          -0.7193   -0.5164    1.6994 C.3     1  UNL1       -0.0304
     15 C           0.6417   -0.2517    1.1789 C.3     1  UNL1        0.0003
     16 N           1.0170   -0.8116   -0.0431 N.3     1  UNL1       -0.2952
     17 C           2.1077   -0.1623   -0.7242 C.3     1  UNL1        0.0176
     18 C           3.4113   -0.3093   -0.0229 C.2     1  UNL1       -0.0713
     19 C           4.1777    0.6950    0.4337 C.2     1  UNL1       -0.0784
     20 C           5.4792    0.5208    1.1335 C.3     1  UNL1       -0.0440
     21 C           3.6948    2.0894    0.2221 C.3     1  UNL1       -0.0440
     22 H          -2.5598   -2.3054   -1.6682 H       1  UNL1        0.0233
     23 H          -2.6440   -3.4249   -0.2112 H       1  UNL1        0.0233
     24 H          -1.3916   -3.6885   -1.4275 H       1  UNL1        0.0233
     25 H          -0.5518   -2.7262    0.6247 H       1  UNL1        0.0322
     26 H           0.6006   -2.2373   -1.4538 H       1  UNL1        0.0469
     27 H           0.4715    0.1470   -2.2680 H       1  UNL1        0.0328
     28 H          -0.8553   -0.9356   -2.8297 H       1  UNL1        0.0328
     29 H          -1.2620    1.8168   -3.1019 H       1  UNL1        0.0622
     30 H          -2.9079    3.3461   -2.2486 H       1  UNL1        0.0654
     31 H          -4.9085    3.5766   -0.5834 H       1  UNL1        0.2921
     32 H          -3.5108    1.0083    1.2507 H       1  UNL1        0.0657
     33 H          -3.8389   -1.3639    0.5661 H       1  UNL1        0.0238
     34 H          -3.2205   -0.7972    2.1882 H       1  UNL1        0.0238
     35 H          -2.8892   -2.4716    1.6798 H       1  UNL1        0.0238
     36 H          -1.1686    0.3707    2.1953 H       1  UNL1        0.0286
     37 H          -0.7162   -1.3071    2.4814 H       1  UNL1        0.0286
     38 H           1.3813   -0.6011    1.9518 H       1  UNL1        0.0427
     39 H           0.7683    0.8519    1.1397 H       1  UNL1        0.0427
     40 H           1.8849    0.8815   -0.9762 H       1  UNL1        0.0470
     41 H           2.2350   -0.7126   -1.6985 H       1  UNL1        0.0470
     42 H           3.7238   -1.3468    0.1050 H       1  UNL1        0.0584
     43 H           6.2680    0.4918    0.3541 H       1  UNL1        0.0274
     44 H           5.4827   -0.4531    1.6477 H       1  UNL1        0.0274
     45 H           5.5981    1.3524    1.8464 H       1  UNL1        0.0274
     46 H           4.3880    2.8376    0.6117 H       1  UNL1        0.0274
     47 H           2.7001    2.1925    0.6905 H       1  UNL1        0.0274
     48 H           3.5166    2.1913   -0.8713 H       1  UNL1        0.0274
@<TRIPOS>BOND
     1     1     2    1
     2     2     3    1
     3     3     4    1
     4     4     5    1
     5     5     6   ar
     6     6     7   ar
     7     7     8   ar
     8     8     9    1
     9     8    10   ar
    10    10    11   ar
    11    11    12    1
    12    12    13    1
    13    12    14    1
    14    14    15    1
    15    15    16    1
    16    16    17    1
    17    17    18    1
    18    18    19    2
    19    19    20    1
    20    19    21    1
    21    12     2    1
    22    16     3    1
    23    11     5   ar
    24     1    22    1
    25     1    23    1
    26     1    24    1
    27     2    25    1
    28     3    26    1
    29     4    27    1
    30     4    28    1
    31     6    29    1
    32     7    30    1
    33     9    31    1
    34    10    32    1
    35    13    33    1
    36    13    34    1
    37    13    35    1
    38    14    36    1
    39    14    37    1
    40    15    38    1
    41    15    39    1
    42    17    40    1
    43    17    41    1
    44    18    42    1
    45    20    43    1
    46    20    44    1
    47    20    45    1
    48    21    46    1
    49    21    47    1
    50    21    48    1
