@<TRIPOS>MOLECULE
*****
 44 46 0 0 0
SMALL
GASTEIGER

@<TRIPOS>ATOM
      1 N          -4.6411    2.0990    1.8966 N.pl3   1  UNL1       -0.3134
      2 C          -4.0760    1.0460    1.1304 C.2     1  UNL1        0.2766
      3 N          -2.8548    0.6809    1.2137 N.2     1  UNL1       -0.2228
      4 C          -2.2538   -0.3663    0.4650 C.3     1  UNL1        0.1259
      5 C          -1.6214   -1.3261    1.4850 C.3     1  UNL1        0.1196
      6 F          -2.6727   -1.7662    2.2751 F       1  UNL1       -0.2462
      7 C          -1.1095    0.2477   -0.3006 C.ar    1  UNL1        0.0224
      8 C           0.1796   -0.1642   -0.1361 C.ar    1  UNL1       -0.0320
      9 C           1.1983    0.4144   -0.8478 C.ar    1  UNL1        0.0369
     10 N           2.5692    0.0094   -0.7035 N.am    1  UNL1       -0.2801
     11 C           3.4327    0.6139    0.2477 C.2     1  UNL1        0.2694
     12 O           2.9428    1.5246    0.9627 O.2     1  UNL1       -0.2681
     13 C           4.8333    0.2062    0.4012 C.ar    1  UNL1        0.1608
     14 N           5.3839   -0.7629   -0.3477 N.ar    1  UNL1       -0.2461
     15 C           6.6656   -1.1557   -0.2269 C.ar    1  UNL1        0.0469
     16 C           7.5138   -0.5692    0.7000 C.ar    1  UNL1        0.0618
     17 CL          9.1857   -1.0776    0.8616 Cl      1  UNL1       -0.0819
     18 C           6.9669    0.4302    1.4808 C.ar    1  UNL1       -0.0044
     19 C           5.6411    0.8162    1.3355 C.ar    1  UNL1        0.1551
     20 F           5.0988    1.7909    2.0934 F       1  UNL1       -0.2030
     21 C           0.9002    1.4219   -1.7351 C.ar    1  UNL1       -0.0023
     22 C          -0.4010    1.8360   -1.8996 C.ar    1  UNL1        0.1605
     23 F          -0.6704    2.8299   -2.7791 F       1  UNL1       -0.2024
     24 C          -1.4293    1.2569   -1.1858 C.ar    1  UNL1        0.1640
     25 F          -2.6871    1.7068   -1.3908 F       1  UNL1       -0.2021
     26 C          -3.1193   -1.1307   -0.4561 C.3     1  UNL1        0.0251
     27 C          -4.4950   -0.6145   -0.6497 C.3     1  UNL1        0.1998
     28 C          -5.5409   -1.7368   -0.6079 C.3     1  UNL1        0.4266
     29 F          -5.3310   -2.6697   -1.5777 F       1  UNL1       -0.1669
     30 F          -6.8012   -1.1953   -0.7390 F       1  UNL1       -0.1669
     31 F          -5.4689   -2.2885    0.6738 F       1  UNL1       -0.1669
     32 O          -4.8916    0.3745    0.2416 O.2     1  UNL1       -0.4534
     33 H          -4.2096    3.0587    1.9227 H       1  UNL1        0.1466
     34 H          -5.5038    1.9062    2.4424 H       1  UNL1        0.1466
     35 H          -0.9169   -0.7832    2.1418 H       1  UNL1        0.0643
     36 H          -1.1622   -2.1966    0.9817 H       1  UNL1        0.0643
     37 H           0.4187   -0.9446    0.5498 H       1  UNL1        0.0640
     38 H           2.9733   -0.7494   -1.3008 H       1  UNL1        0.1552
     39 H           7.0867   -1.9528   -0.8557 H       1  UNL1        0.0845
     40 H           7.6062    0.8995    2.2066 H       1  UNL1        0.0662
     41 H           1.6700    1.9038   -2.3145 H       1  UNL1        0.0666
     42 H          -2.6074   -1.2354   -1.4576 H       1  UNL1        0.0331
     43 H          -3.2138   -2.2013   -0.1061 H       1  UNL1        0.0331
     44 H          -4.5880   -0.1869   -1.6842 H       1  UNL1        0.0826
@<TRIPOS>BOND
     1     1     2    1
     2     2     3    2
     3     3     4    1
     4     4     5    1
     5     5     6    1
     6     4     7    1
     7     7     8   ar
     8     8     9   ar
     9     9    10    1
    10    10    11   am
    11    11    12    2
    12    11    13    1
    13    13    14   ar
    14    14    15   ar
    15    15    16   ar
    16    16    17    1
    17    16    18   ar
    18    18    19   ar
    19    19    20    1
    20     9    21   ar
    21    21    22   ar
    22    22    23    1
    23    22    24   ar
    24    24    25    1
    25     4    26    1
    26    26    27    1
    27    27    28    1
    28    28    29    1
    29    28    30    1
    30    28    31    1
    31    27    32    1
    32    32     2    1
    33    24     7   ar
    34    19    13   ar
    35     1    33    1
    36     1    34    1
    37     5    35    1
    38     5    36    1
    39     8    37    1
    40    10    38    1
    41    15    39    1
    42    18    40    1
    43    21    41    1
    44    26    42    1
    45    26    43    1
    46    27    44    1
