
     RDKit          3D

 49 51  0  0  0  0  0  0  0  0999 V2000
    8.5080   -1.3536    2.4014 N   0  0  0  0  0  0  0  0  0  0  0  0
    7.9533   -0.6021    1.3236 C   0  0  0  0  0  0  0  0  0  0  0  0
    8.8012   -0.0056    0.6107 O   0  0  0  0  0  0  0  0  0  0  0  0
    6.5054   -0.5909    1.1482 C   0  0  0  0  0  0  0  0  0  0  0  0
    5.6741   -1.2879    1.9979 C   0  0  0  0  0  0  0  0  0  0  0  0
    4.3105   -1.2738    1.8281 C   0  0  0  0  0  0  0  0  0  0  0  0
    3.6931   -0.5728    0.8129 C   0  0  0  0  0  0  0  0  0  0  0  0
    2.2838   -0.5809    0.6679 N   0  0  0  0  0  0  0  0  0  0  0  0
    1.4776    0.0714   -0.3001 C   0  0  0  0  0  0  0  0  0  0  0  0
    0.1536   -0.0662   -0.2615 N   0  0  0  0  0  0  0  0  0  0  0  0
   -0.6935    0.5062   -1.1261 C   0  0  0  0  0  0  0  0  0  0  0  0
   -2.0545    0.3137   -1.0178 O   0  0  0  0  0  0  0  0  0  0  0  0
   -2.7132   -0.4541   -0.0569 C   0  0  0  0  0  0  0  0  0  0  0  0
   -4.2338   -0.4278   -0.2607 C   0  0  0  0  0  0  0  0  0  0  0  0
   -4.6499    1.0075   -0.1457 C   0  0  0  0  0  0  0  0  0  0  0  0
   -6.1486    1.1903   -0.1812 C   0  0  0  0  0  0  0  0  0  0  0  0
   -6.8840   -0.0265    0.3186 C   0  0  0  0  0  0  0  0  0  0  0  0
   -6.0327   -0.6281    1.4205 C   0  0  0  0  0  0  0  0  0  0  0  0
   -4.8781   -1.3488    0.7224 C   0  0  0  0  0  0  0  0  0  0  0  0
   -0.1826    1.2957   -2.1327 C   0  0  0  0  0  0  0  0  0  0  0  0
   -0.9955    1.9429   -3.0943 N   0  0  0  0  0  0  0  0  0  0  0  0
   -1.7764    1.3116   -3.8310 O   0  0  0  0  0  0  0  0  0  0  0  0
    1.1818    1.4631   -2.2070 C   0  0  0  0  0  0  0  0  0  0  0  0
    1.7327    2.2732   -3.2368 N   0  0  0  0  0  0  0  0  0  0  0  0
    1.9342    0.8455   -1.2919 N   0  0  0  0  0  0  0  0  0  0  0  0
    4.5670    0.1058   -0.0073 C   0  0  0  0  0  0  0  0  0  0  0  0
    5.9393    0.1273    0.1154 C   0  0  0  0  0  0  0  0  0  0  0  0
    8.3799   -2.2738    2.8783 H   0  0  0  0  0  0  0  0  0  0  0  0
    9.3077   -1.0238    3.0176 H   0  0  0  0  0  0  0  0  0  0  0  0
    6.1054   -1.8535    2.8096 H   0  0  0  0  0  0  0  0  0  0  0  0
    3.7189   -1.8556    2.5486 H   0  0  0  0  0  0  0  0  0  0  0  0
    1.7683   -1.1617    1.3934 H   0  0  0  0  0  0  0  0  0  0  0  0
   -2.4556   -0.0952    0.9612 H   0  0  0  0  0  0  0  0  0  0  0  0
   -2.3704   -1.5113   -0.1575 H   0  0  0  0  0  0  0  0  0  0  0  0
   -4.4210   -0.8483   -1.2810 H   0  0  0  0  0  0  0  0  0  0  0  0
   -4.2062    1.4226    0.7776 H   0  0  0  0  0  0  0  0  0  0  0  0
   -4.2094    1.5609   -0.9808 H   0  0  0  0  0  0  0  0  0  0  0  0
   -6.3806    2.0264    0.5174 H   0  0  0  0  0  0  0  0  0  0  0  0
   -6.5121    1.4660   -1.1766 H   0  0  0  0  0  0  0  0  0  0  0  0
   -7.8986    0.2364    0.6777 H   0  0  0  0  0  0  0  0  0  0  0  0
   -7.0022   -0.7294   -0.5384 H   0  0  0  0  0  0  0  0  0  0  0  0
   -5.6579    0.2121    2.0444 H   0  0  0  0  0  0  0  0  0  0  0  0
   -6.6356   -1.3476    2.0088 H   0  0  0  0  0  0  0  0  0  0  0  0
   -5.3766   -2.2310    0.2254 H   0  0  0  0  0  0  0  0  0  0  0  0
   -4.1950   -1.7678    1.4770 H   0  0  0  0  0  0  0  0  0  0  0  0
    1.7649    3.2139   -2.7557 H   0  0  0  0  0  0  0  0  0  0  0  0
    2.0145    1.9760   -4.1950 H   0  0  0  0  0  0  0  0  0  0  0  0
    4.2022    0.6837   -0.8283 H   0  0  0  0  0  0  0  0  0  0  0  0
    6.5870    0.6659   -0.5406 H   0  0  0  0  0  0  0  0  0  0  0  0
  1  2  1  0
  2  3  2  0
  2  4  1  0
  4  5  2  0
  5  6  1  0
  6  7  2  0
  7  8  1  0
  8  9  1  0
  9 10  2  0
 10 11  1  0
 11 12  1  0
 12 13  1  0
 13 14  1  0
 14 15  1  0
 15 16  1  0
 16 17  1  0
 17 18  1  0
 18 19  1  0
 11 20  2  0
 20 21  1  0
 21 22  2  0
 20 23  1  0
 23 24  1  0
 23 25  2  0
  7 26  1  0
 26 27  2  0
 27  4  1  0
 25  9  1  0
 19 14  1  0
  1 28  1  0
  1 29  1  0
  5 30  1  0
  6 31  1  0
  8 32  1  0
 13 33  1  0
 13 34  1  0
 14 35  1  0
 15 36  1  0
 15 37  1  0
 16 38  1  0
 16 39  1  0
 17 40  1  0
 17 41  1  0
 18 42  1  0
 18 43  1  0
 19 44  1  0
 19 45  1  0
 24 46  1  0
 24 47  1  0
 26 48  1  0
 27 49  1  0
M  END
$$$$
