@<TRIPOS>MOLECULE
*****
 49 51 0 0 0
SMALL
GASTEIGER

@<TRIPOS>ATOM
      1 N           8.5080   -1.3536    2.4014 N.am    1  UNL1       -0.3253
      2 C           7.9533   -0.6021    1.3236 C.2     1  UNL1        0.2415
      3 O           8.8012   -0.0056    0.6107 O.2     1  UNL1       -0.2704
      4 C           6.5054   -0.5909    1.1482 C.ar    1  UNL1        0.0366
      5 C           5.6741   -1.2879    1.9979 C.ar    1  UNL1       -0.0479
      6 C           4.3105   -1.2738    1.8281 C.ar    1  UNL1       -0.0398
      7 C           3.6931   -0.5728    0.8129 C.ar    1  UNL1        0.0336
      8 N           2.2838   -0.5809    0.6679 N.pl3   1  UNL1       -0.2835
      9 C           1.4776    0.0714   -0.3001 C.ar    1  UNL1        0.2244
     10 N           0.1536   -0.0662   -0.2615 N.ar    1  UNL1       -0.1772
     11 C          -0.6935    0.5062   -1.1261 C.ar    1  UNL1        0.2508
     12 O          -2.0545    0.3137   -1.0178 O.3     1  UNL1       -0.4744
     13 C          -2.7132   -0.4541   -0.0569 C.3     1  UNL1        0.0941
     14 C          -4.2338   -0.4278   -0.2607 C.3     1  UNL1       -0.0067
     15 C          -4.6499    1.0075   -0.1457 C.3     1  UNL1       -0.0471
     16 C          -6.1486    1.1903   -0.1812 C.3     1  UNL1       -0.0527
     17 C          -6.8840   -0.0265    0.3186 C.3     1  UNL1       -0.0530
     18 C          -6.0327   -0.6281    1.4205 C.3     1  UNL1       -0.0527
     19 C          -4.8781   -1.3488    0.7224 C.3     1  UNL1       -0.0471
     20 C          -0.1826    1.2957   -2.1327 C.ar    1  UNL1        0.2079
     21 N          -0.9955    1.9429   -3.0943 N.2     1  UNL1       -0.0218
     22 O          -1.7764    1.3116   -3.8310 O.2     1  UNL1       -0.1429
     23 C           1.1818    1.4631   -2.2070 C.ar    1  UNL1        0.1541
     24 N           1.7327    2.2732   -3.2368 N.pl3   1  UNL1       -0.3411
     25 N           1.9342    0.8455   -1.2919 N.ar    1  UNL1       -0.1972
     26 C           4.5670    0.1058   -0.0073 C.ar    1  UNL1       -0.0398
     27 C           5.9393    0.1273    0.1154 C.ar    1  UNL1       -0.0479
     28 H           8.3799   -2.2738    2.8783 H       1  UNL1        0.1453
     29 H           9.3077   -1.0238    3.0176 H       1  UNL1        0.1453
     30 H           6.1054   -1.8535    2.8096 H       1  UNL1        0.0626
     31 H           3.7189   -1.8556    2.5486 H       1  UNL1        0.0636
     32 H           1.7683   -1.1617    1.3934 H       1  UNL1        0.1550
     33 H          -2.4556   -0.0952    0.9612 H       1  UNL1        0.0700
     34 H          -2.3704   -1.5113   -0.1575 H       1  UNL1        0.0700
     35 H          -4.4210   -0.8483   -1.2810 H       1  UNL1        0.0334
     36 H          -4.2062    1.4226    0.7776 H       1  UNL1        0.0269
     37 H          -4.2094    1.5609   -0.9808 H       1  UNL1        0.0269
     38 H          -6.3806    2.0264    0.5174 H       1  UNL1        0.0265
     39 H          -6.5121    1.4660   -1.1766 H       1  UNL1        0.0265
     40 H          -7.8986    0.2364    0.6777 H       1  UNL1        0.0265
     41 H          -7.0022   -0.7294   -0.5384 H       1  UNL1        0.0265
     42 H          -5.6579    0.2121    2.0444 H       1  UNL1        0.0265
     43 H          -6.6356   -1.3476    2.0088 H       1  UNL1        0.0265
     44 H          -5.3766   -2.2310    0.2254 H       1  UNL1        0.0269
     45 H          -4.1950   -1.7678    1.4770 H       1  UNL1        0.0269
     46 H           1.7649    3.2139   -2.7557 H       1  UNL1        0.1438
     47 H           2.0145    1.9760   -4.1950 H       1  UNL1        0.1438
     48 H           4.2022    0.6837   -0.8283 H       1  UNL1        0.0636
     49 H           6.5870    0.6659   -0.5406 H       1  UNL1        0.0626
@<TRIPOS>BOND
     1     1     2   am
     2     2     3    2
     3     2     4    1
     4     4     5   ar
     5     5     6   ar
     6     6     7   ar
     7     7     8    1
     8     8     9    1
     9     9    10   ar
    10    10    11   ar
    11    11    12    1
    12    12    13    1
    13    13    14    1
    14    14    15    1
    15    15    16    1
    16    16    17    1
    17    17    18    1
    18    18    19    1
    19    11    20   ar
    20    20    21    1
    21    21    22    2
    22    20    23   ar
    23    23    24    1
    24    23    25   ar
    25     7    26   ar
    26    26    27   ar
    27    27     4   ar
    28    25     9   ar
    29    19    14    1
    30     1    28    1
    31     1    29    1
    32     5    30    1
    33     6    31    1
    34     8    32    1
    35    13    33    1
    36    13    34    1
    37    14    35    1
    38    15    36    1
    39    15    37    1
    40    16    38    1
    41    16    39    1
    42    17    40    1
    43    17    41    1
    44    18    42    1
    45    18    43    1
    46    19    44    1
    47    19    45    1
    48    24    46    1
    49    24    47    1
    50    26    48    1
    51    27    49    1
