@<TRIPOS>MOLECULE
*****
 66 72 0 0 0
SMALL
GASTEIGER

@<TRIPOS>ATOM
      1 C           1.0244   -5.5640   -1.5590 C.3     1  UNL1       -0.0397
      2 C           0.6798   -4.1774   -1.1293 C.ar    1  UNL1       -0.0494
      3 C          -0.5455   -3.6450   -1.3975 C.ar    1  UNL1       -0.0522
      4 C          -0.8702   -2.3358   -0.9918 C.ar    1  UNL1       -0.0058
      5 C           0.1053   -1.6329   -0.3182 C.ar    1  UNL1        0.0545
      6 C           1.3682   -2.1789   -0.0396 C.ar    1  UNL1        0.0083
      7 C           1.6423   -3.4630   -0.4559 C.ar    1  UNL1       -0.0491
      8 C           2.1521   -1.2689    0.6361 C.ar    1  UNL1        0.0131
      9 C           3.5299   -1.4210    1.1529 C.2     1  UNL1        0.0604
     10 C           4.5287   -0.5340    1.0179 C.2     1  UNL1        0.0751
     11 C           4.3010    0.7195    0.3012 C.ar    1  UNL1        0.0789
     12 C           3.6529    0.8061   -0.9406 C.ar    1  UNL1        0.0545
     13 N           3.6374    2.0918   -1.2326 N.ar    1  UNL1       -0.2355
     14 C           4.2293    2.8169   -0.2616 C.ar    1  UNL1        0.1380
     15 C           4.4499    4.1616   -0.1060 C.ar    1  UNL1       -0.0188
     16 C           5.0820    4.6108    1.0128 C.ar    1  UNL1       -0.0569
     17 C           5.4977    3.7282    1.9820 C.ar    1  UNL1       -0.0450
     18 C           5.2694    2.3954    1.8087 C.ar    1  UNL1        0.0118
     19 N           4.6470    1.9533    0.7049 N.ar    1  UNL1       -0.2991
     20 C           5.7408   -1.0105    1.6475 C.2     1  UNL1        0.2533
     21 O           6.8778   -0.4273    1.7062 O.2     1  UNL1       -0.2697
     22 N           5.4547   -2.2847    2.2122 N.am    1  UNL1       -0.2482
     23 C           4.0784   -2.5289    1.8994 C.2     1  UNL1        0.2519
     24 O           3.4890   -3.5793    2.2557 O.2     1  UNL1       -0.2697
     25 C           1.3652   -0.1524    0.7728 C.ar    1  UNL1        0.0137
     26 N           0.1583   -0.4166    0.1903 N.ar    1  UNL1       -0.3443
     27 C          -0.8922    0.6141    0.1835 C.3     1  UNL1        0.0392
     28 C          -1.7099    0.4918   -1.0839 C.3     1  UNL1        0.0345
     29 N          -2.5940   -0.6134   -1.0374 N.am    1  UNL1       -0.2794
     30 C          -3.9112   -0.5063   -0.6322 C.2     1  UNL1        0.3051
     31 O          -4.6372   -1.6211   -0.6534 O.2     1  UNL1       -0.2524
     32 N          -4.6465    0.5782   -0.1922 N.am    1  UNL1       -0.2855
     33 C          -4.1985    1.9142   -0.0311 C.3     1  UNL1        0.0161
     34 C          -5.2339    2.7312    0.7914 C.3     1  UNL1       -0.0371
     35 C          -6.5690    2.7628    0.1331 C.3     1  UNL1       -0.0502
     36 C          -6.8433    1.4509   -0.5673 C.3     1  UNL1       -0.0371
     37 C          -6.0894    0.3719    0.1665 C.3     1  UNL1        0.0161
     38 C          -2.2398   -2.0175   -1.3981 C.3     1  UNL1        0.0432
     39 H           0.1574   -6.2415   -1.4729 H       1  UNL1        0.0278
     40 H           1.8983   -5.9663   -1.0150 H       1  UNL1        0.0278
     41 H           1.3236   -5.4915   -2.6403 H       1  UNL1        0.0278
     42 H          -1.3281   -4.1992   -1.9339 H       1  UNL1        0.0624
     43 H           2.6246   -3.8705   -0.2462 H       1  UNL1        0.0627
     44 H           3.2738   -0.0339   -1.4849 H       1  UNL1        0.0852
     45 H           4.1040    4.8194   -0.8966 H       1  UNL1        0.0654
     46 H           5.2484    5.6838    1.1181 H       1  UNL1        0.0619
     47 H           6.0094    4.1010    2.8867 H       1  UNL1        0.0632
     48 H           5.6008    1.7292    2.6000 H       1  UNL1        0.0813
     49 H           6.1442   -2.8674    2.7316 H       1  UNL1        0.1581
     50 H           1.6529    0.7765    1.2587 H       1  UNL1        0.0815
     51 H          -1.4981    0.5747    1.0852 H       1  UNL1        0.0507
     52 H          -0.3702    1.5792    0.1298 H       1  UNL1        0.0507
     53 H          -2.1756    1.4212   -1.3306 H       1  UNL1        0.0483
     54 H          -0.9427    0.3284   -1.9179 H       1  UNL1        0.0483
     55 H          -4.1449    2.4219   -1.0141 H       1  UNL1        0.0465
     56 H          -3.2735    2.0711    0.5399 H       1  UNL1        0.0465
     57 H          -4.7977    3.7557    0.8851 H       1  UNL1        0.0280
     58 H          -5.2947    2.2689    1.7931 H       1  UNL1        0.0280
     59 H          -7.3570    2.9038    0.9141 H       1  UNL1        0.0266
     60 H          -6.6531    3.5724   -0.6283 H       1  UNL1        0.0266
     61 H          -7.9341    1.2468   -0.5854 H       1  UNL1        0.0280
     62 H          -6.4238    1.5122   -1.6038 H       1  UNL1        0.0280
     63 H          -6.4027   -0.6317   -0.1717 H       1  UNL1        0.0465
     64 H          -6.1461    0.5122    1.2590 H       1  UNL1        0.0465
     65 H          -2.9986   -2.6985   -1.0189 H       1  UNL1        0.0515
     66 H          -2.2775   -2.0977   -2.5239 H       1  UNL1        0.0515
@<TRIPOS>BOND
     1     1     2    1
     2     2     3   ar
     3     3     4   ar
     4     4     5   ar
     5     5     6   ar
     6     6     7   ar
     7     6     8   ar
     8     8     9    1
     9     9    10    2
    10    10    11    1
    11    11    12   ar
    12    12    13   ar
    13    13    14   ar
    14    14    15   ar
    15    15    16   ar
    16    16    17   ar
    17    17    18   ar
    18    18    19   ar
    19    10    20    1
    20    20    21    2
    21    20    22   am
    22    22    23   am
    23    23    24    2
    24     8    25   ar
    25    25    26   ar
    26    26    27    1
    27    27    28    1
    28    28    29    1
    29    29    30   am
    30    30    31    2
    31    30    32   am
    32    32    33    1
    33    33    34    1
    34    34    35    1
    35    35    36    1
    36    36    37    1
    37    29    38    1
    38     7     2   ar
    39    23     9    1
    40    37    32    1
    41    38     4    1
    42    26     5   ar
    43    19    11   ar
    44    19    14   ar
    45     1    39    1
    46     1    40    1
    47     1    41    1
    48     3    42    1
    49     7    43    1
    50    12    44    1
    51    15    45    1
    52    16    46    1
    53    17    47    1
    54    18    48    1
    55    22    49    1
    56    25    50    1
    57    27    51    1
    58    27    52    1
    59    28    53    1
    60    28    54    1
    61    33    55    1
    62    33    56    1
    63    34    57    1
    64    34    58    1
    65    35    59    1
    66    35    60    1
    67    36    61    1
    68    36    62    1
    69    37    63    1
    70    37    64    1
    71    38    65    1
    72    38    66    1
