@<TRIPOS>MOLECULE
*****
 71 77 0 0 0
SMALL
GASTEIGER

@<TRIPOS>ATOM
      1 C          -5.2274    0.1320   -0.3241 C.3     1  UNL1        0.0503
      2 C          -6.5113   -0.6160   -0.0440 C.3     1  UNL1       -0.0289
      3 C          -7.1998   -0.8531   -1.3458 C.3     1  UNL1       -0.0492
      4 C          -6.2165   -1.7693   -2.0616 C.3     1  UNL1       -0.0492
      5 C          -5.1328   -2.0894   -1.0586 C.3     1  UNL1       -0.0289
      6 C          -5.9316   -2.0085    0.2328 C.3     1  UNL1       -0.0459
      7 C          -4.2560   -0.8885   -0.9052 C.3     1  UNL1        0.0503
      8 C          -3.2922   -1.1081    0.1793 C.2     1  UNL1        0.2259
      9 O          -2.5292   -2.1016    0.3925 O.2     1  UNL1       -0.2748
     10 N          -3.3094    0.0202    1.0454 N.am    1  UNL1       -0.2414
     11 C          -2.2930    0.5441    1.9070 C.3     1  UNL1        0.0254
     12 C          -1.3911    1.5629    1.2650 C.3     1  UNL1       -0.0207
     13 C          -2.1612    2.7701    0.7707 C.3     1  UNL1       -0.0485
     14 C          -1.3728    3.5809   -0.2108 C.3     1  UNL1       -0.0527
     15 C          -0.9865    2.8044   -1.4273 C.3     1  UNL1       -0.0527
     16 C          -0.8231    1.3248   -1.1807 C.3     1  UNL1       -0.0487
     17 C          -0.4766    0.9835    0.2329 C.3     1  UNL1       -0.0240
     18 C           0.9736    1.3001    0.5332 C.3     1  UNL1        0.0021
     19 N           1.8879    0.7510   -0.4502 N.3     1  UNL1       -0.2991
     20 C           3.2371    1.1462   -0.0224 C.3     1  UNL1        0.0147
     21 C           3.8500    0.1114    0.8947 C.3     1  UNL1        0.0263
     22 N           4.2291   -1.0267    0.0831 N.pl3   1  UNL1       -0.3117
     23 C           3.1775   -1.2826   -0.9073 C.3     1  UNL1        0.0263
     24 C           1.8605   -0.7015   -0.4488 C.3     1  UNL1        0.0147
     25 C           5.4303   -1.7747    0.2248 C.ar    1  UNL1        0.1382
     26 N           4.9909   -3.0904    0.5203 N.ar    1  UNL1       -0.1944
     27 S           6.6775   -3.8623    0.6603 S.2     1  UNL1        0.0138
     28 C           7.5847   -2.4679    0.3395 C.ar    1  UNL1        0.0412
     29 C           8.9747   -2.2954    0.2777 C.ar    1  UNL1       -0.0459
     30 C           9.4885   -1.0323   -0.0077 C.ar    1  UNL1       -0.0606
     31 C           8.5402   -0.0512   -0.2061 C.ar    1  UNL1       -0.0610
     32 C           7.1591   -0.1519   -0.1603 C.ar    1  UNL1       -0.0502
     33 C           6.7343   -1.4242    0.1256 C.ar    1  UNL1        0.0306
     34 C          -4.5954    0.6198    0.9325 C.2     1  UNL1        0.2259
     35 O          -5.2311    1.4263    1.6596 O.2     1  UNL1       -0.2748
     36 H          -5.3278    0.9238   -1.0840 H       1  UNL1        0.0404
     37 H          -7.1023   -0.2093    0.7665 H       1  UNL1        0.0308
     38 H          -7.3900    0.0738   -1.9221 H       1  UNL1        0.0268
     39 H          -8.1587   -1.3795   -1.1193 H       1  UNL1        0.0268
     40 H          -6.7745   -2.6382   -2.4219 H       1  UNL1        0.0268
     41 H          -5.7919   -1.1797   -2.9145 H       1  UNL1        0.0268
     42 H          -4.6351   -3.0405   -1.2253 H       1  UNL1        0.0308
     43 H          -5.2039   -1.9792    1.0672 H       1  UNL1        0.0271
     44 H          -6.7059   -2.7737    0.3096 H       1  UNL1        0.0271
     45 H          -3.7955   -0.5495   -1.8491 H       1  UNL1        0.0404
     46 H          -2.7190    1.0167    2.8325 H       1  UNL1        0.0472
     47 H          -1.6174   -0.2563    2.3095 H       1  UNL1        0.0472
     48 H          -0.7468    1.9566    2.1019 H       1  UNL1        0.0319
     49 H          -2.4552    3.4278    1.6114 H       1  UNL1        0.0269
     50 H          -3.1106    2.4831    0.2597 H       1  UNL1        0.0269
     51 H          -2.0626    4.4119   -0.5411 H       1  UNL1        0.0265
     52 H          -0.5169    4.1245    0.2534 H       1  UNL1        0.0265
     53 H          -1.7458    2.9621   -2.2371 H       1  UNL1        0.0265
     54 H          -0.0143    3.1500   -1.8633 H       1  UNL1        0.0265
     55 H          -0.0578    0.8892   -1.8333 H       1  UNL1        0.0268
     56 H          -1.7908    0.8542   -1.4447 H       1  UNL1        0.0268
     57 H          -0.5678   -0.1293    0.3204 H       1  UNL1        0.0316
     58 H           1.2849    0.8891    1.5111 H       1  UNL1        0.0429
     59 H           1.1179    2.3980    0.5793 H       1  UNL1        0.0429
     60 H           3.9198    1.2923   -0.8810 H       1  UNL1        0.0442
     61 H           3.1826    2.0828    0.5798 H       1  UNL1        0.0442
     62 H           3.1500   -0.1808    1.7058 H       1  UNL1        0.0477
     63 H           4.7207    0.5938    1.3753 H       1  UNL1        0.0477
     64 H           3.0498   -2.3777   -0.9897 H       1  UNL1        0.0477
     65 H           3.5190   -0.8594   -1.8595 H       1  UNL1        0.0477
     66 H           1.6890   -1.0743    0.5917 H       1  UNL1        0.0442
     67 H           1.0932   -1.0984   -1.1433 H       1  UNL1        0.0442
     68 H           9.6603   -3.0972    0.4415 H       1  UNL1        0.0629
     69 H          10.5332   -0.8326   -0.0693 H       1  UNL1        0.0618
     70 H           8.9653    0.9403   -0.4306 H       1  UNL1        0.0618
     71 H           6.5455    0.7033   -0.3370 H       1  UNL1        0.0625
@<TRIPOS>BOND
     1     1     2    1
     2     2     3    1
     3     3     4    1
     4     4     5    1
     5     5     6    1
     6     5     7    1
     7     7     8    1
     8     8     9    2
     9     8    10   am
    10    10    11    1
    11    11    12    1
    12    12    13    1
    13    13    14    1
    14    14    15    1
    15    15    16    1
    16    16    17    1
    17    17    18    1
    18    18    19    1
    19    19    20    1
    20    20    21    1
    21    21    22    1
    22    22    23    1
    23    23    24    1
    24    22    25    1
    25    25    26   ar
    26    26    27   ar
    27    27    28   ar
    28    28    29   ar
    29    29    30   ar
    30    30    31   ar
    31    31    32   ar
    32    32    33   ar
    33    10    34   am
    34    34    35    2
    35     7     1    1
    36    17    12    1
    37    24    19    1
    38    33    25   ar
    39    34     1    1
    40     6     2    1
    41    33    28   ar
    42     1    36    1
    43     2    37    1
    44     3    38    1
    45     3    39    1
    46     4    40    1
    47     4    41    1
    48     5    42    1
    49     6    43    1
    50     6    44    1
    51     7    45    1
    52    11    46    1
    53    11    47    1
    54    12    48    1
    55    13    49    1
    56    13    50    1
    57    14    51    1
    58    14    52    1
    59    15    53    1
    60    15    54    1
    61    16    55    1
    62    16    56    1
    63    17    57    1
    64    18    58    1
    65    18    59    1
    66    20    60    1
    67    20    61    1
    68    21    62    1
    69    21    63    1
    70    23    64    1
    71    23    65    1
    72    24    66    1
    73    24    67    1
    74    29    68    1
    75    30    69    1
    76    31    70    1
    77    32    71    1
