
     RDKit          3D

 71 77  0  0  0  0  0  0  0  0999 V2000
   -5.2274    0.1320   -0.3241 C   0  0  2  0  0  0  0  0  0  0  0  0
   -6.5113   -0.6160   -0.0440 C   0  0  1  0  0  0  0  0  0  0  0  0
   -7.1998   -0.8531   -1.3458 C   0  0  0  0  0  0  0  0  0  0  0  0
   -6.2165   -1.7693   -2.0616 C   0  0  0  0  0  0  0  0  0  0  0  0
   -5.1328   -2.0894   -1.0586 C   0  0  2  0  0  0  0  0  0  0  0  0
   -5.9316   -2.0085    0.2328 C   0  0  0  0  0  0  0  0  0  0  0  0
   -4.2560   -0.8885   -0.9052 C   0  0  2  0  0  0  0  0  0  0  0  0
   -3.2922   -1.1081    0.1793 C   0  0  0  0  0  0  0  0  0  0  0  0
   -2.5292   -2.1016    0.3925 O   0  0  0  0  0  0  0  0  0  0  0  0
   -3.3094    0.0202    1.0454 N   0  0  0  0  0  0  0  0  0  0  0  0
   -2.2930    0.5441    1.9070 C   0  0  0  0  0  0  0  0  0  0  0  0
   -1.3911    1.5629    1.2650 C   0  0  2  0  0  0  0  0  0  0  0  0
   -2.1612    2.7701    0.7707 C   0  0  0  0  0  0  0  0  0  0  0  0
   -1.3728    3.5809   -0.2108 C   0  0  0  0  0  0  0  0  0  0  0  0
   -0.9865    2.8044   -1.4273 C   0  0  0  0  0  0  0  0  0  0  0  0
   -0.8231    1.3248   -1.1807 C   0  0  0  0  0  0  0  0  0  0  0  0
   -0.4766    0.9835    0.2329 C   0  0  1  0  0  0  0  0  0  0  0  0
    0.9736    1.3001    0.5332 C   0  0  0  0  0  0  0  0  0  0  0  0
    1.8879    0.7510   -0.4502 N   0  0  0  0  0  0  0  0  0  0  0  0
    3.2371    1.1462   -0.0224 C   0  0  0  0  0  0  0  0  0  0  0  0
    3.8500    0.1114    0.8947 C   0  0  0  0  0  0  0  0  0  0  0  0
    4.2291   -1.0267    0.0831 N   0  0  0  0  0  0  0  0  0  0  0  0
    3.1775   -1.2826   -0.9073 C   0  0  0  0  0  0  0  0  0  0  0  0
    1.8605   -0.7015   -0.4488 C   0  0  0  0  0  0  0  0  0  0  0  0
    5.4303   -1.7747    0.2248 C   0  0  0  0  0  0  0  0  0  0  0  0
    4.9909   -3.0904    0.5203 N   0  0  0  0  0  0  0  0  0  0  0  0
    6.6775   -3.8623    0.6603 S   0  0  0  0  0  0  0  0  0  0  0  0
    7.5847   -2.4679    0.3395 C   0  0  0  0  0  0  0  0  0  0  0  0
    8.9747   -2.2954    0.2777 C   0  0  0  0  0  0  0  0  0  0  0  0
    9.4885   -1.0323   -0.0077 C   0  0  0  0  0  0  0  0  0  0  0  0
    8.5402   -0.0512   -0.2061 C   0  0  0  0  0  0  0  0  0  0  0  0
    7.1591   -0.1519   -0.1603 C   0  0  0  0  0  0  0  0  0  0  0  0
    6.7343   -1.4242    0.1256 C   0  0  0  0  0  0  0  0  0  0  0  0
   -4.5954    0.6198    0.9325 C   0  0  0  0  0  0  0  0  0  0  0  0
   -5.2311    1.4263    1.6596 O   0  0  0  0  0  0  0  0  0  0  0  0
   -5.3278    0.9238   -1.0840 H   0  0  0  0  0  0  0  0  0  0  0  0
   -7.1023   -0.2093    0.7665 H   0  0  0  0  0  0  0  0  0  0  0  0
   -7.3900    0.0738   -1.9221 H   0  0  0  0  0  0  0  0  0  0  0  0
   -8.1587   -1.3795   -1.1193 H   0  0  0  0  0  0  0  0  0  0  0  0
   -6.7745   -2.6382   -2.4219 H   0  0  0  0  0  0  0  0  0  0  0  0
   -5.7919   -1.1797   -2.9145 H   0  0  0  0  0  0  0  0  0  0  0  0
   -4.6351   -3.0405   -1.2253 H   0  0  0  0  0  0  0  0  0  0  0  0
   -5.2039   -1.9792    1.0672 H   0  0  0  0  0  0  0  0  0  0  0  0
   -6.7059   -2.7737    0.3096 H   0  0  0  0  0  0  0  0  0  0  0  0
   -3.7955   -0.5495   -1.8491 H   0  0  0  0  0  0  0  0  0  0  0  0
   -2.7190    1.0167    2.8325 H   0  0  0  0  0  0  0  0  0  0  0  0
   -1.6174   -0.2563    2.3095 H   0  0  0  0  0  0  0  0  0  0  0  0
   -0.7468    1.9566    2.1019 H   0  0  0  0  0  0  0  0  0  0  0  0
   -2.4552    3.4278    1.6114 H   0  0  0  0  0  0  0  0  0  0  0  0
   -3.1106    2.4831    0.2597 H   0  0  0  0  0  0  0  0  0  0  0  0
   -2.0626    4.4119   -0.5411 H   0  0  0  0  0  0  0  0  0  0  0  0
   -0.5169    4.1245    0.2534 H   0  0  0  0  0  0  0  0  0  0  0  0
   -1.7458    2.9621   -2.2371 H   0  0  0  0  0  0  0  0  0  0  0  0
   -0.0143    3.1500   -1.8633 H   0  0  0  0  0  0  0  0  0  0  0  0
   -0.0578    0.8892   -1.8333 H   0  0  0  0  0  0  0  0  0  0  0  0
   -1.7908    0.8542   -1.4447 H   0  0  0  0  0  0  0  0  0  0  0  0
   -0.5678   -0.1293    0.3204 H   0  0  0  0  0  0  0  0  0  0  0  0
    1.2849    0.8891    1.5111 H   0  0  0  0  0  0  0  0  0  0  0  0
    1.1179    2.3980    0.5793 H   0  0  0  0  0  0  0  0  0  0  0  0
    3.9198    1.2923   -0.8810 H   0  0  0  0  0  0  0  0  0  0  0  0
    3.1826    2.0828    0.5798 H   0  0  0  0  0  0  0  0  0  0  0  0
    3.1500   -0.1808    1.7058 H   0  0  0  0  0  0  0  0  0  0  0  0
    4.7207    0.5938    1.3753 H   0  0  0  0  0  0  0  0  0  0  0  0
    3.0498   -2.3777   -0.9897 H   0  0  0  0  0  0  0  0  0  0  0  0
    3.5190   -0.8594   -1.8595 H   0  0  0  0  0  0  0  0  0  0  0  0
    1.6890   -1.0743    0.5917 H   0  0  0  0  0  0  0  0  0  0  0  0
    1.0932   -1.0984   -1.1433 H   0  0  0  0  0  0  0  0  0  0  0  0
    9.6603   -3.0972    0.4415 H   0  0  0  0  0  0  0  0  0  0  0  0
   10.5332   -0.8326   -0.0693 H   0  0  0  0  0  0  0  0  0  0  0  0
    8.9653    0.9403   -0.4306 H   0  0  0  0  0  0  0  0  0  0  0  0
    6.5455    0.7033   -0.3370 H   0  0  0  0  0  0  0  0  0  0  0  0
  1  2  1  0
  2  3  1  0
  3  4  1  0
  4  5  1  0
  5  6  1  0
  5  7  1  0
  7  8  1  0
  8  9  2  0
  8 10  1  0
 10 11  1  0
 11 12  1  0
 12 13  1  0
 13 14  1  0
 14 15  1  0
 15 16  1  0
 16 17  1  0
 17 18  1  0
 18 19  1  0
 19 20  1  0
 20 21  1  0
 21 22  1  0
 22 23  1  0
 23 24  1  0
 22 25  1  0
 25 26  2  0
 26 27  1  0
 27 28  1  0
 28 29  2  0
 29 30  1  0
 30 31  2  0
 31 32  1  0
 32 33  2  0
 10 34  1  0
 34 35  2  0
  7  1  1  0
 17 12  1  0
 24 19  1  0
 33 25  1  0
 34  1  1  0
  6  2  1  0
 33 28  1  0
  1 36  1  6
  2 37  1  1
  3 38  1  0
  3 39  1  0
  4 40  1  0
  4 41  1  0
  5 42  1  6
  6 43  1  0
  6 44  1  0
  7 45  1  6
 11 46  1  0
 11 47  1  0
 12 48  1  1
 13 49  1  0
 13 50  1  0
 14 51  1  0
 14 52  1  0
 15 53  1  0
 15 54  1  0
 16 55  1  0
 16 56  1  0
 17 57  1  6
 18 58  1  0
 18 59  1  0
 20 60  1  0
 20 61  1  0
 21 62  1  0
 21 63  1  0
 23 64  1  0
 23 65  1  0
 24 66  1  0
 24 67  1  0
 29 68  1  0
 30 69  1  0
 31 70  1  0
 32 71  1  0
M  END
$$$$
