
     RDKit          3D

 38 40  0  0  0  0  0  0  0  0999 V2000
   -4.8703    3.9400   -0.1711 N   0  0  0  0  0  0  0  0  0  0  0  0
   -4.2249    3.0579    0.2575 C   0  0  0  0  0  0  0  0  0  0  0  0
   -3.4183    1.9574    0.7652 C   0  0  0  0  0  0  0  0  0  0  0  0
   -3.2077    1.7596    2.1088 C   0  0  0  0  0  0  0  0  0  0  0  0
   -2.4234    0.7023    2.5185 C   0  0  0  0  0  0  0  0  0  0  0  0
   -1.8501   -0.1548    1.5982 C   0  0  0  0  0  0  0  0  0  0  0  0
   -2.0372    0.0067    0.2475 C   0  0  0  0  0  0  0  0  0  0  0  0
   -2.8247    1.0706   -0.1349 C   0  0  0  0  0  0  0  0  0  0  0  0
   -1.4786   -0.8521   -0.7905 C   0  0  0  0  0  0  0  0  0  0  0  0
   -0.8668   -2.0456   -0.3298 N   0  0  0  0  0  0  0  0  0  0  0  0
    0.6483   -2.4096   -0.9881 S   0  0  0  0  0  6  0  0  0  0  0  0
    0.5696   -2.5694   -2.5095 O   0  0  0  0  0  0  0  0  0  0  0  0
    1.1015   -3.7483   -0.4788 O   0  0  0  0  0  0  0  0  0  0  0  0
    1.8426   -1.2018   -0.6275 C   0  0  0  0  0  0  0  0  0  0  0  0
    2.6510   -1.2797    0.4793 C   0  0  0  0  0  0  0  0  0  0  0  0
    3.5809   -0.3170    0.7182 C   0  0  0  0  0  0  0  0  0  0  0  0
    3.7496    0.7758   -0.1400 C   0  0  0  0  0  0  0  0  0  0  0  0
    2.9486    0.8825   -1.2643 C   0  0  0  0  0  0  0  0  0  0  0  0
    3.1008    2.0096   -2.1645 C   0  0  0  0  0  0  0  0  0  0  0  0
    2.3519    2.0917   -3.1886 O   0  0  0  0  0  0  0  0  0  0  0  0
    4.0271    3.0081   -1.9624 O   0  0  0  0  0  0  0  0  0  0  0  0
    2.0194   -0.1043   -1.4787 C   0  0  0  0  0  0  0  0  0  0  0  0
   -1.0703   -2.3781    1.0253 C   0  0  0  0  0  0  0  0  0  0  0  0
   -0.9742   -1.2848    2.0286 C   0  0  0  0  0  0  0  0  0  0  0  0
   -3.6733    2.4604    2.8140 H   0  0  0  0  0  0  0  0  0  0  0  0
   -2.2603    0.5517    3.5876 H   0  0  0  0  0  0  0  0  0  0  0  0
   -3.0248    1.2754   -1.1948 H   0  0  0  0  0  0  0  0  0  0  0  0
   -0.8004   -0.3207   -1.4883 H   0  0  0  0  0  0  0  0  0  0  0  0
   -2.3500   -1.1787   -1.4407 H   0  0  0  0  0  0  0  0  0  0  0  0
    2.5160   -2.1395    1.1606 H   0  0  0  0  0  0  0  0  0  0  0  0
    4.2235   -0.3800    1.5979 H   0  0  0  0  0  0  0  0  0  0  0  0
    4.4878    1.5431    0.0446 H   0  0  0  0  0  0  0  0  0  0  0  0
    3.9480    3.9395   -2.3953 H   0  0  0  0  0  0  0  0  0  0  0  0
    1.4001   -0.0139   -2.3583 H   0  0  0  0  0  0  0  0  0  0  0  0
   -2.1009   -2.8321    1.1190 H   0  0  0  0  0  0  0  0  0  0  0  0
   -0.3926   -3.2358    1.2640 H   0  0  0  0  0  0  0  0  0  0  0  0
   -1.3824   -1.6506    2.9885 H   0  0  0  0  0  0  0  0  0  0  0  0
    0.0646   -0.9354    2.2112 H   0  0  0  0  0  0  0  0  0  0  0  0
  1  2  3  0
  2  3  1  0
  3  4  2  0
  4  5  1  0
  5  6  2  0
  6  7  1  0
  7  8  2  0
  7  9  1  0
  9 10  1  0
 10 11  1  0
 11 12  2  0
 11 13  2  0
 11 14  1  0
 14 15  2  0
 15 16  1  0
 16 17  2  0
 17 18  1  0
 18 19  1  0
 19 20  2  0
 19 21  1  0
 18 22  2  0
 10 23  1  0
 23 24  1  0
  8  3  1  0
 22 14  1  0
 24  6  1  0
  4 25  1  0
  5 26  1  0
  8 27  1  0
  9 28  1  0
  9 29  1  0
 15 30  1  0
 16 31  1  0
 17 32  1  0
 21 33  1  0
 22 34  1  0
 23 35  1  0
 23 36  1  0
 24 37  1  0
 24 38  1  0
M  END
$$$$
