@<TRIPOS>MOLECULE
*****
 38 40 0 0 0
SMALL
GASTEIGER

@<TRIPOS>ATOM
      1 N          -4.8703    3.9400   -0.1711 N.1     1  UNL1       -0.1909
      2 C          -4.2249    3.0579    0.2575 C.1     1  UNL1        0.0992
      3 C          -3.4183    1.9574    0.7652 C.ar    1  UNL1        0.0521
      4 C          -3.2077    1.7596    2.1088 C.ar    1  UNL1       -0.0441
      5 C          -2.4234    0.7023    2.5185 C.ar    1  UNL1       -0.0570
      6 C          -1.8501   -0.1548    1.5982 C.ar    1  UNL1       -0.0416
      7 C          -2.0372    0.0067    0.2475 C.ar    1  UNL1       -0.0272
      8 C          -2.8247    1.0706   -0.1349 C.ar    1  UNL1       -0.0396
      9 C          -1.4786   -0.8521   -0.7905 C.3     1  UNL1        0.0458
     10 N          -0.8668   -2.0456   -0.3298 N.3     1  UNL1       -0.1720
     11 S           0.6483   -2.4096   -0.9881 S.O2    1  UNL1        0.0612
     12 O           0.5696   -2.5694   -2.5095 O.2     1  UNL1       -0.1528
     13 O           1.1015   -3.7483   -0.4788 O.2     1  UNL1       -0.1528
     14 C           1.8426   -1.2018   -0.6275 C.ar    1  UNL1        0.1063
     15 C           2.6510   -1.2797    0.4793 C.ar    1  UNL1       -0.0353
     16 C           3.5809   -0.3170    0.7182 C.ar    1  UNL1       -0.0591
     17 C           3.7496    0.7758   -0.1400 C.ar    1  UNL1       -0.0477
     18 C           2.9486    0.8825   -1.2643 C.ar    1  UNL1        0.0607
     19 C           3.1008    2.0096   -2.1645 C.2     1  UNL1        0.3369
     20 O           2.3519    2.0917   -3.1886 O.2     1  UNL1       -0.2451
     21 O           4.0271    3.0081   -1.9624 O.3     1  UNL1       -0.4771
     22 C           2.0194   -0.1043   -1.4787 C.ar    1  UNL1       -0.0214
     23 C          -1.0703   -2.3781    1.0253 C.3     1  UNL1        0.0248
     24 C          -0.9742   -1.2848    2.0286 C.3     1  UNL1       -0.0129
     25 H          -3.6733    2.4604    2.8140 H       1  UNL1        0.0630
     26 H          -2.2603    0.5517    3.5876 H       1  UNL1        0.0621
     27 H          -3.0248    1.2754   -1.1948 H       1  UNL1        0.0634
     28 H          -0.8004   -0.3207   -1.4883 H       1  UNL1        0.0493
     29 H          -2.3500   -1.1787   -1.4407 H       1  UNL1        0.0493
     30 H           2.5160   -2.1395    1.1606 H       1  UNL1        0.0637
     31 H           4.2235   -0.3800    1.5979 H       1  UNL1        0.0618
     32 H           4.4878    1.5431    0.0446 H       1  UNL1        0.0626
     33 H           3.9480    3.9395   -2.3953 H       1  UNL1        0.2954
     34 H           1.4001   -0.0139   -2.3583 H       1  UNL1        0.0645
     35 H          -2.1009   -2.8321    1.1190 H       1  UNL1        0.0447
     36 H          -0.3926   -3.2358    1.2640 H       1  UNL1        0.0447
     37 H          -1.3824   -1.6506    2.9885 H       1  UNL1        0.0326
     38 H           0.0646   -0.9354    2.2112 H       1  UNL1        0.0326
@<TRIPOS>BOND
     1     1     2    3
     2     2     3    1
     3     3     4   ar
     4     4     5   ar
     5     5     6   ar
     6     6     7   ar
     7     7     8   ar
     8     7     9    1
     9     9    10    1
    10    10    11    1
    11    11    12    2
    12    11    13    2
    13    11    14    1
    14    14    15   ar
    15    15    16   ar
    16    16    17   ar
    17    17    18   ar
    18    18    19    1
    19    19    20    2
    20    19    21    1
    21    18    22   ar
    22    10    23    1
    23    23    24    1
    24     8     3   ar
    25    22    14   ar
    26    24     6    1
    27     4    25    1
    28     5    26    1
    29     8    27    1
    30     9    28    1
    31     9    29    1
    32    15    30    1
    33    16    31    1
    34    17    32    1
    35    21    33    1
    36    22    34    1
    37    23    35    1
    38    23    36    1
    39    24    37    1
    40    24    38    1
