@<TRIPOS>MOLECULE
*****
 45 47 0 0 0
SMALL
GASTEIGER

@<TRIPOS>ATOM
      1 C          -2.6599   -0.7563    0.5490 C.3     1  UNL1       -0.0154
      2 C          -3.5687   -1.2999   -0.5124 C.3     1  UNL1       -0.0583
      3 C          -1.5242   -1.7038    0.8627 C.2     1  UNL1       -0.0811
      4 C          -0.2304   -1.3235    0.7737 C.2     1  UNL1       -0.0701
      5 C           0.7619   -2.3745    0.4103 C.3     1  UNL1       -0.0434
      6 C           0.1967    0.0793    1.0249 C.3     1  UNL1        0.0135
      7 C          -1.0811    0.9111    1.2300 C.3     1  UNL1       -0.0243
      8 C          -1.6945    0.6878    2.5683 C.3     1  UNL1       -0.0611
      9 C          -1.9418    0.5145    0.0601 C.3     1  UNL1        0.0264
     10 C          -3.0178    1.5723   -0.1828 C.3     1  UNL1        0.0527
     11 O          -2.4471    2.7484   -0.6259 O.3     1  UNL1       -0.3944
     12 C          -1.2222    0.1235   -1.1732 C.3     1  UNL1        0.0570
     13 O           0.0681    0.4804   -1.3359 O.3     1  UNL1       -0.3707
     14 C           0.8015    0.7451   -0.2021 C.3     1  UNL1        0.0903
     15 C           2.2592    0.4789   -0.3433 C.ar    1  UNL1       -0.0181
     16 C           2.7029    0.9650   -1.5802 C.ar    1  UNL1       -0.0527
     17 C           4.0500    0.8302   -1.9362 C.ar    1  UNL1       -0.0198
     18 C           4.9369    0.2329   -1.0974 C.ar    1  UNL1        0.1169
     19 O           6.2785    0.0608   -1.3722 O.3     1  UNL1       -0.5068
     20 C           4.4745   -0.2292    0.0979 C.ar    1  UNL1       -0.0198
     21 C           3.1591   -0.1224    0.4982 C.ar    1  UNL1       -0.0527
     22 H          -3.2168   -0.5388    1.4806 H       1  UNL1        0.0347
     23 H          -4.6287   -1.0634   -0.2623 H       1  UNL1        0.0236
     24 H          -3.3465   -0.8039   -1.4782 H       1  UNL1        0.0236
     25 H          -3.5343   -2.4084   -0.6105 H       1  UNL1        0.0236
     26 H          -1.7404   -2.7286    1.1715 H       1  UNL1        0.0575
     27 H           1.2563   -2.0401   -0.5349 H       1  UNL1        0.0274
     28 H           1.5322   -2.5207    1.1670 H       1  UNL1        0.0274
     29 H           0.2649   -3.3330    0.1496 H       1  UNL1        0.0274
     30 H           0.8150    0.2266    1.9024 H       1  UNL1        0.0377
     31 H          -0.7612    1.9803    1.1707 H       1  UNL1        0.0312
     32 H          -2.7069    1.1056    2.5708 H       1  UNL1        0.0233
     33 H          -1.6200   -0.3427    2.9115 H       1  UNL1        0.0233
     34 H          -1.0849    1.2996    3.2962 H       1  UNL1        0.0233
     35 H          -3.6876    1.6686    0.6791 H       1  UNL1        0.0564
     36 H          -3.6397    1.1658   -1.0293 H       1  UNL1        0.0564
     37 H          -2.9251    3.5150   -0.2288 H       1  UNL1        0.2094
     38 H          -1.3106   -0.9726   -1.4405 H       1  UNL1        0.0566
     39 H          -1.7908    0.6069   -2.0253 H       1  UNL1        0.0566
     40 H           0.7231    1.8380   -0.0197 H       1  UNL1        0.0652
     41 H           2.1175    1.4651   -2.3573 H       1  UNL1        0.0622
     42 H           4.4424    1.1935   -2.8896 H       1  UNL1        0.0654
     43 H           6.7393   -0.7683   -1.0668 H       1  UNL1        0.2921
     44 H           5.1103   -0.7206    0.8327 H       1  UNL1        0.0654
     45 H           2.6912   -0.4447    1.4052 H       1  UNL1        0.0622
@<TRIPOS>BOND
     1     1     2    1
     2     1     3    1
     3     3     4    2
     4     4     5    1
     5     4     6    1
     6     6     7    1
     7     7     8    1
     8     7     9    1
     9     9    10    1
    10    10    11    1
    11     9    12    1
    12    12    13    1
    13    13    14    1
    14    14    15    1
    15    15    16   ar
    16    16    17   ar
    17    17    18   ar
    18    18    19    1
    19    18    20   ar
    20    20    21   ar
    21     9     1    1
    22    21    15   ar
    23    14     6    1
    24     1    22    1
    25     2    23    1
    26     2    24    1
    27     2    25    1
    28     3    26    1
    29     5    27    1
    30     5    28    1
    31     5    29    1
    32     6    30    1
    33     7    31    1
    34     8    32    1
    35     8    33    1
    36     8    34    1
    37    10    35    1
    38    10    36    1
    39    11    37    1
    40    12    38    1
    41    12    39    1
    42    14    40    1
    43    16    41    1
    44    17    42    1
    45    19    43    1
    46    20    44    1
    47    21    45    1
