
     RDKit          3D

 44 47  0  0  0  0  0  0  0  0999 V2000
    3.5836    1.5720   -2.8626 O   0  0  0  0  0  0  0  0  0  0  0  0
    3.8838    0.4839   -1.8990 S   0  0  0  0  0  6  0  0  0  0  0  0
    4.3192   -0.7258   -2.6731 O   0  0  0  0  0  0  0  0  0  0  0  0
    5.1644    0.9047   -0.8179 N   0  0  0  0  0  0  0  0  0  0  0  0
    5.4920   -0.1966    0.0640 C   0  0  0  0  0  0  0  0  0  0  0  0
    6.5943    0.1246    1.0153 C   0  0  0  0  0  0  0  0  0  0  0  0
    7.7839    0.4612    0.3946 O   0  0  0  0  0  0  0  0  0  0  0  0
    2.4097    0.0953   -1.0362 C   0  0  0  0  0  0  0  0  0  0  0  0
    2.1525   -1.1977   -0.6408 C   0  0  0  0  0  0  0  0  0  0  0  0
    0.9920   -1.5009    0.0379 C   0  0  0  0  0  0  0  0  0  0  0  0
    0.0492   -0.5463    0.3491 C   0  0  0  0  0  0  0  0  0  0  0  0
   -1.1668   -0.9254    1.0770 C   0  0  0  0  0  0  0  0  0  0  0  0
   -1.0734   -1.7384    2.2086 C   0  0  0  0  0  0  0  0  0  0  0  0
   -2.1886   -2.1061    2.9126 C   0  0  0  0  0  0  0  0  0  0  0  0
   -3.3870   -1.6699    2.4964 N   0  0  0  0  0  0  0  0  0  0  0  0
   -3.5129   -0.8853    1.4101 C   0  0  0  0  0  0  0  0  0  0  0  0
   -4.6290   -0.3530    0.8417 N   0  0  0  0  0  0  0  0  0  0  0  0
   -4.2612    0.3643   -0.2336 C   0  0  0  0  0  0  0  0  0  0  0  0
   -5.1546    1.1099   -1.1405 C   0  0  0  0  0  0  0  0  0  0  0  0
   -6.3427    1.8301   -0.5623 C   0  0  0  0  0  0  0  0  0  0  0  0
   -6.5331    0.6351   -1.4343 C   0  0  0  0  0  0  0  0  0  0  0  0
   -2.8682    0.2749   -0.3374 C   0  0  0  0  0  0  0  0  0  0  0  0
   -2.4191   -0.5097    0.6984 C   0  0  0  0  0  0  0  0  0  0  0  0
    0.3008    0.7499   -0.0439 C   0  0  0  0  0  0  0  0  0  0  0  0
    1.4776    1.0646   -0.7335 C   0  0  0  0  0  0  0  0  0  0  0  0
    5.0214    1.7923   -0.3302 H   0  0  0  0  0  0  0  0  0  0  0  0
    5.7375   -1.1041   -0.4845 H   0  0  0  0  0  0  0  0  0  0  0  0
    4.5788   -0.4061    0.6598 H   0  0  0  0  0  0  0  0  0  0  0  0
    6.7913   -0.7823    1.6239 H   0  0  0  0  0  0  0  0  0  0  0  0
    6.2846    0.9148    1.7476 H   0  0  0  0  0  0  0  0  0  0  0  0
    7.6801    1.1174   -0.3350 H   0  0  0  0  0  0  0  0  0  0  0  0
    2.8525   -1.9833   -0.8565 H   0  0  0  0  0  0  0  0  0  0  0  0
    0.7852   -2.5135    0.3504 H   0  0  0  0  0  0  0  0  0  0  0  0
   -0.0906   -2.0900    2.5414 H   0  0  0  0  0  0  0  0  0  0  0  0
   -2.0502   -2.7379    3.7812 H   0  0  0  0  0  0  0  0  0  0  0  0
   -5.5780   -0.4990    1.2050 H   0  0  0  0  0  0  0  0  0  0  0  0
   -4.6497    1.6464   -1.9818 H   0  0  0  0  0  0  0  0  0  0  0  0
   -6.6419    2.8088   -0.9962 H   0  0  0  0  0  0  0  0  0  0  0  0
   -6.5730    1.7182    0.5081 H   0  0  0  0  0  0  0  0  0  0  0  0
   -6.9228    0.7724   -2.4837 H   0  0  0  0  0  0  0  0  0  0  0  0
   -6.9123   -0.3232   -1.0033 H   0  0  0  0  0  0  0  0  0  0  0  0
   -2.2542    0.7337   -1.0904 H   0  0  0  0  0  0  0  0  0  0  0  0
   -0.3916    1.5291    0.1719 H   0  0  0  0  0  0  0  0  0  0  0  0
    1.6662    2.0910   -1.0391 H   0  0  0  0  0  0  0  0  0  0  0  0
  1  2  2  0
  2  3  2  0
  2  4  1  0
  4  5  1  0
  5  6  1  0
  6  7  1  0
  2  8  1  0
  8  9  2  0
  9 10  1  0
 10 11  2  0
 11 12  1  0
 12 13  2  0
 13 14  1  0
 14 15  2  0
 15 16  1  0
 16 17  1  0
 17 18  1  0
 18 19  1  0
 19 20  1  0
 20 21  1  0
 18 22  2  0
 22 23  1  0
 11 24  1  0
 24 25  2  0
 25  8  1  0
 23 12  1  0
 23 16  2  0
 21 19  1  0
  4 26  1  0
  5 27  1  0
  5 28  1  0
  6 29  1  0
  6 30  1  0
  7 31  1  0
  9 32  1  0
 10 33  1  0
 13 34  1  0
 14 35  1  0
 17 36  1  0
 19 37  1  0
 20 38  1  0
 20 39  1  0
 21 40  1  0
 21 41  1  0
 22 42  1  0
 24 43  1  0
 25 44  1  0
M  END
$$$$
