@<TRIPOS>MOLECULE
*****
 44 47 0 0 0
SMALL
GASTEIGER

@<TRIPOS>ATOM
      1 O           3.5836    1.5720   -2.8626 O.2     1  UNL1       -0.1530
      2 S           3.8838    0.4839   -1.8990 S.O2    1  UNL1        0.0585
      3 O           4.3192   -0.7258   -2.6731 O.2     1  UNL1       -0.1530
      4 N           5.1644    0.9047   -0.8179 N.3     1  UNL1       -0.1878
      5 C           5.4920   -0.1966    0.0640 C.3     1  UNL1        0.0406
      6 C           6.5943    0.1246    1.0153 C.3     1  UNL1        0.0583
      7 O           7.7839    0.4612    0.3946 O.3     1  UNL1       -0.3937
      8 C           2.4097    0.0953   -1.0362 C.ar    1  UNL1        0.1053
      9 C           2.1525   -1.1977   -0.6408 C.ar    1  UNL1       -0.0348
     10 C           0.9920   -1.5009    0.0379 C.ar    1  UNL1       -0.0522
     11 C           0.0492   -0.5463    0.3491 C.ar    1  UNL1       -0.0170
     12 C          -1.1668   -0.9254    1.0770 C.ar    1  UNL1       -0.0058
     13 C          -1.0734   -1.7384    2.2086 C.ar    1  UNL1       -0.0352
     14 C          -2.1886   -2.1061    2.9126 C.ar    1  UNL1        0.0305
     15 N          -3.3870   -1.6699    2.4964 N.ar    1  UNL1       -0.2375
     16 C          -3.5129   -0.8853    1.4101 C.ar    1  UNL1        0.1389
     17 N          -4.6290   -0.3530    0.8417 N.ar    1  UNL1       -0.3427
     18 C          -4.2612    0.3643   -0.2336 C.ar    1  UNL1        0.0214
     19 C          -5.1546    1.1099   -1.1405 C.3     1  UNL1       -0.0006
     20 C          -6.3427    1.8301   -0.5623 C.3     1  UNL1       -0.0443
     21 C          -6.5331    0.6351   -1.4343 C.3     1  UNL1       -0.0443
     22 C          -2.8682    0.2749   -0.3374 C.ar    1  UNL1       -0.0310
     23 C          -2.4191   -0.5097    0.6984 C.ar    1  UNL1        0.0266
     24 C           0.3008    0.7499   -0.0439 C.ar    1  UNL1       -0.0522
     25 C           1.4776    1.0646   -0.7335 C.ar    1  UNL1       -0.0348
     26 H           5.0214    1.7923   -0.3302 H       1  UNL1        0.1481
     27 H           5.7375   -1.1041   -0.4845 H       1  UNL1        0.0464
     28 H           4.5788   -0.4061    0.6598 H       1  UNL1        0.0464
     29 H           6.7913   -0.7823    1.6239 H       1  UNL1        0.0570
     30 H           6.2846    0.9148    1.7476 H       1  UNL1        0.0570
     31 H           7.6801    1.1174   -0.3350 H       1  UNL1        0.2095
     32 H           2.8525   -1.9833   -0.8565 H       1  UNL1        0.0637
     33 H           0.7852   -2.5135    0.3504 H       1  UNL1        0.0624
     34 H          -0.0906   -2.0900    2.5414 H       1  UNL1        0.0639
     35 H          -2.0502   -2.7379    3.7812 H       1  UNL1        0.0830
     36 H          -5.5780   -0.4990    1.2050 H       1  UNL1        0.1670
     37 H          -4.6497    1.6464   -1.9818 H       1  UNL1        0.0363
     38 H          -6.6419    2.8088   -0.9962 H       1  UNL1        0.0272
     39 H          -6.5730    1.7182    0.5081 H       1  UNL1        0.0272
     40 H          -6.9228    0.7724   -2.4837 H       1  UNL1        0.0272
     41 H          -6.9123   -0.3232   -1.0033 H       1  UNL1        0.0272
     42 H          -2.2542    0.7337   -1.0904 H       1  UNL1        0.0642
     43 H          -0.3916    1.5291    0.1719 H       1  UNL1        0.0624
     44 H           1.6662    2.0910   -1.0391 H       1  UNL1        0.0637
@<TRIPOS>BOND
     1     1     2    2
     2     2     3    2
     3     2     4    1
     4     4     5    1
     5     5     6    1
     6     6     7    1
     7     2     8    1
     8     8     9   ar
     9     9    10   ar
    10    10    11   ar
    11    11    12    1
    12    12    13   ar
    13    13    14   ar
    14    14    15   ar
    15    15    16   ar
    16    16    17   ar
    17    17    18   ar
    18    18    19    1
    19    19    20    1
    20    20    21    1
    21    18    22   ar
    22    22    23   ar
    23    11    24   ar
    24    24    25   ar
    25    25     8   ar
    26    23    12   ar
    27    23    16   ar
    28    21    19    1
    29     4    26    1
    30     5    27    1
    31     5    28    1
    32     6    29    1
    33     6    30    1
    34     7    31    1
    35     9    32    1
    36    10    33    1
    37    13    34    1
    38    14    35    1
    39    17    36    1
    40    19    37    1
    41    20    38    1
    42    20    39    1
    43    21    40    1
    44    21    41    1
    45    22    42    1
    46    24    43    1
    47    25    44    1
