@<TRIPOS>MOLECULE
*****
 70 69 0 0 0
SMALL
GASTEIGER

@<TRIPOS>ATOM
      1 C          -2.8490    0.4536   -0.6296 C.3     1  UNL1        0.0470
      2 C          -3.7196    1.6007   -0.9867 C.3     1  UNL1       -0.0324
      3 C          -4.7517    1.2488   -1.9941 C.3     1  UNL1       -0.0516
      4 C          -4.1830    0.7556   -3.3031 C.3     1  UNL1       -0.0559
      5 C          -5.3700    0.4481   -4.1981 C.3     1  UNL1       -0.0653
      6 C          -3.6168   -0.7155   -0.0422 C.3     1  UNL1        0.0774
      7 O          -4.1060   -0.3515    1.1867 O.3     1  UNL1       -0.2848
      8 P          -4.9866   -1.5297    1.9833 P.3     1  UNL1        0.4750
      9 O          -4.1735   -1.8806    3.4363 O.3     1  UNL1       -0.3025
     10 O          -5.0164   -2.7898    1.1710 O.2     1  UNL1       -0.2273
     11 O          -6.5355   -1.0145    2.4007 O.3     1  UNL1       -0.2844
     12 C          -7.4147   -1.0239    1.3385 C.3     1  UNL1        0.0822
     13 C          -8.8040   -0.5590    1.7213 C.3     1  UNL1        0.0681
     14 O          -9.3743   -1.3478    2.6955 O.3     1  UNL1       -0.3927
     15 N          -1.7806    0.7716    0.2588 N.am    1  UNL1       -0.3102
     16 C          -0.3714    0.7068    0.0710 C.2     1  UNL1        0.2133
     17 O          -0.1304    0.2925   -1.0933 O.2     1  UNL1       -0.2758
     18 C           0.4103    1.1360    1.2730 C.3     1  UNL1        0.0240
     19 C           1.8724    0.9961    0.8700 C.3     1  UNL1       -0.0448
     20 C           2.7906    1.3914    1.9759 C.3     1  UNL1       -0.0526
     21 C           4.2176    1.2313    1.5546 C.3     1  UNL1       -0.0530
     22 C           4.4992    2.0986    0.3724 C.3     1  UNL1       -0.0531
     23 C           5.9350    1.9663   -0.0337 C.3     1  UNL1       -0.0531
     24 C           6.2871    0.5234   -0.4170 C.3     1  UNL1       -0.0531
     25 C           7.7250    0.4998   -0.8200 C.3     1  UNL1       -0.0531
     26 C           8.2079   -0.8165   -1.2603 C.3     1  UNL1       -0.0533
     27 C           8.1642   -1.9723   -0.3408 C.3     1  UNL1       -0.0559
     28 C           6.8455   -2.4367    0.1481 C.3     1  UNL1       -0.0653
     29 H          -2.3651    0.1130   -1.5843 H       1  UNL1        0.0521
     30 H          -3.0605    2.3767   -1.4454 H       1  UNL1        0.0284
     31 H          -4.2681    1.9955   -0.0976 H       1  UNL1        0.0284
     32 H          -5.3353    2.1625   -2.2352 H       1  UNL1        0.0266
     33 H          -5.4850    0.5014   -1.6705 H       1  UNL1        0.0266
     34 H          -3.4997    1.4742   -3.7726 H       1  UNL1        0.0263
     35 H          -3.7019   -0.2321   -3.0948 H       1  UNL1        0.0263
     36 H          -6.1914    0.0120   -3.5604 H       1  UNL1        0.0230
     37 H          -5.7879    1.3933   -4.5921 H       1  UNL1        0.0230
     38 H          -5.1277   -0.3040   -4.9675 H       1  UNL1        0.0230
     39 H          -2.9662   -1.6033    0.0921 H       1  UNL1        0.0584
     40 H          -4.4153   -1.0371   -0.7603 H       1  UNL1        0.0584
     41 H          -4.4333   -1.2727    4.1733 H       1  UNL1        0.2220
     42 H          -7.0888   -0.4925    0.4420 H       1  UNL1        0.0588
     43 H          -7.5454   -2.1049    1.0376 H       1  UNL1        0.0588
     44 H          -8.7950    0.5306    1.9701 H       1  UNL1        0.0580
     45 H          -9.4333   -0.6423    0.8047 H       1  UNL1        0.0580
     46 H          -9.7385   -0.7366    3.3992 H       1  UNL1        0.2095
     47 H          -2.2689    1.0875    1.1478 H       1  UNL1        0.1490
     48 H           0.1891    0.4313    2.1056 H       1  UNL1        0.0358
     49 H           0.1731    2.1523    1.5793 H       1  UNL1        0.0358
     50 H           2.1100   -0.0487    0.5869 H       1  UNL1        0.0270
     51 H           1.9763    1.6175   -0.0393 H       1  UNL1        0.0270
     52 H           2.5746    2.4080    2.3818 H       1  UNL1        0.0265
     53 H           2.6413    0.7042    2.8474 H       1  UNL1        0.0265
     54 H           4.3300    0.1591    1.2621 H       1  UNL1        0.0265
     55 H           4.8819    1.4916    2.3978 H       1  UNL1        0.0265
     56 H           4.3233    3.1698    0.5909 H       1  UNL1        0.0265
     57 H           3.9052    1.7618   -0.5205 H       1  UNL1        0.0265
     58 H           6.6218    2.3091    0.7687 H       1  UNL1        0.0265
     59 H           6.0955    2.6303   -0.9034 H       1  UNL1        0.0265
     60 H           6.1482   -0.1031    0.5093 H       1  UNL1        0.0265
     61 H           5.5763    0.1552   -1.1612 H       1  UNL1        0.0265
     62 H           8.3831    1.0017   -0.0701 H       1  UNL1        0.0265
     63 H           7.7945    1.1986   -1.7140 H       1  UNL1        0.0265
     64 H           7.7241   -1.0488   -2.2547 H       1  UNL1        0.0265
     65 H           9.3016   -0.6996   -1.5564 H       1  UNL1        0.0265
     66 H           8.8131   -1.8258    0.5700 H       1  UNL1        0.0263
     67 H           8.6703   -2.8367   -0.8707 H       1  UNL1        0.0263
     68 H           5.9739   -2.1989   -0.4939 H       1  UNL1        0.0230
     69 H           6.8599   -3.5805    0.1205 H       1  UNL1        0.0230
     70 H           6.6690   -2.2465    1.2397 H       1  UNL1        0.0230
@<TRIPOS>BOND
     1     1     2    1
     2     2     3    1
     3     3     4    1
     4     4     5    1
     5     1     6    1
     6     6     7    1
     7     8     7    1
     8     8     9    1
     9     8    10    2
    10     8    11    1
    11    11    12    1
    12    12    13    1
    13    13    14    1
    14     1    15    1
    15    15    16   am
    16    16    17    2
    17    16    18    1
    18    18    19    1
    19    19    20    1
    20    20    21    1
    21    21    22    1
    22    22    23    1
    23    23    24    1
    24    24    25    1
    25    25    26    1
    26    26    27    1
    27    27    28    1
    28     1    29    1
    29     2    30    1
    30     2    31    1
    31     3    32    1
    32     3    33    1
    33     4    34    1
    34     4    35    1
    35     5    36    1
    36     5    37    1
    37     5    38    1
    38     6    39    1
    39     6    40    1
    40     9    41    1
    41    12    42    1
    42    12    43    1
    43    13    44    1
    44    13    45    1
    45    14    46    1
    46    15    47    1
    47    18    48    1
    48    18    49    1
    49    19    50    1
    50    19    51    1
    51    20    52    1
    52    20    53    1
    53    21    54    1
    54    21    55    1
    55    22    56    1
    56    22    57    1
    57    23    58    1
    58    23    59    1
    59    24    60    1
    60    24    61    1
    61    25    62    1
    62    25    63    1
    63    26    64    1
    64    26    65    1
    65    27    66    1
    66    27    67    1
    67    28    68    1
    68    28    69    1
    69    28    70    1
