@<TRIPOS>MOLECULE
*****
 47 50 0 0 0
SMALL
GASTEIGER

@<TRIPOS>ATOM
      1 O          -3.0524    0.3392    1.3344 O.2     1  UNL1       -0.2755
      2 C          -2.5443   -0.4752    0.5162 C.2     1  UNL1        0.2175
      3 C          -1.0867   -0.7332    0.6540 C.3     1  UNL1        0.0284
      4 C          -0.4650    0.0368    1.7615 C.3     1  UNL1       -0.0162
      5 C           0.9819   -0.2713    1.8337 C.ar    1  UNL1       -0.0059
      6 C           1.5721   -1.1260    2.7348 C.ar    1  UNL1        0.0532
      7 N           2.8910   -1.1638    2.4971 N.ar    1  UNL1       -0.1743
      8 N           3.1568   -0.3613    1.4744 N.ar    1  UNL1       -0.2362
      9 C           2.0343    0.2057    1.0353 C.ar    1  UNL1        0.0484
     10 C           2.0193    1.1637   -0.0562 C.3     1  UNL1       -0.0060
     11 C           3.2860    1.3158   -0.7793 C.3     1  UNL1       -0.0201
     12 C           4.4719    0.7122   -0.1891 C.ar    1  UNL1       -0.0182
     13 C           5.7308    0.9584   -0.7373 C.ar    1  UNL1       -0.0150
     14 C           6.8561    0.3933   -0.2387 C.ar    1  UNL1        0.1172
     15 O           8.0893    0.6928   -0.8489 O.3     1  UNL1       -0.5068
     16 C           6.8151   -0.4602    0.8435 C.ar    1  UNL1       -0.0182
     17 C           5.5790   -0.7064    1.3883 C.ar    1  UNL1       -0.0325
     18 C           4.4249   -0.1242    0.8749 C.ar    1  UNL1        0.0690
     19 N          -3.3611   -1.0747   -0.4511 N.am    1  UNL1       -0.2848
     20 C          -4.7584   -0.7563   -0.4983 C.ar    1  UNL1        0.0474
     21 C          -5.6812   -1.4861    0.2220 C.ar    1  UNL1       -0.0397
     22 C          -7.0245   -1.1784    0.1766 C.ar    1  UNL1       -0.0600
     23 C          -7.5145   -0.1365   -0.5823 C.ar    1  UNL1       -0.0609
     24 C          -6.6013    0.5998   -1.3063 C.ar    1  UNL1       -0.0460
     25 C          -5.2436    0.2853   -1.2576 C.ar    1  UNL1        0.0800
     26 C          -4.2850    1.0748   -2.0330 C.2     1  UNL1        0.3386
     27 O          -4.6863    2.0452   -2.7501 O.2     1  UNL1       -0.2451
     28 O          -2.9432    0.8013   -2.0142 O.3     1  UNL1       -0.4771
     29 H          -0.6177   -0.5022   -0.3047 H       1  UNL1        0.0362
     30 H          -1.0088   -1.8358    0.8876 H       1  UNL1        0.0362
     31 H          -0.9146   -0.2047    2.7521 H       1  UNL1        0.0319
     32 H          -0.6510    1.1265    1.6247 H       1  UNL1        0.0319
     33 H           1.1114   -1.7015    3.5265 H       1  UNL1        0.0851
     34 H           1.1640    0.9627   -0.7642 H       1  UNL1        0.0331
     35 H           1.7079    2.1719    0.3862 H       1  UNL1        0.0331
     36 H           3.1601    0.8690   -1.8154 H       1  UNL1        0.0317
     37 H           3.5182    2.4107   -0.9317 H       1  UNL1        0.0317
     38 H           5.7794    1.6277   -1.5886 H       1  UNL1        0.0657
     39 H           8.6615   -0.1287   -1.0732 H       1  UNL1        0.2921
     40 H           7.7296   -0.8949    1.2168 H       1  UNL1        0.0655
     41 H           5.4857   -1.3627    2.2330 H       1  UNL1        0.0640
     42 H          -2.9349   -1.7526   -1.1307 H       1  UNL1        0.1548
     43 H          -5.2956   -2.3152    0.8257 H       1  UNL1        0.0636
     44 H          -7.7464   -1.7634    0.7511 H       1  UNL1        0.0618
     45 H          -8.5786    0.0724   -0.5903 H       1  UNL1        0.0618
     46 H          -6.9816    1.4200   -1.9039 H       1  UNL1        0.0626
     47 H          -2.2496    1.2301   -2.6313 H       1  UNL1        0.2954
@<TRIPOS>BOND
     1     1     2    2
     2     2     3    1
     3     3     4    1
     4     4     5    1
     5     5     6   ar
     6     6     7   ar
     7     7     8   ar
     8     8     9   ar
     9     9    10    1
    10    10    11    1
    11    11    12    1
    12    12    13   ar
    13    13    14   ar
    14    14    15    1
    15    14    16   ar
    16    16    17   ar
    17    17    18   ar
    18     2    19   am
    19    19    20    1
    20    20    21   ar
    21    21    22   ar
    22    22    23   ar
    23    23    24   ar
    24    24    25   ar
    25    25    26    1
    26    26    27    2
    27    26    28    1
    28     9     5   ar
    29    18    12   ar
    30    25    20   ar
    31    18     8    1
    32     3    29    1
    33     3    30    1
    34     4    31    1
    35     4    32    1
    36     6    33    1
    37    10    34    1
    38    10    35    1
    39    11    36    1
    40    11    37    1
    41    13    38    1
    42    15    39    1
    43    16    40    1
    44    17    41    1
    45    19    42    1
    46    21    43    1
    47    22    44    1
    48    23    45    1
    49    24    46    1
    50    28    47    1
