
     RDKit          3D

 47 50  0  0  0  0  0  0  0  0999 V2000
   -3.0524    0.3392    1.3344 O   0  0  0  0  0  0  0  0  0  0  0  0
   -2.5443   -0.4752    0.5162 C   0  0  0  0  0  0  0  0  0  0  0  0
   -1.0867   -0.7332    0.6540 C   0  0  0  0  0  0  0  0  0  0  0  0
   -0.4650    0.0368    1.7615 C   0  0  0  0  0  0  0  0  0  0  0  0
    0.9819   -0.2713    1.8337 C   0  0  0  0  0  0  0  0  0  0  0  0
    1.5721   -1.1260    2.7348 C   0  0  0  0  0  0  0  0  0  0  0  0
    2.8910   -1.1638    2.4971 N   0  0  0  0  0  0  0  0  0  0  0  0
    3.1568   -0.3613    1.4744 N   0  0  0  0  0  0  0  0  0  0  0  0
    2.0343    0.2057    1.0353 C   0  0  0  0  0  0  0  0  0  0  0  0
    2.0193    1.1637   -0.0562 C   0  0  0  0  0  0  0  0  0  0  0  0
    3.2860    1.3158   -0.7793 C   0  0  0  0  0  0  0  0  0  0  0  0
    4.4719    0.7122   -0.1891 C   0  0  0  0  0  0  0  0  0  0  0  0
    5.7308    0.9584   -0.7373 C   0  0  0  0  0  0  0  0  0  0  0  0
    6.8561    0.3933   -0.2387 C   0  0  0  0  0  0  0  0  0  0  0  0
    8.0893    0.6928   -0.8489 O   0  0  0  0  0  0  0  0  0  0  0  0
    6.8151   -0.4602    0.8435 C   0  0  0  0  0  0  0  0  0  0  0  0
    5.5790   -0.7064    1.3883 C   0  0  0  0  0  0  0  0  0  0  0  0
    4.4249   -0.1242    0.8749 C   0  0  0  0  0  0  0  0  0  0  0  0
   -3.3611   -1.0747   -0.4511 N   0  0  0  0  0  0  0  0  0  0  0  0
   -4.7584   -0.7563   -0.4983 C   0  0  0  0  0  0  0  0  0  0  0  0
   -5.6812   -1.4861    0.2220 C   0  0  0  0  0  0  0  0  0  0  0  0
   -7.0245   -1.1784    0.1766 C   0  0  0  0  0  0  0  0  0  0  0  0
   -7.5145   -0.1365   -0.5823 C   0  0  0  0  0  0  0  0  0  0  0  0
   -6.6013    0.5998   -1.3063 C   0  0  0  0  0  0  0  0  0  0  0  0
   -5.2436    0.2853   -1.2576 C   0  0  0  0  0  0  0  0  0  0  0  0
   -4.2850    1.0748   -2.0330 C   0  0  0  0  0  0  0  0  0  0  0  0
   -4.6863    2.0452   -2.7501 O   0  0  0  0  0  0  0  0  0  0  0  0
   -2.9432    0.8013   -2.0142 O   0  0  0  0  0  0  0  0  0  0  0  0
   -0.6177   -0.5022   -0.3047 H   0  0  0  0  0  0  0  0  0  0  0  0
   -1.0088   -1.8358    0.8876 H   0  0  0  0  0  0  0  0  0  0  0  0
   -0.9146   -0.2047    2.7521 H   0  0  0  0  0  0  0  0  0  0  0  0
   -0.6510    1.1265    1.6247 H   0  0  0  0  0  0  0  0  0  0  0  0
    1.1114   -1.7015    3.5265 H   0  0  0  0  0  0  0  0  0  0  0  0
    1.1640    0.9627   -0.7642 H   0  0  0  0  0  0  0  0  0  0  0  0
    1.7079    2.1719    0.3862 H   0  0  0  0  0  0  0  0  0  0  0  0
    3.1601    0.8690   -1.8154 H   0  0  0  0  0  0  0  0  0  0  0  0
    3.5182    2.4107   -0.9317 H   0  0  0  0  0  0  0  0  0  0  0  0
    5.7794    1.6277   -1.5886 H   0  0  0  0  0  0  0  0  0  0  0  0
    8.6615   -0.1287   -1.0732 H   0  0  0  0  0  0  0  0  0  0  0  0
    7.7296   -0.8949    1.2168 H   0  0  0  0  0  0  0  0  0  0  0  0
    5.4857   -1.3627    2.2330 H   0  0  0  0  0  0  0  0  0  0  0  0
   -2.9349   -1.7526   -1.1307 H   0  0  0  0  0  0  0  0  0  0  0  0
   -5.2956   -2.3152    0.8257 H   0  0  0  0  0  0  0  0  0  0  0  0
   -7.7464   -1.7634    0.7511 H   0  0  0  0  0  0  0  0  0  0  0  0
   -8.5786    0.0724   -0.5903 H   0  0  0  0  0  0  0  0  0  0  0  0
   -6.9816    1.4200   -1.9039 H   0  0  0  0  0  0  0  0  0  0  0  0
   -2.2496    1.2301   -2.6313 H   0  0  0  0  0  0  0  0  0  0  0  0
  1  2  2  0
  2  3  1  0
  3  4  1  0
  4  5  1  0
  5  6  1  0
  6  7  2  0
  7  8  1  0
  8  9  1  0
  9 10  1  0
 10 11  1  0
 11 12  1  0
 12 13  2  0
 13 14  1  0
 14 15  1  0
 14 16  2  0
 16 17  1  0
 17 18  2  0
  2 19  1  0
 19 20  1  0
 20 21  2  0
 21 22  1  0
 22 23  2  0
 23 24  1  0
 24 25  2  0
 25 26  1  0
 26 27  2  0
 26 28  1  0
  9  5  2  0
 18 12  1  0
 25 20  1  0
 18  8  1  0
  3 29  1  0
  3 30  1  0
  4 31  1  0
  4 32  1  0
  6 33  1  0
 10 34  1  0
 10 35  1  0
 11 36  1  0
 11 37  1  0
 13 38  1  0
 15 39  1  0
 16 40  1  0
 17 41  1  0
 19 42  1  0
 21 43  1  0
 22 44  1  0
 23 45  1  0
 24 46  1  0
 28 47  1  0
M  END
$$$$
