@<TRIPOS>MOLECULE
*****
 39 41 0 0 0
SMALL
GASTEIGER

@<TRIPOS>ATOM
      1 C          -1.4838   -0.2991   -1.3292 C.3     1  UNL1        0.1152
      2 N          -0.3119    0.2894   -0.7114 N.pl3   1  UNL1       -0.3143
      3 C           0.7459   -0.6527   -0.9174 C.3     1  UNL1        0.0378
      4 C           2.0721   -0.3569   -0.3922 C.ar    1  UNL1       -0.0302
      5 C           2.3791   -0.7563    0.9147 C.ar    1  UNL1       -0.0571
      6 C           3.6562   -0.5086    1.4170 C.ar    1  UNL1       -0.0615
      7 C           4.5591    0.1208    0.5987 C.ar    1  UNL1       -0.0617
      8 C           4.2844    0.5241   -0.6876 C.ar    1  UNL1       -0.0615
      9 C           3.0131    0.2869   -1.2127 C.ar    1  UNL1       -0.0571
     10 C          -0.4276    1.5426   -0.0593 C.ar    1  UNL1        0.0305
     11 C          -1.6727    2.1250    0.0077 C.ar    1  UNL1       -0.0406
     12 C          -1.8823    3.3261    0.6031 C.ar    1  UNL1       -0.0600
     13 C          -0.8495    4.0471    1.1859 C.ar    1  UNL1       -0.0616
     14 C           0.4203    3.4956    1.1413 C.ar    1  UNL1       -0.0600
     15 C           0.5681    2.2774    0.5243 C.ar    1  UNL1       -0.0406
     16 C          -1.9953   -1.4872   -0.5964 C.2     1  UNL1        0.2984
     17 N          -1.5789   -2.0287    0.4973 N.2     1  UNL1       -0.0823
     18 C          -2.3453   -3.1731    0.8833 C.3     1  UNL1        0.1672
     19 C          -3.3101   -3.4093   -0.2563 C.3     1  UNL1        0.1195
     20 N          -3.1156   -2.2246   -1.0668 N.pl3   1  UNL1       -0.2324
     21 H          -2.2714    0.4292   -1.5738 H       1  UNL1        0.0588
     22 H          -1.1446   -0.7222   -2.3355 H       1  UNL1        0.0588
     23 H           0.8432   -0.8461   -2.0413 H       1  UNL1        0.0513
     24 H           0.4985   -1.6803   -0.5382 H       1  UNL1        0.0513
     25 H           1.6016   -1.2536    1.5032 H       1  UNL1        0.0621
     26 H           3.8491   -0.8322    2.4203 H       1  UNL1        0.0618
     27 H           5.5188    0.2749    1.0640 H       1  UNL1        0.0618
     28 H           5.0789    1.0236   -1.2636 H       1  UNL1        0.0618
     29 H           2.7985    0.6037   -2.2220 H       1  UNL1        0.0621
     30 H          -2.6275    1.7773   -0.3507 H       1  UNL1        0.0636
     31 H          -2.8265    3.8660    0.7077 H       1  UNL1        0.0618
     32 H          -0.9613    5.0154    1.6771 H       1  UNL1        0.0618
     33 H           1.2481    4.0306    1.5856 H       1  UNL1        0.0618
     34 H           1.5594    1.9174    0.5289 H       1  UNL1        0.0636
     35 H          -2.9343   -2.9285    1.8138 H       1  UNL1        0.0829
     36 H          -1.7537   -4.1020    1.0254 H       1  UNL1        0.0829
     37 H          -4.3639   -3.3741    0.1283 H       1  UNL1        0.0765
     38 H          -3.1003   -4.3502   -0.7977 H       1  UNL1        0.0765
     39 H          -3.7380   -1.9874   -1.8755 H       1  UNL1        0.2912
@<TRIPOS>BOND
     1     1     2    1
     2     2     3    1
     3     3     4    1
     4     4     5   ar
     5     5     6   ar
     6     6     7   ar
     7     7     8   ar
     8     8     9   ar
     9     2    10    1
    10    10    11   ar
    11    11    12   ar
    12    12    13   ar
    13    13    14   ar
    14    14    15   ar
    15     1    16    1
    16    16    17    2
    17    17    18    1
    18    18    19    1
    19    19    20    1
    20     9     4   ar
    21    15    10   ar
    22    20    16    1
    23     1    21    1
    24     1    22    1
    25     3    23    1
    26     3    24    1
    27     5    25    1
    28     6    26    1
    29     7    27    1
    30     8    28    1
    31     9    29    1
    32    11    30    1
    33    12    31    1
    34    13    32    1
    35    14    33    1
    36    15    34    1
    37    18    35    1
    38    18    36    1
    39    19    37    1
    40    19    38    1
    41    20    39    1
