@<TRIPOS>MOLECULE
*****
 52 57 0 0 0
SMALL
GASTEIGER

@<TRIPOS>ATOM
      1 C          -4.3825    0.7998   -1.0460 C.3     1  UNL1       -0.0203
      2 C          -3.5490   -0.4094   -0.7893 C.ar    1  UNL1        0.0660
      3 N          -3.9394   -1.6725   -0.5591 N.ar    1  UNL1       -0.1752
      4 N          -2.9099   -2.4742   -0.3745 N.ar    1  UNL1       -0.2556
      5 C          -2.9989   -3.9148   -0.1013 C.3     1  UNL1        0.0537
      6 C          -2.1867   -4.5303    0.9539 C.3     1  UNL1       -0.0285
      7 C          -3.6271   -4.2328    1.2352 C.3     1  UNL1       -0.0285
      8 C          -1.8030   -1.7322   -0.4834 C.ar    1  UNL1        0.1297
      9 C          -2.1785   -0.4487   -0.7403 C.ar    1  UNL1        0.0305
     10 C          -0.9626    0.4348   -0.8677 C.3     1  UNL1        0.0881
     11 C          -1.0381    1.5467    0.1149 C.ar    1  UNL1        0.0132
     12 C          -1.2005    2.8509   -0.3024 C.ar    1  UNL1       -0.0510
     13 C          -1.2691    3.9012    0.6088 C.ar    1  UNL1       -0.0259
     14 C          -1.1771    3.6766    1.9657 C.ar    1  UNL1        0.1261
     15 F          -1.2444    4.7067    2.8547 F       1  UNL1       -0.2054
     16 C          -1.0148    2.3745    2.3881 C.ar    1  UNL1        0.0091
     17 C          -0.9465    1.3236    1.4711 C.ar    1  UNL1        0.1314
     18 F          -0.7896    0.0442    1.9053 F       1  UNL1       -0.2050
     19 N           0.1569   -0.4402   -0.6798 N.am    1  UNL1       -0.2530
     20 C           1.5133   -0.0762   -0.7272 C.ar    1  UNL1        0.0545
     21 C           2.1834   -0.1272   -1.9551 C.ar    1  UNL1       -0.0324
     22 C           3.5117    0.2126   -2.0866 C.ar    1  UNL1       -0.0041
     23 C           4.2245    0.1584   -3.3928 C.3     1  UNL1       -0.0361
     24 C           4.1811    0.6152   -0.9450 C.ar    1  UNL1        0.1641
     25 N           5.4407    1.0022   -0.7313 N.ar    1  UNL1       -0.1292
     26 N           5.6023    1.2938    0.5598 N.ar    1  UNL1       -0.1340
     27 C           4.4389    1.0976    1.2046 C.ar    1  UNL1        0.1347
     28 C           4.2088    1.3128    2.6571 C.3     1  UNL1       -0.0041
     29 N           3.5641    0.6761    0.2587 N.ar    1  UNL1       -0.2846
     30 C           2.2587    0.3347    0.3488 C.ar    1  UNL1        0.0344
     31 C          -0.3415   -1.7370   -0.4430 C.2     1  UNL1        0.2700
     32 O           0.3310   -2.7936   -0.2211 O.2     1  UNL1       -0.2679
     33 H          -3.7556    1.5855   -1.5130 H       1  UNL1        0.0293
     34 H          -4.8465    1.1916   -0.1188 H       1  UNL1        0.0293
     35 H          -5.1902    0.5809   -1.7909 H       1  UNL1        0.0293
     36 H          -3.2881   -4.4899   -1.0000 H       1  UNL1        0.0545
     37 H          -1.9428   -5.6213    0.7919 H       1  UNL1        0.0286
     38 H          -1.4189   -4.0029    1.5218 H       1  UNL1        0.0286
     39 H          -3.8095   -3.4145    1.9523 H       1  UNL1        0.0286
     40 H          -4.3840   -5.0415    1.2042 H       1  UNL1        0.0286
     41 H          -0.9033    0.8207   -1.9138 H       1  UNL1        0.0607
     42 H          -1.2731    3.0306   -1.3694 H       1  UNL1        0.0623
     43 H          -1.3967    4.9258    0.2779 H       1  UNL1        0.0646
     44 H          -0.9423    2.1944    3.4475 H       1  UNL1        0.0675
     45 H           1.6276   -0.4433   -2.8086 H       1  UNL1        0.0640
     46 H           3.6357   -0.4360   -4.1235 H       1  UNL1        0.0279
     47 H           4.4087    1.1681   -3.8072 H       1  UNL1        0.0279
     48 H           5.2077   -0.3367   -3.2918 H       1  UNL1        0.0279
     49 H           4.5757    2.3073    2.9838 H       1  UNL1        0.0308
     50 H           3.1305    1.2862    2.8967 H       1  UNL1        0.0308
     51 H           4.6983    0.5259    3.2682 H       1  UNL1        0.0308
     52 H           1.8101    0.3956    1.3121 H       1  UNL1        0.0833
@<TRIPOS>BOND
     1     1     2    1
     2     2     3   ar
     3     3     4   ar
     4     4     5    1
     5     5     6    1
     6     6     7    1
     7     4     8   ar
     8     8     9   ar
     9     9    10    1
    10    10    11    1
    11    11    12   ar
    12    12    13   ar
    13    13    14   ar
    14    14    15    1
    15    14    16   ar
    16    16    17   ar
    17    17    18    1
    18    10    19    1
    19    19    20    1
    20    20    21   ar
    21    21    22   ar
    22    22    23    1
    23    22    24   ar
    24    24    25   ar
    25    25    26   ar
    26    26    27   ar
    27    27    28    1
    28    27    29   ar
    29    29    30   ar
    30    19    31   am
    31    31    32    2
    32     9     2   ar
    33    17    11   ar
    34    30    20   ar
    35     7     5    1
    36    31     8    1
    37    29    24   ar
    38     1    33    1
    39     1    34    1
    40     1    35    1
    41     5    36    1
    42     6    37    1
    43     6    38    1
    44     7    39    1
    45     7    40    1
    46    10    41    1
    47    12    42    1
    48    13    43    1
    49    16    44    1
    50    21    45    1
    51    23    46    1
    52    23    47    1
    53    23    48    1
    54    28    49    1
    55    28    50    1
    56    28    51    1
    57    30    52    1
