
     RDKit          3D

 52 57  0  0  0  0  0  0  0  0999 V2000
   -4.3825    0.7998   -1.0460 C   0  0  0  0  0  0  0  0  0  0  0  0
   -3.5490   -0.4094   -0.7893 C   0  0  0  0  0  0  0  0  0  0  0  0
   -3.9394   -1.6725   -0.5591 N   0  0  0  0  0  0  0  0  0  0  0  0
   -2.9099   -2.4742   -0.3745 N   0  0  0  0  0  0  0  0  0  0  0  0
   -2.9989   -3.9148   -0.1013 C   0  0  0  0  0  0  0  0  0  0  0  0
   -2.1867   -4.5303    0.9539 C   0  0  0  0  0  0  0  0  0  0  0  0
   -3.6271   -4.2328    1.2352 C   0  0  0  0  0  0  0  0  0  0  0  0
   -1.8030   -1.7322   -0.4834 C   0  0  0  0  0  0  0  0  0  0  0  0
   -2.1785   -0.4487   -0.7403 C   0  0  0  0  0  0  0  0  0  0  0  0
   -0.9626    0.4348   -0.8677 C   0  0  1  0  0  0  0  0  0  0  0  0
   -1.0381    1.5467    0.1149 C   0  0  0  0  0  0  0  0  0  0  0  0
   -1.2005    2.8509   -0.3024 C   0  0  0  0  0  0  0  0  0  0  0  0
   -1.2691    3.9012    0.6088 C   0  0  0  0  0  0  0  0  0  0  0  0
   -1.1771    3.6766    1.9657 C   0  0  0  0  0  0  0  0  0  0  0  0
   -1.2444    4.7067    2.8547 F   0  0  0  0  0  0  0  0  0  0  0  0
   -1.0148    2.3745    2.3881 C   0  0  0  0  0  0  0  0  0  0  0  0
   -0.9465    1.3236    1.4711 C   0  0  0  0  0  0  0  0  0  0  0  0
   -0.7896    0.0442    1.9053 F   0  0  0  0  0  0  0  0  0  0  0  0
    0.1569   -0.4402   -0.6798 N   0  0  0  0  0  0  0  0  0  0  0  0
    1.5133   -0.0762   -0.7272 C   0  0  0  0  0  0  0  0  0  0  0  0
    2.1834   -0.1272   -1.9551 C   0  0  0  0  0  0  0  0  0  0  0  0
    3.5117    0.2126   -2.0866 C   0  0  0  0  0  0  0  0  0  0  0  0
    4.2245    0.1584   -3.3928 C   0  0  0  0  0  0  0  0  0  0  0  0
    4.1811    0.6152   -0.9450 C   0  0  0  0  0  0  0  0  0  0  0  0
    5.4407    1.0022   -0.7313 N   0  0  0  0  0  0  0  0  0  0  0  0
    5.6023    1.2938    0.5598 N   0  0  0  0  0  0  0  0  0  0  0  0
    4.4389    1.0976    1.2046 C   0  0  0  0  0  0  0  0  0  0  0  0
    4.2088    1.3128    2.6571 C   0  0  0  0  0  0  0  0  0  0  0  0
    3.5641    0.6761    0.2587 N   0  0  0  0  0  0  0  0  0  0  0  0
    2.2587    0.3347    0.3488 C   0  0  0  0  0  0  0  0  0  0  0  0
   -0.3415   -1.7370   -0.4430 C   0  0  0  0  0  0  0  0  0  0  0  0
    0.3310   -2.7936   -0.2211 O   0  0  0  0  0  0  0  0  0  0  0  0
   -3.7556    1.5855   -1.5130 H   0  0  0  0  0  0  0  0  0  0  0  0
   -4.8465    1.1916   -0.1188 H   0  0  0  0  0  0  0  0  0  0  0  0
   -5.1902    0.5809   -1.7909 H   0  0  0  0  0  0  0  0  0  0  0  0
   -3.2881   -4.4899   -1.0000 H   0  0  0  0  0  0  0  0  0  0  0  0
   -1.9428   -5.6213    0.7919 H   0  0  0  0  0  0  0  0  0  0  0  0
   -1.4189   -4.0029    1.5218 H   0  0  0  0  0  0  0  0  0  0  0  0
   -3.8095   -3.4145    1.9523 H   0  0  0  0  0  0  0  0  0  0  0  0
   -4.3840   -5.0415    1.2042 H   0  0  0  0  0  0  0  0  0  0  0  0
   -0.9033    0.8207   -1.9138 H   0  0  0  0  0  0  0  0  0  0  0  0
   -1.2731    3.0306   -1.3694 H   0  0  0  0  0  0  0  0  0  0  0  0
   -1.3967    4.9258    0.2779 H   0  0  0  0  0  0  0  0  0  0  0  0
   -0.9423    2.1944    3.4475 H   0  0  0  0  0  0  0  0  0  0  0  0
    1.6276   -0.4433   -2.8086 H   0  0  0  0  0  0  0  0  0  0  0  0
    3.6357   -0.4360   -4.1235 H   0  0  0  0  0  0  0  0  0  0  0  0
    4.4087    1.1681   -3.8072 H   0  0  0  0  0  0  0  0  0  0  0  0
    5.2077   -0.3367   -3.2918 H   0  0  0  0  0  0  0  0  0  0  0  0
    4.5757    2.3073    2.9838 H   0  0  0  0  0  0  0  0  0  0  0  0
    3.1305    1.2862    2.8967 H   0  0  0  0  0  0  0  0  0  0  0  0
    4.6983    0.5259    3.2682 H   0  0  0  0  0  0  0  0  0  0  0  0
    1.8101    0.3956    1.3121 H   0  0  0  0  0  0  0  0  0  0  0  0
  1  2  1  0
  2  3  2  0
  3  4  1  0
  4  5  1  0
  5  6  1  0
  6  7  1  0
  4  8  1  0
  8  9  2  0
  9 10  1  0
 10 11  1  0
 11 12  2  0
 12 13  1  0
 13 14  2  0
 14 15  1  0
 14 16  1  0
 16 17  2  0
 17 18  1  0
 10 19  1  0
 19 20  1  0
 20 21  1  0
 21 22  2  0
 22 23  1  0
 22 24  1  0
 24 25  2  0
 25 26  1  0
 26 27  2  0
 27 28  1  0
 27 29  1  0
 29 30  1  0
 19 31  1  0
 31 32  2  0
  9  2  1  0
 17 11  1  0
 30 20  2  0
  7  5  1  0
 31  8  1  0
 29 24  1  0
  1 33  1  0
  1 34  1  0
  1 35  1  0
  5 36  1  0
  6 37  1  0
  6 38  1  0
  7 39  1  0
  7 40  1  0
 10 41  1  6
 12 42  1  0
 13 43  1  0
 16 44  1  0
 21 45  1  0
 23 46  1  0
 23 47  1  0
 23 48  1  0
 28 49  1  0
 28 50  1  0
 28 51  1  0
 30 52  1  0
M  END
$$$$
