
     RDKit          3D

 33 34  0  0  0  0  0  0  0  0999 V2000
   -4.3411    1.5889    0.8237 C   0  0  0  0  0  0  0  0  0  0  0  0
   -3.4974    2.1475   -0.6324 S   0  0  0  0  0  0  0  0  0  0  0  0
   -3.5376    3.6405   -0.6518 O   0  0  0  0  0  0  0  0  0  0  0  0
   -4.1267    1.5550   -1.8636 O   0  0  0  0  0  0  0  0  0  0  0  0
   -1.8406    1.6630   -0.5052 N   0  0  0  0  0  0  0  0  0  0  0  0
   -1.3946    0.3166   -0.4227 C   0  0  0  0  0  0  0  0  0  0  0  0
   -0.0662   -0.0656   -0.2369 C   0  0  0  0  0  0  0  0  0  0  0  0
    0.8582    0.9648   -0.1266 O   0  0  0  0  0  0  0  0  0  0  0  0
    2.2121    0.7491    0.0601 C   0  0  0  0  0  0  0  0  0  0  0  0
    3.1241    0.6118   -0.9692 C   0  0  0  0  0  0  0  0  0  0  0  0
    4.4713    0.3970   -0.7595 C   0  0  0  0  0  0  0  0  0  0  0  0
    4.9229    0.3165    0.5398 C   0  0  0  0  0  0  0  0  0  0  0  0
    4.0711    0.4440    1.6177 C   0  0  0  0  0  0  0  0  0  0  0  0
    2.7265    0.6589    1.3399 C   0  0  0  0  0  0  0  0  0  0  0  0
    0.2772   -1.4000   -0.1707 C   0  0  0  0  0  0  0  0  0  0  0  0
   -0.6514   -2.4141   -0.2818 C   0  0  0  0  0  0  0  0  0  0  0  0
   -1.9689   -2.0480   -0.4659 C   0  0  0  0  0  0  0  0  0  0  0  0
   -2.3073   -0.7121   -0.5314 C   0  0  0  0  0  0  0  0  0  0  0  0
   -0.1352   -3.7370   -0.1922 N   0  0  0  0  0  4  0  0  0  0  0  0
    1.1809   -4.0856   -0.0086 O   0  0  0  0  0  1  0  0  0  0  0  0
   -0.9171   -4.7181   -0.2838 O   0  0  0  0  0  0  0  0  0  0  0  0
   -5.3832    1.3073    0.5669 H   0  0  0  0  0  0  0  0  0  0  0  0
   -3.7852    0.7244    1.2897 H   0  0  0  0  0  0  0  0  0  0  0  0
   -4.3589    2.4236    1.5504 H   0  0  0  0  0  0  0  0  0  0  0  0
   -1.0527    2.3771   -0.4823 H   0  0  0  0  0  0  0  0  0  0  0  0
    2.7272    0.6817   -1.9944 H   0  0  0  0  0  0  0  0  0  0  0  0
    5.1815    0.2901   -1.5774 H   0  0  0  0  0  0  0  0  0  0  0  0
    5.9634    0.1500    0.7965 H   0  0  0  0  0  0  0  0  0  0  0  0
    4.3353    0.3950    2.6654 H   0  0  0  0  0  0  0  0  0  0  0  0
    2.0127    0.7663    2.1588 H   0  0  0  0  0  0  0  0  0  0  0  0
    1.3414   -1.5548   -0.0241 H   0  0  0  0  0  0  0  0  0  0  0  0
   -2.6733   -2.8640   -0.5494 H   0  0  0  0  0  0  0  0  0  0  0  0
   -3.3684   -0.5699   -0.6789 H   0  0  0  0  0  0  0  0  0  0  0  0
  1  2  1  0
  2  3  2  0
  2  4  2  0
  2  5  1  0
  5  6  1  0
  6  7  2  0
  7  8  1  0
  8  9  1  0
  9 10  2  0
 10 11  1  0
 11 12  2  0
 12 13  1  0
 13 14  2  0
  7 15  1  0
 15 16  2  0
 16 17  1  0
 17 18  2  0
 16 19  1  0
 19 20  1  0
 19 21  2  0
 18  6  1  0
 14  9  1  0
  1 22  1  0
  1 23  1  0
  1 24  1  0
  5 25  1  0
 10 26  1  0
 11 27  1  0
 12 28  1  0
 13 29  1  0
 14 30  1  0
 15 31  1  0
 17 32  1  0
 18 33  1  0
M  CHG  2  19   1  20  -1
M  END
$$$$
