
     RDKit          3D

 72 77  0  0  0  0  0  0  0  0999 V2000
    7.0701    0.9362    1.1834 C   0  0  0  0  0  0  0  0  0  0  0  0
    7.3914   -0.3967    0.6144 C   0  0  0  0  0  0  0  0  0  0  0  0
    8.7391   -0.7819    0.5808 C   0  0  0  0  0  0  0  0  0  0  0  0
    9.0977   -2.0091    0.0719 C   0  0  0  0  0  0  0  0  0  0  0  0
   10.4902   -2.4166    0.0335 C   0  0  0  0  0  0  0  0  0  0  0  0
   11.3776   -1.6337    0.4720 O   0  0  0  0  0  0  0  0  0  0  0  0
   10.8854   -3.6520   -0.4749 O   0  0  0  0  0  0  0  0  0  0  0  0
    8.1022   -2.8426   -0.4004 C   0  0  0  0  0  0  0  0  0  0  0  0
    6.7659   -2.4642   -0.3689 C   0  0  0  0  0  0  0  0  0  0  0  0
    6.4019   -1.2233    0.1454 C   0  0  0  0  0  0  0  0  0  0  0  0
    4.9913   -0.8101    0.1756 C   0  0  0  0  0  0  0  0  0  0  0  0
    4.6153    0.4285   -0.2803 C   0  0  0  0  0  0  0  0  0  0  0  0
    3.2671    0.8060   -0.2418 C   0  0  0  0  0  0  0  0  0  0  0  0
    2.2731   -0.0095    0.2366 C   0  0  0  0  0  0  0  0  0  0  0  0
    0.9183    0.4121    0.2551 N   0  0  0  0  0  0  0  0  0  0  0  0
    0.3791    1.6395   -0.1908 C   0  0  0  0  0  0  0  0  0  0  0  0
    0.9815    2.6168   -0.6955 O   0  0  0  0  0  0  0  0  0  0  0  0
   -1.0538    1.6650    0.0062 N   0  0  0  0  0  0  0  0  0  0  0  0
   -1.8681    2.8079    0.0197 C   0  0  0  0  0  0  0  0  0  0  0  0
   -2.1170    3.4998    1.2117 C   0  0  0  0  0  0  0  0  0  0  0  0
   -2.8934    4.5957    1.2420 N   0  0  0  0  0  0  0  0  0  0  0  0
   -3.4477    5.0449    0.1052 C   0  0  0  0  0  0  0  0  0  0  0  0
   -3.2324    4.3961   -1.1023 C   0  0  0  0  0  0  0  0  0  0  0  0
   -2.4574    3.3178   -1.0765 N   0  0  0  0  0  0  0  0  0  0  0  0
   -1.4477    0.2984    0.1854 C   0  0  0  0  0  0  0  0  0  0  0  0
   -2.5202    0.0817    1.2098 C   0  0  0  0  0  0  0  0  0  0  0  0
   -3.9009    0.3389    0.6902 C   0  0  0  0  0  0  0  0  0  0  0  0
   -4.1848   -0.3634   -0.5279 N   0  0  0  0  0  0  0  0  0  0  0  0
   -5.4627    0.0951   -1.0958 C   0  0  0  0  0  0  0  0  0  0  0  0
   -6.5905   -0.1458   -0.1644 C   0  0  0  0  0  0  0  0  0  0  0  0
   -7.0882    0.8974    0.5169 N   0  0  0  0  0  0  0  0  0  0  0  0
   -8.1223    0.7443    1.3871 C   0  0  0  0  0  0  0  0  0  0  0  0
   -8.6945   -0.4855    1.6000 C   0  0  0  0  0  0  0  0  0  0  0  0
   -8.2092   -1.5800    0.9176 C   0  0  0  0  0  0  0  0  0  0  0  0
   -7.1489   -1.3823    0.0348 C   0  0  0  0  0  0  0  0  0  0  0  0
   -6.6016   -2.5351   -0.7156 C   0  0  0  0  0  0  0  0  0  0  0  0
   -3.2063   -0.1901   -1.5511 C   0  0  0  0  0  0  0  0  0  0  0  0
   -1.7973   -0.3915   -1.0906 C   0  0  0  0  0  0  0  0  0  0  0  0
   -0.1924   -0.3495    0.7424 C   0  0  0  0  0  0  0  0  0  0  0  0
   -0.1787   -1.3444    1.4743 O   0  0  0  0  0  0  0  0  0  0  0  0
    2.6688   -1.2501    0.6901 C   0  0  0  0  0  0  0  0  0  0  0  0
    4.0105   -1.6391    0.6575 C   0  0  0  0  0  0  0  0  0  0  0  0
    6.0586    0.9935    1.6076 H   0  0  0  0  0  0  0  0  0  0  0  0
    7.3212    1.7749    0.4974 H   0  0  0  0  0  0  0  0  0  0  0  0
    7.7545    1.0437    2.0814 H   0  0  0  0  0  0  0  0  0  0  0  0
    9.4789   -0.0910    0.9633 H   0  0  0  0  0  0  0  0  0  0  0  0
   11.8390   -3.7198   -0.8503 H   0  0  0  0  0  0  0  0  0  0  0  0
    8.3916   -3.8136   -0.8024 H   0  0  0  0  0  0  0  0  0  0  0  0
    5.9825   -3.1053   -0.7336 H   0  0  0  0  0  0  0  0  0  0  0  0
    5.3560    1.1350   -0.6810 H   0  0  0  0  0  0  0  0  0  0  0  0
    3.0428    1.7964   -0.6166 H   0  0  0  0  0  0  0  0  0  0  0  0
   -1.6697    3.1382    2.1305 H   0  0  0  0  0  0  0  0  0  0  0  0
   -4.0838    5.9366    0.1103 H   0  0  0  0  0  0  0  0  0  0  0  0
   -3.6977    4.7894   -2.0021 H   0  0  0  0  0  0  0  0  0  0  0  0
   -2.4836   -1.0171    1.4722 H   0  0  0  0  0  0  0  0  0  0  0  0
   -2.3167    0.6187    2.1464 H   0  0  0  0  0  0  0  0  0  0  0  0
   -4.6679    0.0903    1.4592 H   0  0  0  0  0  0  0  0  0  0  0  0
   -4.0084    1.4307    0.5020 H   0  0  0  0  0  0  0  0  0  0  0  0
   -5.3289    1.1668   -1.3245 H   0  0  0  0  0  0  0  0  0  0  0  0
   -5.6377   -0.3983   -2.0853 H   0  0  0  0  0  0  0  0  0  0  0  0
   -8.5283    1.5769    1.9386 H   0  0  0  0  0  0  0  0  0  0  0  0
   -9.5205   -0.6562    2.2844 H   0  0  0  0  0  0  0  0  0  0  0  0
   -8.6013   -2.5807    1.0256 H   0  0  0  0  0  0  0  0  0  0  0  0
   -5.5066   -2.6893   -0.4983 H   0  0  0  0  0  0  0  0  0  0  0  0
   -7.1013   -3.4670   -0.3909 H   0  0  0  0  0  0  0  0  0  0  0  0
   -6.7878   -2.4275   -1.7962 H   0  0  0  0  0  0  0  0  0  0  0  0
   -3.3230    0.8225   -1.9881 H   0  0  0  0  0  0  0  0  0  0  0  0
   -3.4844   -0.8953   -2.3771 H   0  0  0  0  0  0  0  0  0  0  0  0
   -1.0542   -0.1330   -1.8761 H   0  0  0  0  0  0  0  0  0  0  0  0
   -1.6820   -1.4991   -0.8993 H   0  0  0  0  0  0  0  0  0  0  0  0
    1.9596   -1.9382    1.0724 H   0  0  0  0  0  0  0  0  0  0  0  0
    4.2886   -2.6075    1.0155 H   0  0  0  0  0  0  0  0  0  0  0  0
  1  2  1  0
  2  3  2  0
  3  4  1  0
  4  5  1  0
  5  6  2  0
  5  7  1  0
  4  8  2  0
  8  9  1  0
  9 10  2  0
 10 11  1  0
 11 12  2  0
 12 13  1  0
 13 14  2  0
 14 15  1  0
 15 16  1  0
 16 17  2  0
 16 18  1  0
 18 19  1  0
 19 20  2  0
 20 21  1  0
 21 22  2  0
 22 23  1  0
 23 24  2  0
 18 25  1  0
 25 26  1  0
 26 27  1  0
 27 28  1  0
 28 29  1  0
 29 30  1  0
 30 31  2  0
 31 32  1  0
 32 33  2  0
 33 34  1  0
 34 35  2  0
 35 36  1  0
 28 37  1  0
 37 38  1  0
 25 39  1  0
 39 40  2  0
 14 41  1  0
 41 42  2  0
 10  2  1  0
 42 11  1  0
 39 15  1  0
 24 19  1  0
 38 25  1  0
 35 30  1  0
  1 43  1  0
  1 44  1  0
  1 45  1  0
  3 46  1  0
  7 47  1  0
  8 48  1  0
  9 49  1  0
 12 50  1  0
 13 51  1  0
 20 52  1  0
 22 53  1  0
 23 54  1  0
 26 55  1  0
 26 56  1  0
 27 57  1  0
 27 58  1  0
 29 59  1  0
 29 60  1  0
 32 61  1  0
 33 62  1  0
 34 63  1  0
 36 64  1  0
 36 65  1  0
 36 66  1  0
 37 67  1  0
 37 68  1  0
 38 69  1  0
 38 70  1  0
 41 71  1  0
 42 72  1  0
M  END
$$$$
