@<TRIPOS>MOLECULE
*****
 72 77 0 0 0
SMALL
GASTEIGER

@<TRIPOS>ATOM
      1 C           7.0701    0.9362    1.1834 C.3     1  UNL1       -0.0391
      2 C           7.3914   -0.3967    0.6144 C.ar    1  UNL1       -0.0420
      3 C           8.7391   -0.7819    0.5808 C.ar    1  UNL1       -0.0443
      4 C           9.0977   -2.0091    0.0719 C.ar    1  UNL1        0.0591
      5 C          10.4902   -2.4166    0.0335 C.2     1  UNL1        0.3368
      6 O          11.3776   -1.6337    0.4720 O.2     1  UNL1       -0.2451
      7 O          10.8854   -3.6520   -0.4749 O.3     1  UNL1       -0.4771
      8 C           8.1022   -2.8426   -0.4004 C.ar    1  UNL1       -0.0472
      9 C           6.7659   -2.4642   -0.3689 C.ar    1  UNL1       -0.0530
     10 C           6.4019   -1.2233    0.1454 C.ar    1  UNL1       -0.0149
     11 C           4.9913   -0.8101    0.1756 C.ar    1  UNL1       -0.0175
     12 C           4.6153    0.4285   -0.2803 C.ar    1  UNL1       -0.0523
     13 C           3.2671    0.8060   -0.2418 C.ar    1  UNL1       -0.0392
     14 C           2.2731   -0.0095    0.2366 C.ar    1  UNL1        0.0455
     15 N           0.9183    0.4121    0.2551 N.am    1  UNL1       -0.1920
     16 C           0.3791    1.6395   -0.1908 C.2     1  UNL1        0.3219
     17 O           0.9815    2.6168   -0.6955 O.2     1  UNL1       -0.2512
     18 N          -1.0538    1.6650    0.0062 N.am    1  UNL1       -0.2229
     19 C          -1.8681    2.8079    0.0197 C.ar    1  UNL1        0.1478
     20 C          -2.1170    3.4998    1.2117 C.ar    1  UNL1        0.0679
     21 N          -2.8934    4.5957    1.2420 N.ar    1  UNL1       -0.2583
     22 C          -3.4477    5.0449    0.1052 C.ar    1  UNL1        0.0458
     23 C          -3.2324    4.3961   -1.1023 C.ar    1  UNL1        0.0478
     24 N          -2.4574    3.3178   -1.0765 N.ar    1  UNL1       -0.2368
     25 C          -1.4477    0.2984    0.1854 C.3     1  UNL1        0.1240
     26 C          -2.5202    0.0817    1.2098 C.3     1  UNL1       -0.0095
     27 C          -3.9009    0.3389    0.6902 C.3     1  UNL1        0.0017
     28 N          -4.1848   -0.3634   -0.5279 N.3     1  UNL1       -0.2965
     29 C          -5.4627    0.0951   -1.0958 C.3     1  UNL1        0.0415
     30 C          -6.5905   -0.1458   -0.1644 C.ar    1  UNL1        0.0581
     31 N          -7.0882    0.8974    0.5169 N.ar    1  UNL1       -0.2583
     32 C          -8.1223    0.7443    1.3871 C.ar    1  UNL1        0.0279
     33 C          -8.6945   -0.4855    1.6000 C.ar    1  UNL1       -0.0433
     34 C          -8.2092   -1.5800    0.9176 C.ar    1  UNL1       -0.0557
     35 C          -7.1489   -1.3823    0.0348 C.ar    1  UNL1       -0.0279
     36 C          -6.6016   -2.5351   -0.7156 C.3     1  UNL1       -0.0380
     37 C          -3.2063   -0.1901   -1.5511 C.3     1  UNL1        0.0017
     38 C          -1.7973   -0.3915   -1.0906 C.3     1  UNL1       -0.0095
     39 C          -0.1924   -0.3495    0.7424 C.2     1  UNL1        0.2516
     40 O          -0.1787   -1.3444    1.4743 O.2     1  UNL1       -0.2724
     41 C           2.6688   -1.2501    0.6901 C.ar    1  UNL1       -0.0392
     42 C           4.0105   -1.6391    0.6575 C.ar    1  UNL1       -0.0523
     43 H           6.0586    0.9935    1.6076 H       1  UNL1        0.0278
     44 H           7.3212    1.7749    0.4974 H       1  UNL1        0.0278
     45 H           7.7545    1.0437    2.0814 H       1  UNL1        0.0278
     46 H           9.4789   -0.0910    0.9633 H       1  UNL1        0.0628
     47 H          11.8390   -3.7198   -0.8503 H       1  UNL1        0.2954
     48 H           8.3916   -3.8136   -0.8024 H       1  UNL1        0.0626
     49 H           5.9825   -3.1053   -0.7336 H       1  UNL1        0.0624
     50 H           5.3560    1.1350   -0.6810 H       1  UNL1        0.0624
     51 H           3.0428    1.7964   -0.6166 H       1  UNL1        0.0636
     52 H          -1.6697    3.1382    2.1305 H       1  UNL1        0.0865
     53 H          -4.0838    5.9366    0.1103 H       1  UNL1        0.0845
     54 H          -3.6977    4.7894   -2.0021 H       1  UNL1        0.0846
     55 H          -2.4836   -1.0171    1.4722 H       1  UNL1        0.0303
     56 H          -2.3167    0.6187    2.1464 H       1  UNL1        0.0303
     57 H          -4.6679    0.0903    1.4592 H       1  UNL1        0.0427
     58 H          -4.0084    1.4307    0.5020 H       1  UNL1        0.0427
     59 H          -5.3289    1.1668   -1.3245 H       1  UNL1        0.0491
     60 H          -5.6377   -0.3983   -2.0853 H       1  UNL1        0.0491
     61 H          -8.5283    1.5769    1.9386 H       1  UNL1        0.0829
     62 H          -9.5205   -0.6562    2.2844 H       1  UNL1        0.0633
     63 H          -8.6013   -2.5807    1.0256 H       1  UNL1        0.0621
     64 H          -5.5066   -2.6893   -0.4983 H       1  UNL1        0.0278
     65 H          -7.1013   -3.4670   -0.3909 H       1  UNL1        0.0278
     66 H          -6.7878   -2.4275   -1.7962 H       1  UNL1        0.0278
     67 H          -3.3230    0.8225   -1.9881 H       1  UNL1        0.0427
     68 H          -3.4844   -0.8953   -2.3771 H       1  UNL1        0.0427
     69 H          -1.0542   -0.1330   -1.8761 H       1  UNL1        0.0303
     70 H          -1.6820   -1.4991   -0.8993 H       1  UNL1        0.0303
     71 H           1.9596   -1.9382    1.0724 H       1  UNL1        0.0636
     72 H           4.2886   -2.6075    1.0155 H       1  UNL1        0.0624
@<TRIPOS>BOND
     1     1     2    1
     2     2     3   ar
     3     3     4   ar
     4     4     5    1
     5     5     6    2
     6     5     7    1
     7     4     8   ar
     8     8     9   ar
     9     9    10   ar
    10    10    11    1
    11    11    12   ar
    12    12    13   ar
    13    13    14   ar
    14    14    15    1
    15    15    16   am
    16    16    17    2
    17    16    18   am
    18    18    19    1
    19    19    20   ar
    20    20    21   ar
    21    21    22   ar
    22    22    23   ar
    23    23    24   ar
    24    18    25    1
    25    25    26    1
    26    26    27    1
    27    27    28    1
    28    28    29    1
    29    29    30    1
    30    30    31   ar
    31    31    32   ar
    32    32    33   ar
    33    33    34   ar
    34    34    35   ar
    35    35    36    1
    36    28    37    1
    37    37    38    1
    38    25    39    1
    39    39    40    2
    40    14    41   ar
    41    41    42   ar
    42    10     2   ar
    43    42    11   ar
    44    39    15   am
    45    24    19   ar
    46    38    25    1
    47    35    30   ar
    48     1    43    1
    49     1    44    1
    50     1    45    1
    51     3    46    1
    52     7    47    1
    53     8    48    1
    54     9    49    1
    55    12    50    1
    56    13    51    1
    57    20    52    1
    58    22    53    1
    59    23    54    1
    60    26    55    1
    61    26    56    1
    62    27    57    1
    63    27    58    1
    64    29    59    1
    65    29    60    1
    66    32    61    1
    67    33    62    1
    68    34    63    1
    69    36    64    1
    70    36    65    1
    71    36    66    1
    72    37    67    1
    73    37    68    1
    74    38    69    1
    75    38    70    1
    76    41    71    1
    77    42    72    1
