@<TRIPOS>MOLECULE
*****
 82 86 0 0 0
SMALL
GASTEIGER

@<TRIPOS>ATOM
      1 C          -5.7472   -6.2094    0.1766 C.3     1  UNL1       -0.0397
      2 C          -5.4387   -4.7978    0.5059 C.ar    1  UNL1       -0.0503
      3 C          -5.1628   -4.3968    1.7943 C.ar    1  UNL1       -0.0570
      4 C          -4.8743   -3.0570    2.0785 C.ar    1  UNL1       -0.0351
      5 C          -4.8579   -2.1046    1.0846 C.ar    1  UNL1        0.1055
      6 S          -4.4990   -0.4476    1.4478 S.O2    1  UNL1        0.0609
      7 O          -5.2532    0.4455    0.5001 O.2     1  UNL1       -0.1528
      8 O          -4.9850   -0.0723    2.8420 O.2     1  UNL1       -0.1528
      9 N          -2.8532   -0.0622    1.3537 N.3     1  UNL1       -0.1747
     10 C          -2.0111   -0.7804    2.2677 C.3     1  UNL1        0.0207
     11 C          -0.7614    0.0448    2.4909 C.3     1  UNL1       -0.0352
     12 C          -0.9662    1.5021    2.1335 C.3     1  UNL1       -0.0126
     13 C          -0.6136    1.7833    0.6955 C.3     1  UNL1        0.1229
     14 O           0.6383    1.1995    0.3846 O.3     1  UNL1       -0.4560
     15 C           1.7495    1.9548    0.0393 C.2     1  UNL1        0.3397
     16 O           1.6783    3.2071   -0.0094 O.2     1  UNL1       -0.2449
     17 C           3.0387    1.3363   -0.2799 C.ar    1  UNL1        0.0659
     18 C           4.1327    2.1005   -0.6219 C.ar    1  UNL1       -0.0053
     19 C           5.3367    1.5096   -0.9186 C.ar    1  UNL1        0.1320
     20 O           6.4583    2.2855   -1.2688 O.3     1  UNL1       -0.5059
     21 C           5.5318    0.1384   -0.8957 C.ar    1  UNL1        0.1050
     22 C           6.7677   -0.4678   -1.3200 C.2     1  UNL1        0.2044
     23 O           7.4434    0.3025   -2.1447 O.2     1  UNL1       -0.2863
     24 C           7.3484   -1.7272   -1.0099 C.ar    1  UNL1        0.0778
     25 C           8.0087   -2.3964   -2.0696 C.ar    1  UNL1        0.1285
     26 O           8.0155   -1.7841   -3.3268 O.3     1  UNL1       -0.5060
     27 C           8.6255   -3.6064   -1.8827 C.ar    1  UNL1       -0.0194
     28 C           8.6228   -4.2151   -0.6481 C.ar    1  UNL1       -0.0575
     29 C           7.9943   -3.5863    0.3937 C.ar    1  UNL1       -0.0468
     30 C           7.3594   -2.3314    0.1987 C.ar    1  UNL1        0.0731
     31 C           6.9230   -1.6458    1.4023 C.2     1  UNL1        0.3376
     32 O           6.8531   -2.3203    2.4950 O.2     1  UNL1       -0.2451
     33 O           6.5791   -0.3327    1.5095 O.3     1  UNL1       -0.4771
     34 C           4.4305   -0.6116   -0.5540 C.ar    1  UNL1        0.1320
     35 O           4.5010   -2.0032   -0.5032 O.3     1  UNL1       -0.5059
     36 C           3.1981   -0.0297   -0.2483 C.ar    1  UNL1       -0.0053
     37 C          -1.6899    1.3770   -0.2684 C.3     1  UNL1        0.0747
     38 N          -2.7056    2.4054   -0.3010 N.am    1  UNL1       -0.3037
     39 C          -3.0162    3.1697   -1.4473 C.2     1  UNL1        0.2444
     40 O          -2.3386    2.9040   -2.4883 O.2     1  UNL1       -0.2702
     41 C          -4.0371    4.2006   -1.4720 C.ar    1  UNL1        0.0369
     42 C          -4.7973    4.5276   -0.3747 C.ar    1  UNL1       -0.0462
     43 C          -5.7589    5.5245   -0.4633 C.ar    1  UNL1       -0.0195
     44 C          -5.9943    6.2211   -1.6304 C.ar    1  UNL1        0.1169
     45 O          -6.9638    7.2258   -1.7186 O.3     1  UNL1       -0.5068
     46 C          -5.2265    5.8875   -2.7304 C.ar    1  UNL1       -0.0195
     47 C          -4.2574    4.8835   -2.6428 C.ar    1  UNL1       -0.0462
     48 C          -2.3210    0.0582    0.0382 C.3     1  UNL1        0.0424
     49 C          -5.1369   -2.5305   -0.1941 C.ar    1  UNL1       -0.0351
     50 C          -5.4223   -3.8460   -0.4874 C.ar    1  UNL1       -0.0570
     51 H          -5.0465   -6.5303   -0.6204 H       1  UNL1        0.0278
     52 H          -5.5895   -6.8568    1.0584 H       1  UNL1        0.0278
     53 H          -6.8054   -6.3508   -0.1334 H       1  UNL1        0.0278
     54 H          -5.1804   -5.1589    2.5614 H       1  UNL1        0.0621
     55 H          -4.6698   -2.8220    3.1049 H       1  UNL1        0.0637
     56 H          -2.5087   -1.0911    3.1816 H       1  UNL1        0.0444
     57 H          -1.6833   -1.7142    1.7428 H       1  UNL1        0.0444
     58 H           0.0997   -0.3449    1.9105 H       1  UNL1        0.0279
     59 H          -0.5093   -0.0287    3.5809 H       1  UNL1        0.0279
     60 H          -0.3187    2.1362    2.7794 H       1  UNL1        0.0302
     61 H          -2.0235    1.8184    2.3065 H       1  UNL1        0.0302
     62 H          -0.4857    2.8822    0.6010 H       1  UNL1        0.0753
     63 H           4.0711    3.1682   -0.6643 H       1  UNL1        0.0662
     64 H           7.1751    2.5352   -0.6200 H       1  UNL1        0.2922
     65 H           7.5276   -2.2723   -4.0774 H       1  UNL1        0.2922
     66 H           9.1282   -4.1087   -2.7045 H       1  UNL1        0.0654
     67 H           9.1128   -5.1815   -0.5028 H       1  UNL1        0.0619
     68 H           7.9746   -4.0413    1.3805 H       1  UNL1        0.0626
     69 H           6.4305    0.1599    2.3799 H       1  UNL1        0.2954
     70 H           4.0816   -2.4297    0.3281 H       1  UNL1        0.2922
     71 H           2.3385   -0.6554    0.0217 H       1  UNL1        0.0662
     72 H          -1.2113    1.2940   -1.2736 H       1  UNL1        0.0548
     73 H          -3.2360    2.5888    0.5752 H       1  UNL1        0.1495
     74 H          -4.6670    4.0184    0.5846 H       1  UNL1        0.0626
     75 H          -6.3743    5.8036    0.3889 H       1  UNL1        0.0654
     76 H          -6.6959    8.1156   -1.2873 H       1  UNL1        0.2921
     77 H          -5.3608    6.3905   -3.6636 H       1  UNL1        0.0654
     78 H          -3.6847    4.6720   -3.5577 H       1  UNL1        0.0626
     79 H          -1.5503   -0.7257   -0.0975 H       1  UNL1        0.0463
     80 H          -3.1049   -0.1234   -0.7252 H       1  UNL1        0.0463
     81 H          -5.1402   -1.8201   -1.0348 H       1  UNL1        0.0637
     82 H          -5.6385   -4.1594   -1.4983 H       1  UNL1        0.0621
@<TRIPOS>BOND
     1     1     2    1
     2     2     3   ar
     3     3     4   ar
     4     4     5   ar
     5     5     6    1
     6     6     7    2
     7     6     8    2
     8     6     9    1
     9     9    10    1
    10    10    11    1
    11    11    12    1
    12    12    13    1
    13    13    14    1
    14    14    15    1
    15    15    16    2
    16    15    17    1
    17    17    18   ar
    18    18    19   ar
    19    19    20    1
    20    19    21   ar
    21    21    22    1
    22    22    23    2
    23    22    24    1
    24    24    25   ar
    25    25    26    1
    26    25    27   ar
    27    27    28   ar
    28    28    29   ar
    29    29    30   ar
    30    30    31    1
    31    31    32    2
    32    31    33    1
    33    21    34   ar
    34    34    35    1
    35    34    36   ar
    36    13    37    1
    37    37    38    1
    38    38    39   am
    39    39    40    2
    40    39    41    1
    41    41    42   ar
    42    42    43   ar
    43    43    44   ar
    44    44    45    1
    45    44    46   ar
    46    46    47   ar
    47    37    48    1
    48     5    49   ar
    49    49    50   ar
    50    50     2   ar
    51    48     9    1
    52    36    17   ar
    53    47    41   ar
    54    30    24   ar
    55     1    51    1
    56     1    52    1
    57     1    53    1
    58     3    54    1
    59     4    55    1
    60    10    56    1
    61    10    57    1
    62    11    58    1
    63    11    59    1
    64    12    60    1
    65    12    61    1
    66    13    62    1
    67    18    63    1
    68    20    64    1
    69    26    65    1
    70    27    66    1
    71    28    67    1
    72    29    68    1
    73    33    69    1
    74    35    70    1
    75    36    71    1
    76    37    72    1
    77    38    73    1
    78    42    74    1
    79    43    75    1
    80    45    76    1
    81    46    77    1
    82    47    78    1
    83    48    79    1
    84    48    80    1
    85    49    81    1
    86    50    82    1
