
     RDKit          3D

 50 53  0  0  0  0  0  0  0  0999 V2000
    9.2273    0.7187   -6.4894 C   0  0  0  0  0  0  0  0  0  0  0  0
    8.3555    0.7808   -5.2773 C   0  0  0  0  0  0  0  0  0  0  0  0
    7.7835    0.8213   -4.4721 C   0  0  0  0  0  0  0  0  0  0  0  0
    6.8511    0.8599   -3.1443 C   0  0  0  0  0  0  0  0  0  0  0  0
    5.7091    0.1303   -3.3582 O   0  0  0  0  0  0  0  0  0  0  0  0
    4.7294    0.0493   -2.4239 C   0  0  0  0  0  0  0  0  0  0  0  0
    3.5387   -0.6293   -2.6748 C   0  0  0  0  0  0  0  0  0  0  0  0
    2.5631   -0.7377   -1.7874 N   0  0  0  0  0  0  0  0  0  0  0  0
    2.7006   -0.1667   -0.5523 C   0  0  0  0  0  0  0  0  0  0  0  0
    1.6379   -0.3048    0.4253 C   0  0  0  0  0  0  0  0  0  0  0  0
    1.8692    0.0372    1.6390 O   0  0  0  0  0  0  0  0  0  0  0  0
    0.3431   -0.7905    0.1725 N   0  0  0  0  0  0  0  0  0  0  0  0
   -0.7163   -0.9830    1.0658 C   0  0  0  0  0  0  0  0  0  0  0  0
   -0.5431   -2.0887    1.9246 C   0  0  0  0  0  0  0  0  0  0  0  0
   -1.5201   -2.4257    2.7956 C   0  0  0  0  0  0  0  0  0  0  0  0
   -2.6953   -1.6716    2.8372 C   0  0  0  0  0  0  0  0  0  0  0  0
   -3.9813   -2.2224    3.8937 Cl  0  0  0  0  0  0  0  0  0  0  0  0
   -2.9040   -0.5813    2.0175 C   0  0  0  0  0  0  0  0  0  0  0  0
   -4.1931    0.1814    2.1784 C   0  0  2  0  0  0  0  0  0  0  0  0
   -4.2229    0.9223    3.4500 C   0  0  0  0  0  0  0  0  0  0  0  0
   -3.1589    1.8689    3.4722 F   0  0  0  0  0  0  0  0  0  0  0  0
   -4.0048    0.1302    4.5491 F   0  0  0  0  0  0  0  0  0  0  0  0
   -5.2079   -0.8508    2.0722 N   0  0  0  0  0  0  0  0  0  0  0  0
   -6.3801   -0.7334    1.6356 C   0  0  0  0  0  0  0  0  0  0  0  0
   -7.2748   -1.8195    1.5742 N   0  0  0  0  0  0  0  0  0  0  0  0
   -6.7446    0.5530    1.2098 O   0  0  0  0  0  0  0  0  0  0  0  0
   -5.7540    1.2642    0.4989 C   0  0  1  0  0  0  0  0  0  0  0  0
   -5.1768    2.4170    1.1809 C   0  0  0  0  0  0  0  0  0  0  0  0
   -4.3754    1.1445    0.9908 C   0  0  1  0  0  0  0  0  0  0  0  0
   -1.8953   -0.2747    1.1514 C   0  0  0  0  0  0  0  0  0  0  0  0
    3.8391    0.4919   -0.2901 C   0  0  0  0  0  0  0  0  0  0  0  0
    4.8443    0.6043   -1.2042 N   0  0  0  0  0  0  0  0  0  0  0  0
    9.1416   -0.2944   -6.9522 H   0  0  0  0  0  0  0  0  0  0  0  0
   10.2631    0.8864   -6.1633 H   0  0  0  0  0  0  0  0  0  0  0  0
    8.8964    1.4646   -7.2490 H   0  0  0  0  0  0  0  0  0  0  0  0
    7.5580    0.4175   -2.3961 H   0  0  0  0  0  0  0  0  0  0  0  0
    6.7665    1.9175   -2.9782 H   0  0  0  0  0  0  0  0  0  0  0  0
    3.4384   -1.0851   -3.6803 H   0  0  0  0  0  0  0  0  0  0  0  0
    0.1153   -1.0303   -0.8604 H   0  0  0  0  0  0  0  0  0  0  0  0
    0.3756   -2.6641    1.8961 H   0  0  0  0  0  0  0  0  0  0  0  0
   -1.4389   -3.2770    3.4885 H   0  0  0  0  0  0  0  0  0  0  0  0
   -5.1926    1.4716    3.5759 H   0  0  0  0  0  0  0  0  0  0  0  0
   -7.1503   -2.5806    0.8241 H   0  0  0  0  0  0  0  0  0  0  0  0
   -8.0367   -1.9445    2.2161 H   0  0  0  0  0  0  0  0  0  0  0  0
   -5.9430    1.2721   -0.6155 H   0  0  0  0  0  0  0  0  0  0  0  0
   -5.5555    2.7071    2.1665 H   0  0  0  0  0  0  0  0  0  0  0  0
   -4.9134    3.2745    0.4968 H   0  0  0  0  0  0  0  0  0  0  0  0
   -3.6159    1.1834    0.2059 H   0  0  0  0  0  0  0  0  0  0  0  0
   -1.9697    0.5960    0.5089 H   0  0  0  0  0  0  0  0  0  0  0  0
    4.0176    0.9900    0.6887 H   0  0  0  0  0  0  0  0  0  0  0  0
  1  2  1  0
  2  3  3  0
  3  4  1  0
  4  5  1  0
  5  6  1  0
  6  7  2  0
  7  8  1  0
  8  9  2  0
  9 10  1  0
 10 11  2  0
 10 12  1  0
 12 13  1  0
 13 14  2  0
 14 15  1  0
 15 16  2  0
 16 17  1  0
 16 18  1  0
 18 19  1  0
 19 20  1  1
 20 21  1  0
 20 22  1  0
 19 23  1  0
 23 24  2  0
 24 25  1  0
 24 26  1  0
 26 27  1  0
 27 28  1  0
 28 29  1  0
 18 30  2  0
  9 31  1  0
 31 32  2  0
 32  6  1  0
 30 13  1  0
 29 19  1  0
 29 27  1  0
  1 33  1  0
  1 34  1  0
  1 35  1  0
  4 36  1  0
  4 37  1  0
  7 38  1  0
 12 39  1  0
 14 40  1  0
 15 41  1  0
 20 42  1  0
 25 43  1  0
 25 44  1  0
 27 45  1  6
 28 46  1  0
 28 47  1  0
 29 48  1  6
 30 49  1  0
 31 50  1  0
M  END
$$$$
