@<TRIPOS>MOLECULE
*****
 50 53 0 0 0
SMALL
GASTEIGER

@<TRIPOS>ATOM
      1 C           9.2273    0.7187   -6.4894 C.3     1  UNL1       -0.0025
      2 C           8.3555    0.7808   -5.2773 C.1     1  UNL1       -0.1022
      3 C           7.7835    0.8213   -4.4721 C.1     1  UNL1       -0.0617
      4 C           6.8511    0.8599   -3.1443 C.3     1  UNL1        0.1516
      5 O           5.7091    0.1303   -3.3582 O.3     1  UNL1       -0.4624
      6 C           4.7294    0.0493   -2.4239 C.ar    1  UNL1        0.2344
      7 C           3.5387   -0.6293   -2.6748 C.ar    1  UNL1        0.0899
      8 N           2.5631   -0.7377   -1.7874 N.ar    1  UNL1       -0.2435
      9 C           2.7006   -0.1667   -0.5523 C.ar    1  UNL1        0.1439
     10 C           1.6379   -0.3048    0.4253 C.2     1  UNL1        0.2681
     11 O           1.8692    0.0372    1.6390 O.2     1  UNL1       -0.2681
     12 N           0.3431   -0.7905    0.1725 N.am    1  UNL1       -0.2802
     13 C          -0.7163   -0.9830    1.0658 C.ar    1  UNL1        0.0341
     14 C          -0.5431   -2.0887    1.9246 C.ar    1  UNL1       -0.0391
     15 C          -1.5201   -2.4257    2.7956 C.ar    1  UNL1       -0.0413
     16 C          -2.6953   -1.6716    2.8372 C.ar    1  UNL1        0.0467
     17 CL         -3.9813   -2.2224    3.8937 Cl      1  UNL1       -0.0832
     18 C          -2.9040   -0.5813    2.0175 C.ar    1  UNL1        0.0059
     19 C          -4.1931    0.1814    2.1784 C.3     1  UNL1        0.1590
     20 C          -4.2229    0.9223    3.4500 C.3     1  UNL1        0.2685
     21 F          -3.1589    1.8689    3.4722 F       1  UNL1       -0.2062
     22 F          -4.0048    0.1302    4.5491 F       1  UNL1       -0.2062
     23 N          -5.2079   -0.8508    2.0722 N.2     1  UNL1       -0.2194
     24 C          -6.3801   -0.7334    1.6356 C.2     1  UNL1        0.2764
     25 N          -7.2748   -1.8195    1.5742 N.pl3   1  UNL1       -0.3134
     26 O          -6.7446    0.5530    1.2098 O.2     1  UNL1       -0.4622
     27 C          -5.7540    1.2642    0.4989 C.3     1  UNL1        0.1091
     28 C          -5.1768    2.4170    1.1809 C.3     1  UNL1       -0.0064
     29 C          -4.3754    1.1445    0.9908 C.3     1  UNL1        0.0344
     30 C          -1.8953   -0.2747    1.1514 C.ar    1  UNL1       -0.0334
     31 C           3.8391    0.4919   -0.2901 C.ar    1  UNL1        0.0619
     32 N           4.8443    0.6043   -1.2042 N.ar    1  UNL1       -0.2177
     33 H           9.1416   -0.2944   -6.9522 H       1  UNL1        0.0362
     34 H          10.2631    0.8864   -6.1633 H       1  UNL1        0.0362
     35 H           8.8964    1.4646   -7.2490 H       1  UNL1        0.0362
     36 H           7.5580    0.4175   -2.3961 H       1  UNL1        0.0837
     37 H           6.7665    1.9175   -2.9782 H       1  UNL1        0.0837
     38 H           3.4384   -1.0851   -3.6803 H       1  UNL1        0.0884
     39 H           0.1153   -1.0303   -0.8604 H       1  UNL1        0.1552
     40 H           0.3756   -2.6641    1.8961 H       1  UNL1        0.0636
     41 H          -1.4389   -3.2770    3.4885 H       1  UNL1        0.0633
     42 H          -5.1926    1.4716    3.5759 H       1  UNL1        0.1047
     43 H          -7.1503   -2.5806    0.8241 H       1  UNL1        0.1466
     44 H          -8.0367   -1.9445    2.2161 H       1  UNL1        0.1466
     45 H          -5.9430    1.2721   -0.6155 H       1  UNL1        0.0737
     46 H          -5.5555    2.7071    2.1665 H       1  UNL1        0.0306
     47 H          -4.9134    3.2745    0.4968 H       1  UNL1        0.0306
     48 H          -3.6159    1.1834    0.2059 H       1  UNL1        0.0366
     49 H          -1.9697    0.5960    0.5089 H       1  UNL1        0.0640
     50 H           4.0176    0.9900    0.6887 H       1  UNL1        0.0854
@<TRIPOS>BOND
     1     1     2    1
     2     2     3    3
     3     3     4    1
     4     4     5    1
     5     5     6    1
     6     6     7   ar
     7     7     8   ar
     8     8     9   ar
     9     9    10    1
    10    10    11    2
    11    10    12   am
    12    12    13    1
    13    13    14   ar
    14    14    15   ar
    15    15    16   ar
    16    16    17    1
    17    16    18   ar
    18    18    19    1
    19    19    20    1
    20    20    21    1
    21    20    22    1
    22    19    23    1
    23    23    24    2
    24    24    25    1
    25    24    26    1
    26    26    27    1
    27    27    28    1
    28    28    29    1
    29    18    30   ar
    30     9    31   ar
    31    31    32   ar
    32    32     6   ar
    33    30    13   ar
    34    29    19    1
    35    29    27    1
    36     1    33    1
    37     1    34    1
    38     1    35    1
    39     4    36    1
    40     4    37    1
    41     7    38    1
    42    12    39    1
    43    14    40    1
    44    15    41    1
    45    20    42    1
    46    25    43    1
    47    25    44    1
    48    27    45    1
    49    28    46    1
    50    28    47    1
    51    29    48    1
    52    30    49    1
    53    31    50    1
