@<TRIPOS>MOLECULE
*****
 40 41 0 0 0
SMALL
GASTEIGER

@<TRIPOS>ATOM
      1 O           1.1845    1.0293    1.2634 O.2     1  UNL1       -0.2758
      2 C           1.3998    1.6508    0.1917 C.2     1  UNL1        0.2145
      3 C           0.3714    1.7284   -0.8667 C.3     1  UNL1        0.0380
      4 C          -0.8703    0.9921   -0.4312 C.3     1  UNL1        0.0219
      5 N          -1.8581    1.0764   -1.4880 N.3     1  UNL1       -0.2399
      6 N          -3.0097    0.4093   -1.0643 N.am    1  UNL1       -0.2469
      7 C          -3.6069   -0.8792   -1.0688 C.2     1  UNL1        0.2576
      8 O          -2.9642   -1.8110   -1.6156 O.2     1  UNL1       -0.2689
      9 C          -4.9116   -0.9235   -0.4194 C.ar    1  UNL1        0.0408
     10 C          -5.6461    0.0777    0.1796 C.ar    1  UNL1       -0.0314
     11 C          -6.8597   -0.1912    0.7331 C.ar    1  UNL1        0.0283
     12 N          -7.4120   -1.4373    0.7300 N.ar    1  UNL1       -0.2632
     13 C          -6.6940   -2.4364    0.1398 C.ar    1  UNL1        0.0283
     14 C          -5.4451   -2.2055   -0.4401 C.ar    1  UNL1       -0.0314
     15 N           2.6237    2.3233   -0.1005 N.am    1  UNL1       -0.3112
     16 C           3.7621    2.3516    0.8313 C.3     1  UNL1        0.0368
     17 C           4.5041    1.0686    0.8246 C.ar    1  UNL1       -0.0303
     18 C           4.3145   -0.0491    1.6096 C.ar    1  UNL1       -0.0571
     19 C           5.1120   -1.1636    1.4534 C.ar    1  UNL1       -0.0615
     20 C           6.1316   -1.2109    0.5088 C.ar    1  UNL1       -0.0617
     21 C           6.3420   -0.1073   -0.2885 C.ar    1  UNL1       -0.0615
     22 C           5.5233    1.0066   -0.1117 C.ar    1  UNL1       -0.0571
     23 H           0.0882    2.8030   -1.0709 H       1  UNL1        0.0371
     24 H           0.7456    1.2800   -1.8235 H       1  UNL1        0.0371
     25 H          -1.2525    1.4910    0.4796 H       1  UNL1        0.0445
     26 H          -0.6295   -0.0508   -0.1595 H       1  UNL1        0.0445
     27 H          -1.5032    0.7977   -2.4060 H       1  UNL1        0.1442
     28 H          -3.3207    1.3298   -0.6880 H       1  UNL1        0.1693
     29 H          -5.1480    1.0347    0.1444 H       1  UNL1        0.0640
     30 H          -7.3473    0.6716    1.1756 H       1  UNL1        0.0830
     31 H          -7.1914   -3.3976    0.1733 H       1  UNL1        0.0830
     32 H          -4.9589   -3.0884   -0.8857 H       1  UNL1        0.0640
     33 H           2.7682    2.8404   -1.0191 H       1  UNL1        0.1490
     34 H           3.3006    2.4506    1.8496 H       1  UNL1        0.0512
     35 H           4.4259    3.1885    0.5937 H       1  UNL1        0.0512
     36 H           3.5114    0.0453    2.3239 H       1  UNL1        0.0621
     37 H           4.8918   -2.0101    2.1204 H       1  UNL1        0.0618
     38 H           6.7370   -2.1129    0.4198 H       1  UNL1        0.0618
     39 H           7.1273   -0.1402   -1.0177 H       1  UNL1        0.0618
     40 H           5.7642    1.8195   -0.7800 H       1  UNL1        0.0621
@<TRIPOS>BOND
     1     1     2    2
     2     2     3    1
     3     3     4    1
     4     4     5    1
     5     5     6    1
     6     6     7   am
     7     7     8    2
     8     7     9    1
     9     9    10   ar
    10    10    11   ar
    11    11    12   ar
    12    12    13   ar
    13    13    14   ar
    14     2    15   am
    15    15    16    1
    16    16    17    1
    17    17    18   ar
    18    18    19   ar
    19    19    20   ar
    20    20    21   ar
    21    21    22   ar
    22    14     9   ar
    23    22    17   ar
    24     3    23    1
    25     3    24    1
    26     4    25    1
    27     4    26    1
    28     5    27    1
    29     6    28    1
    30    10    29    1
    31    11    30    1
    32    13    31    1
    33    14    32    1
    34    15    33    1
    35    16    34    1
    36    16    35    1
    37    18    36    1
    38    19    37    1
    39    20    38    1
    40    21    39    1
    41    22    40    1
