
     RDKit          3D

 51 56  0  0  0  0  0  0  0  0999 V2000
    8.5740   -1.4311   -1.3060 N   0  0  0  0  0  0  0  0  0  0  0  0
    7.5222   -1.2239   -0.6903 C   0  0  0  0  0  0  0  0  0  0  0  0
    6.3367   -0.9819   -0.0145 C   0  0  0  0  0  0  0  0  0  0  0  0
    5.2304   -1.7786   -0.1869 C   0  0  0  0  0  0  0  0  0  0  0  0
    4.0358   -1.6025    0.4529 C   0  0  0  0  0  0  0  0  0  0  0  0
    3.9746   -0.5164    1.3392 C   0  0  0  0  0  0  0  0  0  0  0  0
    5.0574    0.2957    1.5349 C   0  0  0  0  0  0  0  0  0  0  0  0
    6.2494    0.1112    0.8945 C   0  0  0  0  0  0  0  0  0  0  0  0
    4.7205    1.2939    2.4067 N   0  0  0  0  0  0  0  0  0  0  0  0
    3.4011    1.0471    2.7172 C   0  0  0  0  0  0  0  0  0  0  0  0
    2.7993    1.8327    3.5263 O   0  0  0  0  0  0  0  0  0  0  0  0
    2.9753   -0.0356    2.0700 N   0  0  0  0  0  0  0  0  0  0  0  0
    1.6063   -0.5196    2.1725 C   0  0  1  0  0  0  0  0  0  0  0  0
    0.5495    0.5291    2.2503 C   0  0  0  0  0  0  0  0  0  0  0  0
    0.0102    0.1648    0.8979 C   0  0  2  0  0  0  0  0  0  0  0  0
   -1.3134   -0.5005    0.8632 C   0  0  0  0  0  0  0  0  0  0  0  0
   -1.7905   -1.4887    1.6470 N   0  0  0  0  0  0  0  0  0  0  0  0
   -3.0477   -1.7544    1.2447 N   0  0  0  0  0  0  0  0  0  0  0  0
   -3.3780   -0.9532    0.2195 C   0  0  0  0  0  0  0  0  0  0  0  0
   -4.6590   -0.8778   -0.5267 C   0  0  0  0  0  0  0  0  0  0  0  0
   -5.7167   -1.7252   -0.2593 C   0  0  0  0  0  0  0  0  0  0  0  0
   -6.8986   -1.5917   -1.0300 C   0  0  0  0  0  0  0  0  0  0  0  0
   -6.9199   -0.6581   -1.9632 N   0  0  0  0  0  0  0  0  0  0  0  0
   -5.9087    0.1684   -2.2318 C   0  0  0  0  0  0  0  0  0  0  0  0
   -4.7864    0.0297   -1.4897 N   0  0  0  0  0  0  0  0  0  0  0  0
   -2.2947   -0.2026    0.0110 N   0  0  0  0  0  0  0  0  0  0  0  0
   -2.2379    0.7989   -1.0323 C   0  0  0  0  0  0  0  0  0  0  0  0
   -2.3760    2.1379   -0.7129 C   0  0  0  0  0  0  0  0  0  0  0  0
   -2.3185    3.0523   -1.7147 C   0  0  0  0  0  0  0  0  0  0  0  0
   -2.1229    2.6125   -3.0158 C   0  0  0  0  0  0  0  0  0  0  0  0
   -1.9839    1.2903   -3.3384 C   0  0  0  0  0  0  0  0  0  0  0  0
   -2.0487    0.3742   -2.3023 C   0  0  0  0  0  0  0  0  0  0  0  0
   -1.8791   -1.3167   -2.6857 Cl  0  0  0  0  0  0  0  0  0  0  0  0
    1.1153   -0.8426    0.7452 C   0  0  0  0  0  0  0  0  0  0  0  0
    5.2791   -2.6216   -0.8798 H   0  0  0  0  0  0  0  0  0  0  0  0
    3.1941   -2.2570    0.3174 H   0  0  0  0  0  0  0  0  0  0  0  0
    7.0727    0.7515    1.0690 H   0  0  0  0  0  0  0  0  0  0  0  0
    5.2852    2.0792    2.7744 H   0  0  0  0  0  0  0  0  0  0  0  0
    1.5430   -1.3785    2.8453 H   0  0  0  0  0  0  0  0  0  0  0  0
    0.8929    1.5837    2.2385 H   0  0  0  0  0  0  0  0  0  0  0  0
   -0.1599    0.4146    3.0926 H   0  0  0  0  0  0  0  0  0  0  0  0
    0.0327    1.0211    0.1602 H   0  0  0  0  0  0  0  0  0  0  0  0
   -5.6582   -2.4626    0.4955 H   0  0  0  0  0  0  0  0  0  0  0  0
   -7.7379   -2.2314   -0.8382 H   0  0  0  0  0  0  0  0  0  0  0  0
   -5.9763    0.9133   -3.0067 H   0  0  0  0  0  0  0  0  0  0  0  0
   -2.5271    2.4325    0.3026 H   0  0  0  0  0  0  0  0  0  0  0  0
   -2.4283    4.1014   -1.4469 H   0  0  0  0  0  0  0  0  0  0  0  0
   -2.0793    3.3538   -3.8204 H   0  0  0  0  0  0  0  0  0  0  0  0
   -1.8289    0.9435   -4.3708 H   0  0  0  0  0  0  0  0  0  0  0  0
    1.8092   -0.4844   -0.0550 H   0  0  0  0  0  0  0  0  0  0  0  0
    0.8097   -1.8967    0.6299 H   0  0  0  0  0  0  0  0  0  0  0  0
  1  2  3  0
  2  3  1  0
  3  4  2  0
  4  5  1  0
  5  6  2  0
  6  7  1  0
  7  8  2  0
  7  9  1  0
  9 10  1  0
 10 11  2  0
 10 12  1  0
 12 13  1  0
 13 14  1  0
 14 15  1  0
 15 16  1  0
 16 17  2  0
 17 18  1  0
 18 19  2  0
 19 20  1  0
 20 21  2  0
 21 22  1  0
 22 23  2  0
 23 24  1  0
 24 25  2  0
 19 26  1  0
 26 27  1  0
 27 28  2  0
 28 29  1  0
 29 30  2  0
 30 31  1  0
 31 32  2  0
 32 33  1  0
 15 34  1  0
  8  3  1  0
 34 13  1  0
 12  6  1  0
 26 16  1  0
 32 27  1  0
 25 20  1  0
  4 35  1  0
  5 36  1  0
  8 37  1  0
  9 38  1  0
 13 39  1  1
 14 40  1  0
 14 41  1  0
 15 42  1  6
 21 43  1  0
 22 44  1  0
 24 45  1  0
 28 46  1  0
 29 47  1  0
 30 48  1  0
 31 49  1  0
 34 50  1  0
 34 51  1  0
M  END
$$$$
