@<TRIPOS>MOLECULE
*****
 51 56 0 0 0
SMALL
GASTEIGER

@<TRIPOS>ATOM
      1 N           8.5740   -1.4311   -1.3060 N.1     1  UNL1       -0.1909
      2 C           7.5222   -1.2239   -0.6903 C.1     1  UNL1        0.0992
      3 C           6.3367   -0.9819   -0.0145 C.ar    1  UNL1        0.0538
      4 C           5.2304   -1.7786   -0.1869 C.ar    1  UNL1       -0.0423
      5 C           4.0358   -1.6025    0.4529 C.ar    1  UNL1       -0.0348
      6 C           3.9746   -0.5164    1.3392 C.ar    1  UNL1        0.0700
      7 C           5.0574    0.2957    1.5349 C.ar    1  UNL1        0.0682
      8 C           6.2494    0.1112    0.8945 C.ar    1  UNL1       -0.0188
      9 N           4.7205    1.2939    2.4067 N.ar    1  UNL1       -0.3059
     10 C           3.4011    1.0471    2.7172 C.ar    1  UNL1        0.3278
     11 O           2.7993    1.8327    3.5263 O.2     1  UNL1       -0.2465
     12 N           2.9753   -0.0356    2.0700 N.ar    1  UNL1       -0.2891
     13 C           1.6063   -0.5196    2.1725 C.3     1  UNL1        0.0407
     14 C           0.5495    0.5291    2.2503 C.3     1  UNL1       -0.0221
     15 C           0.0102    0.1648    0.8979 C.3     1  UNL1        0.0232
     16 C          -1.3134   -0.5005    0.8632 C.ar    1  UNL1        0.1415
     17 N          -1.7905   -1.4887    1.6470 N.ar    1  UNL1       -0.1333
     18 N          -3.0477   -1.7544    1.2447 N.ar    1  UNL1       -0.1272
     19 C          -3.3780   -0.9532    0.2195 C.ar    1  UNL1        0.1873
     20 C          -4.6590   -0.8778   -0.5267 C.ar    1  UNL1        0.1115
     21 C          -5.7167   -1.7252   -0.2593 C.ar    1  UNL1       -0.0145
     22 C          -6.8986   -1.5917   -1.0300 C.ar    1  UNL1        0.0314
     23 N          -6.9199   -0.6581   -1.9632 N.ar    1  UNL1       -0.2437
     24 C          -5.9087    0.1684   -2.2318 C.ar    1  UNL1        0.1167
     25 N          -4.7864    0.0297   -1.4897 N.ar    1  UNL1       -0.2323
     26 N          -2.2947   -0.2026    0.0110 N.ar    1  UNL1       -0.2762
     27 C          -2.2379    0.7989   -1.0323 C.ar    1  UNL1        0.0681
     28 C          -2.3760    2.1379   -0.7129 C.ar    1  UNL1       -0.0363
     29 C          -2.3185    3.0523   -1.7147 C.ar    1  UNL1       -0.0597
     30 C          -2.1229    2.6125   -3.0158 C.ar    1  UNL1       -0.0603
     31 C          -1.9839    1.2903   -3.3384 C.ar    1  UNL1       -0.0414
     32 C          -2.0487    0.3742   -2.3023 C.ar    1  UNL1        0.0648
     33 CL         -1.8791   -1.3167   -2.6857 Cl      1  UNL1       -0.0814
     34 C           1.1153   -0.8426    0.7452 C.3     1  UNL1       -0.0221
     35 H           5.2791   -2.6216   -0.8798 H       1  UNL1        0.0631
     36 H           3.1941   -2.2570    0.3174 H       1  UNL1        0.0639
     37 H           7.0727    0.7515    1.0690 H       1  UNL1        0.0652
     38 H           5.2852    2.0792    2.7744 H       1  UNL1        0.1705
     39 H           1.5430   -1.3785    2.8453 H       1  UNL1        0.0530
     40 H           0.8929    1.5837    2.2385 H       1  UNL1        0.0292
     41 H          -0.1599    0.4146    3.0926 H       1  UNL1        0.0292
     42 H           0.0327    1.0211    0.1602 H       1  UNL1        0.0381
     43 H          -5.6582   -2.4626    0.4955 H       1  UNL1        0.0655
     44 H          -7.7379   -2.2314   -0.8382 H       1  UNL1        0.0831
     45 H          -5.9763    0.9133   -3.0067 H       1  UNL1        0.1047
     46 H          -2.5271    2.4325    0.3026 H       1  UNL1        0.0639
     47 H          -2.4283    4.1014   -1.4469 H       1  UNL1        0.0618
     48 H          -2.0793    3.3538   -3.8204 H       1  UNL1        0.0618
     49 H          -1.8289    0.9435   -4.3708 H       1  UNL1        0.0633
     50 H           1.8092   -0.4844   -0.0550 H       1  UNL1        0.0292
     51 H           0.8097   -1.8967    0.6299 H       1  UNL1        0.0292
@<TRIPOS>BOND
     1     1     2    3
     2     2     3    1
     3     3     4   ar
     4     4     5   ar
     5     5     6   ar
     6     6     7   ar
     7     7     8   ar
     8     7     9   ar
     9     9    10   ar
    10    10    11    2
    11    10    12   ar
    12    12    13    1
    13    13    14    1
    14    14    15    1
    15    15    16    1
    16    16    17   ar
    17    17    18   ar
    18    18    19   ar
    19    19    20    1
    20    20    21   ar
    21    21    22   ar
    22    22    23   ar
    23    23    24   ar
    24    24    25   ar
    25    19    26   ar
    26    26    27    1
    27    27    28   ar
    28    28    29   ar
    29    29    30   ar
    30    30    31   ar
    31    31    32   ar
    32    32    33    1
    33    15    34    1
    34     8     3   ar
    35    34    13    1
    36    12     6   ar
    37    26    16   ar
    38    32    27   ar
    39    25    20   ar
    40     4    35    1
    41     5    36    1
    42     8    37    1
    43     9    38    1
    44    13    39    1
    45    14    40    1
    46    14    41    1
    47    15    42    1
    48    21    43    1
    49    22    44    1
    50    24    45    1
    51    28    46    1
    52    29    47    1
    53    30    48    1
    54    31    49    1
    55    34    50    1
    56    34    51    1
