@<TRIPOS>MOLECULE
*****
 16 17 0 0 0
SMALL
GASTEIGER

@<TRIPOS>ATOM
      1 O           3.7804   -0.1906   -0.0391 O.2     1  UNL1       -0.2663
      2 C           2.5196   -0.1009   -0.0261 C.2     1  UNL1        0.2887
      3 N           1.6976    1.0604   -0.0207 N.am    1  UNL1       -0.2782
      4 C           0.3402    0.6661   -0.0054 C.ar    1  UNL1        0.0448
      5 C          -0.8056    1.4409    0.0045 C.ar    1  UNL1       -0.0398
      6 C          -2.0484    0.8382    0.0191 C.ar    1  UNL1       -0.0600
      7 C          -2.1882   -0.5409    0.0244 C.ar    1  UNL1       -0.0610
      8 C          -1.0428   -1.3273    0.0146 C.ar    1  UNL1       -0.0490
      9 C           0.1905   -0.7065   -0.0000 C.ar    1  UNL1        0.0481
     10 C           1.5570   -1.2199   -0.0129 C.2     1  UNL1        0.2493
     11 O           1.9355   -2.4398   -0.0135 O.2     1  UNL1       -0.2817
     12 H           2.0479    2.0373   -0.0271 H       1  UNL1        0.1552
     13 H          -0.7872    2.5334    0.0012 H       1  UNL1        0.0636
     14 H          -2.9800    1.4272    0.0272 H       1  UNL1        0.0618
     15 H          -3.1627   -1.0489    0.0360 H       1  UNL1        0.0618
     16 H          -1.0538   -2.4287    0.0178 H       1  UNL1        0.0625
@<TRIPOS>BOND
     1     1     2    2
     2     2     3   am
     3     3     4    1
     4     4     5   ar
     5     5     6   ar
     6     6     7   ar
     7     7     8   ar
     8     8     9   ar
     9     9    10    1
    10    10    11    2
    11    10     2    1
    12     9     4   ar
    13     3    12    1
    14     5    13    1
    15     6    14    1
    16     7    15    1
    17     8    16    1
