
     RDKit          3D

 16 17  0  0  0  0  0  0  0  0999 V2000
    3.7804   -0.1906   -0.0391 O   0  0  0  0  0  0  0  0  0  0  0  0
    2.5196   -0.1009   -0.0261 C   0  0  0  0  0  0  0  0  0  0  0  0
    1.6976    1.0604   -0.0207 N   0  0  0  0  0  0  0  0  0  0  0  0
    0.3402    0.6661   -0.0054 C   0  0  0  0  0  0  0  0  0  0  0  0
   -0.8056    1.4409    0.0045 C   0  0  0  0  0  0  0  0  0  0  0  0
   -2.0484    0.8382    0.0191 C   0  0  0  0  0  0  0  0  0  0  0  0
   -2.1882   -0.5409    0.0244 C   0  0  0  0  0  0  0  0  0  0  0  0
   -1.0428   -1.3273    0.0146 C   0  0  0  0  0  0  0  0  0  0  0  0
    0.1905   -0.7065   -0.0000 C   0  0  0  0  0  0  0  0  0  0  0  0
    1.5570   -1.2199   -0.0129 C   0  0  0  0  0  0  0  0  0  0  0  0
    1.9355   -2.4398   -0.0135 O   0  0  0  0  0  0  0  0  0  0  0  0
    2.0479    2.0373   -0.0271 H   0  0  0  0  0  0  0  0  0  0  0  0
   -0.7872    2.5334    0.0012 H   0  0  0  0  0  0  0  0  0  0  0  0
   -2.9800    1.4272    0.0272 H   0  0  0  0  0  0  0  0  0  0  0  0
   -3.1627   -1.0489    0.0360 H   0  0  0  0  0  0  0  0  0  0  0  0
   -1.0538   -2.4287    0.0178 H   0  0  0  0  0  0  0  0  0  0  0  0
  1  2  2  0
  2  3  1  0
  3  4  1  0
  4  5  2  0
  5  6  1  0
  6  7  2  0
  7  8  1  0
  8  9  2  0
  9 10  1  0
 10 11  2  0
 10  2  1  0
  9  4  1  0
  3 12  1  0
  5 13  1  0
  6 14  1  0
  7 15  1  0
  8 16  1  0
M  END
$$$$
