@<TRIPOS>MOLECULE
*****
 62 63 0 0 0
SMALL
GASTEIGER

@<TRIPOS>ATOM
      1 C          -1.6062    1.0199   -0.8546 C.3     1  UNL1        0.1288
      2 C          -1.7113    2.4829   -1.2232 C.3     1  UNL1        0.0021
      3 C          -2.8350    3.1574   -0.5349 C.ar    1  UNL1       -0.0450
      4 C          -2.7131    3.7700    0.6939 C.ar    1  UNL1       -0.0585
      5 C          -3.7652    4.4033    1.3433 C.ar    1  UNL1       -0.0615
      6 C          -4.9980    4.4162    0.7180 C.ar    1  UNL1       -0.0617
      7 C          -5.1194    3.7983   -0.5206 C.ar    1  UNL1       -0.0615
      8 C          -4.0713    3.1733   -1.1566 C.ar    1  UNL1       -0.0585
      9 N          -2.8406    0.3394   -1.2252 N.am    1  UNL1       -0.3014
     10 C          -3.7029   -0.2873   -0.2876 C.2     1  UNL1        0.2137
     11 O          -3.4350   -0.2848    0.9493 O.2     1  UNL1       -0.2758
     12 C          -4.9046   -0.9229   -0.8667 C.3     1  UNL1        0.0245
     13 C          -5.7783   -1.5291    0.2142 C.3     1  UNL1       -0.0347
     14 C          -7.0082   -2.1801   -0.4045 C.3     1  UNL1        0.0452
     15 C          -7.8946   -2.7846    0.6257 C.2     1  UNL1        0.3047
     16 O          -9.1044   -2.3241    1.1193 O.3     1  UNL1       -0.4806
     17 O          -7.4049   -3.8780    1.0691 O.2     1  UNL1       -0.2510
     18 P          -0.2349    0.3135   -1.8037 P.3     1  UNL1        0.3510
     19 O           0.3569    1.4459   -2.9426 O.3     1  UNL1       -0.3227
     20 O          -0.6884   -0.8696   -2.6275 O.2     1  UNL1       -0.2567
     21 O           1.0213   -0.2213   -0.8057 O.3     1  UNL1       -0.2974
     22 C           2.2591    0.1678   -1.2617 C.3     1  UNL1        0.1329
     23 C           3.3127   -0.2662   -0.3462 C.2     1  UNL1        0.2393
     24 O           3.1987   -0.9178    0.7431 O.2     1  UNL1       -0.2733
     25 N           4.6677    0.0516   -0.6583 N.am    1  UNL1       -0.3131
     26 C           5.7829   -0.3164    0.1553 C.3     1  UNL1        0.0156
     27 C           5.9482   -1.8091    0.3467 C.3     1  UNL1       -0.0121
     28 C           7.1572   -1.9737    1.2112 C.ar    1  UNL1       -0.0459
     29 C           7.1217   -2.0207    2.5833 C.ar    1  UNL1       -0.0585
     30 C           8.3173   -2.1727    3.2518 C.ar    1  UNL1       -0.0615
     31 C           9.5525   -2.2832    2.6862 C.ar    1  UNL1       -0.0617
     32 C           9.5867   -2.2351    1.2920 C.ar    1  UNL1       -0.0615
     33 C           8.4070   -2.0843    0.5958 C.ar    1  UNL1       -0.0585
     34 H          -1.4974    0.8821    0.2453 H       1  UNL1        0.0628
     35 H          -1.8724    2.5237   -2.3027 H       1  UNL1        0.0337
     36 H          -0.7888    3.0045   -0.9734 H       1  UNL1        0.0337
     37 H          -1.7226    3.7244    1.1285 H       1  UNL1        0.0620
     38 H          -3.6360    4.8743    2.3064 H       1  UNL1        0.0618
     39 H          -5.8707    4.8889    1.1602 H       1  UNL1        0.0618
     40 H          -6.0948    3.8078   -1.0138 H       1  UNL1        0.0618
     41 H          -4.2116    2.7048   -2.1192 H       1  UNL1        0.0620
     42 H          -3.0428    0.3513   -2.2519 H       1  UNL1        0.1496
     43 H          -4.6265   -1.7805   -1.5360 H       1  UNL1        0.0358
     44 H          -5.4862   -0.1780   -1.4358 H       1  UNL1        0.0358
     45 H          -6.1461   -0.7508    0.9206 H       1  UNL1        0.0275
     46 H          -5.2579   -2.2813    0.8060 H       1  UNL1        0.0275
     47 H          -6.6338   -2.9656   -1.1113 H       1  UNL1        0.0378
     48 H          -7.5423   -1.4027   -0.9726 H       1  UNL1        0.0378
     49 H          -9.3880   -2.5388    2.0800 H       1  UNL1        0.2951
     50 H          -0.2351    1.4831   -3.7346 H       1  UNL1        0.2198
     51 H           2.4723   -0.1208   -2.3124 H       1  UNL1        0.0662
     52 H           2.2391    1.2949   -1.2932 H       1  UNL1        0.0662
     53 H           4.8360    0.5976   -1.5575 H       1  UNL1        0.1488
     54 H           5.7528    0.2134    1.1343 H       1  UNL1        0.0465
     55 H           6.7170    0.0305   -0.3281 H       1  UNL1        0.0465
     56 H           6.1769   -2.3174   -0.6105 H       1  UNL1        0.0328
     57 H           5.0725   -2.3126    0.7719 H       1  UNL1        0.0328
     58 H           6.1606   -1.9366    3.0827 H       1  UNL1        0.0620
     59 H           8.3214   -2.2135    4.3498 H       1  UNL1        0.0618
     60 H          10.4658   -2.4000    3.2477 H       1  UNL1        0.0618
     61 H          10.5333   -2.3145    0.7462 H       1  UNL1        0.0618
     62 H           8.4315   -2.0470   -0.5053 H       1  UNL1        0.0620
@<TRIPOS>BOND
     1     1     2    1
     2     2     3    1
     3     3     4   ar
     4     4     5   ar
     5     5     6   ar
     6     6     7   ar
     7     7     8   ar
     8     1     9    1
     9     9    10   am
    10    10    11    2
    11    10    12    1
    12    12    13    1
    13    13    14    1
    14    14    15    1
    15    15    16    1
    16    15    17    2
    17     1    18    1
    18    18    19    1
    19    18    20    2
    20    18    21    1
    21    21    22    1
    22    22    23    1
    23    23    24    2
    24    23    25   am
    25    25    26    1
    26    26    27    1
    27    27    28    1
    28    28    29   ar
    29    29    30   ar
    30    30    31   ar
    31    31    32   ar
    32    32    33   ar
    33     8     3   ar
    34    33    28   ar
    35     1    34    1
    36     2    35    1
    37     2    36    1
    38     4    37    1
    39     5    38    1
    40     6    39    1
    41     7    40    1
    42     8    41    1
    43     9    42    1
    44    12    43    1
    45    12    44    1
    46    13    45    1
    47    13    46    1
    48    14    47    1
    49    14    48    1
    50    16    49    1
    51    19    50    1
    52    22    51    1
    53    22    52    1
    54    25    53    1
    55    26    54    1
    56    26    55    1
    57    27    56    1
    58    27    57    1
    59    29    58    1
    60    30    59    1
    61    31    60    1
    62    32    61    1
    63    33    62    1
