
     RDKit          3D

 39 41  0  0  0  0  0  0  0  0999 V2000
    4.8592    4.0319   -0.4158 Cl  0  0  0  0  0  0  0  0  0  0  0  0
    3.9850    2.5085   -0.2492 C   0  0  0  0  0  0  0  0  0  0  0  0
    3.3200    2.2421    0.9514 C   0  0  0  0  0  0  0  0  0  0  0  0
    2.6626    1.0051    0.9617 C   0  0  0  0  0  0  0  0  0  0  0  0
    2.6283    0.0911   -0.0594 C   0  0  0  0  0  0  0  0  0  0  0  0
    1.9459   -1.1795    0.1120 C   0  0  0  0  0  0  0  0  0  0  0  0
    0.3578   -1.5348   -0.4532 S   0  0  0  0  0  0  0  0  0  0  0  0
   -1.1025   -0.7724    0.1174 C   0  0  0  0  0  0  0  0  0  0  0  0
   -1.4914    0.4895   -0.4366 C   0  0  0  0  0  0  0  0  0  0  0  0
   -0.6434    1.5995   -0.3153 N   0  0  0  0  0  0  0  0  0  0  0  0
   -0.6335    2.4731    0.7368 C   0  0  0  0  0  0  0  0  0  0  0  0
    0.2618    3.4900    0.4695 C   0  0  0  0  0  0  0  0  0  0  0  0
    0.7895    3.2318   -0.7348 N   0  0  0  0  0  0  0  0  0  0  0  0
    0.2556    2.1138   -1.1991 C   0  0  0  0  0  0  0  0  0  0  0  0
   -2.1832   -1.8086    0.1975 C   0  0  0  0  0  0  0  0  0  0  0  0
   -2.4278   -2.6596   -0.8582 C   0  0  0  0  0  0  0  0  0  0  0  0
   -1.4744   -2.5359   -2.3219 Cl  0  0  0  0  0  0  0  0  0  0  0  0
   -3.4006   -3.6210   -0.8298 C   0  0  0  0  0  0  0  0  0  0  0  0
   -4.1854   -3.7569    0.3087 C   0  0  0  0  0  0  0  0  0  0  0  0
   -5.4753   -4.9581    0.4793 Cl  0  0  0  0  0  0  0  0  0  0  0  0
   -4.0013   -2.9417    1.4069 C   0  0  0  0  0  0  0  0  0  0  0  0
   -3.0031   -1.9990    1.3020 C   0  0  0  0  0  0  0  0  0  0  0  0
    3.3140    0.4566   -1.1905 C   0  0  0  0  0  0  0  0  0  0  0  0
    4.0070    1.6538   -1.3326 C   0  0  0  0  0  0  0  0  0  0  0  0
    3.3078    2.9114    1.7872 H   0  0  0  0  0  0  0  0  0  0  0  0
    2.1387    0.8034    1.9101 H   0  0  0  0  0  0  0  0  0  0  0  0
    1.9986   -1.4402    1.2523 H   0  0  0  0  0  0  0  0  0  0  0  0
    2.6854   -1.9473   -0.3594 H   0  0  0  0  0  0  0  0  0  0  0  0
   -0.9248   -0.5644    1.2560 H   0  0  0  0  0  0  0  0  0  0  0  0
   -2.5045    0.8670   -0.0580 H   0  0  0  0  0  0  0  0  0  0  0  0
   -1.6245    0.3710   -1.5846 H   0  0  0  0  0  0  0  0  0  0  0  0
   -1.2588    2.3377    1.6274 H   0  0  0  0  0  0  0  0  0  0  0  0
    0.4606    4.3037    1.1261 H   0  0  0  0  0  0  0  0  0  0  0  0
    0.5162    1.6725   -2.1713 H   0  0  0  0  0  0  0  0  0  0  0  0
   -3.6277   -4.3038   -1.6216 H   0  0  0  0  0  0  0  0  0  0  0  0
   -4.5893   -3.0048    2.3289 H   0  0  0  0  0  0  0  0  0  0  0  0
   -2.8210   -1.3316    2.1478 H   0  0  0  0  0  0  0  0  0  0  0  0
    3.3341   -0.2179   -2.0513 H   0  0  0  0  0  0  0  0  0  0  0  0
    4.5442    1.9239   -2.2364 H   0  0  0  0  0  0  0  0  0  0  0  0
  1  2  1  0
  2  3  2  0
  3  4  1  0
  4  5  2  0
  5  6  1  0
  6  7  1  0
  7  8  1  0
  8  9  1  0
  9 10  1  0
 10 11  1  0
 11 12  2  0
 12 13  1  0
 13 14  2  0
  8 15  1  0
 15 16  2  0
 16 17  1  0
 16 18  1  0
 18 19  2  0
 19 20  1  0
 19 21  1  0
 21 22  2  0
  5 23  1  0
 23 24  2  0
 24  2  1  0
 14 10  1  0
 22 15  1  0
  3 25  1  0
  4 26  1  0
  6 27  1  0
  6 28  1  0
  8 29  1  0
  9 30  1  0
  9 31  1  0
 11 32  1  0
 12 33  1  0
 14 34  1  0
 18 35  1  0
 21 36  1  0
 22 37  1  0
 23 38  1  0
 24 39  1  0
M  END
$$$$
