@<TRIPOS>MOLECULE
*****
 39 41 0 0 0
SMALL
GASTEIGER

@<TRIPOS>ATOM
      1 CL          4.8592    4.0319   -0.4158 Cl      1  UNL1       -0.0835
      2 C           3.9850    2.5085   -0.2492 C.ar    1  UNL1        0.0410
      3 C           3.3200    2.2421    0.9514 C.ar    1  UNL1       -0.0431
      4 C           2.6626    1.0051    0.9617 C.ar    1  UNL1       -0.0564
      5 C           2.6283    0.0911   -0.0594 C.ar    1  UNL1       -0.0375
      6 C           1.9459   -1.1795    0.1120 C.3     1  UNL1        0.0194
      7 S           0.3578   -1.5348   -0.4532 S.3     1  UNL1       -0.1462
      8 C          -1.1025   -0.7724    0.1174 C.3     1  UNL1        0.0498
      9 C          -1.4914    0.4895   -0.4366 C.3     1  UNL1        0.0401
     10 N          -0.6434    1.5995   -0.3153 N.ar    1  UNL1       -0.3355
     11 C          -0.6335    2.4731    0.7368 C.ar    1  UNL1        0.0240
     12 C           0.2618    3.4900    0.4695 C.ar    1  UNL1        0.0454
     13 N           0.7895    3.2318   -0.7348 N.ar    1  UNL1       -0.2441
     14 C           0.2556    2.1138   -1.1991 C.ar    1  UNL1        0.0959
     15 C          -2.1832   -1.8086    0.1975 C.ar    1  UNL1       -0.0144
     16 C          -2.4278   -2.6596   -0.8582 C.ar    1  UNL1        0.0466
     17 CL         -1.4744   -2.5359   -2.3219 Cl      1  UNL1       -0.0832
     18 C          -3.4006   -3.6210   -0.8298 C.ar    1  UNL1       -0.0247
     19 C          -4.1854   -3.7569    0.3087 C.ar    1  UNL1        0.0424
     20 CL         -5.4753   -4.9581    0.4793 Cl      1  UNL1       -0.0835
     21 C          -4.0013   -2.9417    1.4069 C.ar    1  UNL1       -0.0430
     22 C          -3.0031   -1.9990    1.3020 C.ar    1  UNL1       -0.0547
     23 C           3.3140    0.4566   -1.1905 C.ar    1  UNL1       -0.0564
     24 C           4.0070    1.6538   -1.3326 C.ar    1  UNL1       -0.0431
     25 H           3.3078    2.9114    1.7872 H       1  UNL1        0.0632
     26 H           2.1387    0.8034    1.9101 H       1  UNL1        0.0621
     27 H           1.9986   -1.4402    1.2523 H       1  UNL1        0.0425
     28 H           2.6854   -1.9473   -0.3594 H       1  UNL1        0.0425
     29 H          -0.9248   -0.5644    1.2560 H       1  UNL1        0.0479
     30 H          -2.5045    0.8670   -0.0580 H       1  UNL1        0.0506
     31 H          -1.6245    0.3710   -1.5846 H       1  UNL1        0.0506
     32 H          -1.2588    2.3377    1.6274 H       1  UNL1        0.0825
     33 H           0.4606    4.3037    1.1261 H       1  UNL1        0.0845
     34 H           0.5162    1.6725   -2.1713 H       1  UNL1        0.1029
     35 H          -3.6277   -4.3038   -1.6216 H       1  UNL1        0.0647
     36 H          -4.5893   -3.0048    2.3289 H       1  UNL1        0.0632
     37 H          -2.8210   -1.3316    2.1478 H       1  UNL1        0.0622
     38 H           3.3341   -0.2179   -2.0513 H       1  UNL1        0.0621
     39 H           4.5442    1.9239   -2.2364 H       1  UNL1        0.0632
@<TRIPOS>BOND
     1     1     2    1
     2     2     3   ar
     3     3     4   ar
     4     4     5   ar
     5     5     6    1
     6     6     7    1
     7     7     8    1
     8     8     9    1
     9     9    10    1
    10    10    11   ar
    11    11    12   ar
    12    12    13   ar
    13    13    14   ar
    14     8    15    1
    15    15    16   ar
    16    16    17    1
    17    16    18   ar
    18    18    19   ar
    19    19    20    1
    20    19    21   ar
    21    21    22   ar
    22     5    23   ar
    23    23    24   ar
    24    24     2   ar
    25    14    10   ar
    26    22    15   ar
    27     3    25    1
    28     4    26    1
    29     6    27    1
    30     6    28    1
    31     8    29    1
    32     9    30    1
    33     9    31    1
    34    11    32    1
    35    12    33    1
    36    14    34    1
    37    18    35    1
    38    21    36    1
    39    22    37    1
    40    23    38    1
    41    24    39    1
