@<TRIPOS>MOLECULE
*****
 49 51 0 0 0
SMALL
GASTEIGER

@<TRIPOS>ATOM
      1 C           2.0575   -1.1815   -0.4727 C.3     1  UNL1       -0.0220
      2 C           2.2063    0.2954   -0.4495 C.ar    1  UNL1        0.0450
      3 C           1.2098    1.2254   -0.6178 C.ar    1  UNL1       -0.0059
      4 C          -0.2435    1.1158   -0.7908 C.3     1  UNL1       -0.0136
      5 C          -0.9444    0.9954    0.5103 C.3     1  UNL1        0.0371
      6 C          -0.4986   -0.2163    1.2670 C.3     1  UNL1       -0.0538
      7 C          -2.4233    0.9912    0.3648 C.2     1  UNL1        0.2204
      8 O          -3.0800    1.8763    0.9531 O.2     1  UNL1       -0.2752
      9 N          -3.1148    0.0275   -0.4130 N.am    1  UNL1       -0.2846
     10 C          -4.5403    0.0777   -0.5197 C.ar    1  UNL1        0.0474
     11 C          -5.1270    0.8399   -1.5371 C.ar    1  UNL1       -0.0397
     12 C          -6.4932    0.9279   -1.6910 C.ar    1  UNL1       -0.0600
     13 C          -7.3039    0.2344   -0.8029 C.ar    1  UNL1       -0.0609
     14 C          -6.7399   -0.5189    0.2019 C.ar    1  UNL1       -0.0460
     15 C          -5.3608   -0.6008    0.3479 C.ar    1  UNL1        0.0800
     16 C          -4.8215   -1.4125    1.4169 C.2     1  UNL1        0.3386
     17 O          -3.5778   -1.5005    1.5503 O.2     1  UNL1       -0.2451
     18 O          -5.6662   -2.0935    2.2948 O.3     1  UNL1       -0.4771
     19 C           1.8862    2.4521   -0.5485 C.ar    1  UNL1        0.0532
     20 N           3.1898    2.1961   -0.3502 N.ar    1  UNL1       -0.1743
     21 N           3.4063    0.8965   -0.2867 N.ar    1  UNL1       -0.2367
     22 C           4.6691    0.2617   -0.0838 C.ar    1  UNL1        0.0659
     23 C           4.8739   -0.6742    0.8966 C.ar    1  UNL1       -0.0328
     24 C           6.1246   -1.2419    1.0292 C.ar    1  UNL1       -0.0182
     25 C           7.1805   -0.9007    0.2082 C.ar    1  UNL1        0.1170
     26 O           8.4428   -1.4527    0.3182 O.3     1  UNL1       -0.5068
     27 C           6.9855    0.0419   -0.7838 C.ar    1  UNL1       -0.0182
     28 C           5.7333    0.5965   -0.9010 C.ar    1  UNL1       -0.0328
     29 H           1.9856   -1.6238    0.5401 H       1  UNL1        0.0293
     30 H           2.8784   -1.6584   -1.0715 H       1  UNL1        0.0293
     31 H           1.1256   -1.4622   -1.0058 H       1  UNL1        0.0293
     32 H          -0.5789    2.0496   -1.3368 H       1  UNL1        0.0321
     33 H          -0.5211    0.2754   -1.4738 H       1  UNL1        0.0321
     34 H          -0.6646    1.9105    1.1220 H       1  UNL1        0.0395
     35 H          -0.5432   -1.1457    0.6790 H       1  UNL1        0.0237
     36 H          -1.1588   -0.4005    2.1600 H       1  UNL1        0.0237
     37 H           0.5388   -0.0962    1.6590 H       1  UNL1        0.0237
     38 H          -2.5418   -0.7024   -0.8918 H       1  UNL1        0.1548
     39 H          -4.4825    1.3757   -2.2226 H       1  UNL1        0.0636
     40 H          -6.9770    1.5062   -2.4639 H       1  UNL1        0.0618
     41 H          -8.3776    0.2923   -0.9088 H       1  UNL1        0.0618
     42 H          -7.3754   -1.0620    0.8972 H       1  UNL1        0.0626
     43 H          -5.3385   -2.9333    2.7713 H       1  UNL1        0.2954
     44 H           1.3961    3.4148   -0.6445 H       1  UNL1        0.0851
     45 H           4.0495   -0.9644    1.5652 H       1  UNL1        0.0640
     46 H           6.3173   -1.9801    1.7897 H       1  UNL1        0.0655
     47 H           8.8575   -1.7412    1.2032 H       1  UNL1        0.2921
     48 H           7.7768    0.3459   -1.4540 H       1  UNL1        0.0655
     49 H           5.6029    1.3415   -1.6947 H       1  UNL1        0.0640
@<TRIPOS>BOND
     1     1     2    1
     2     2     3   ar
     3     3     4    1
     4     4     5    1
     5     5     6    1
     6     5     7    1
     7     7     8    2
     8     7     9   am
     9     9    10    1
    10    10    11   ar
    11    11    12   ar
    12    12    13   ar
    13    13    14   ar
    14    14    15   ar
    15    15    16    1
    16    16    17    2
    17    16    18    1
    18     3    19   ar
    19    19    20   ar
    20    20    21   ar
    21    21    22    1
    22    22    23   ar
    23    23    24   ar
    24    24    25   ar
    25    25    26    1
    26    25    27   ar
    27    27    28   ar
    28    21     2   ar
    29    28    22   ar
    30    15    10   ar
    31     1    29    1
    32     1    30    1
    33     1    31    1
    34     4    32    1
    35     4    33    1
    36     5    34    1
    37     6    35    1
    38     6    36    1
    39     6    37    1
    40     9    38    1
    41    11    39    1
    42    12    40    1
    43    13    41    1
    44    14    42    1
    45    18    43    1
    46    19    44    1
    47    23    45    1
    48    24    46    1
    49    26    47    1
    50    27    48    1
    51    28    49    1
