
     RDKit          3D

 35 36  0  0  0  0  0  0  0  0999 V2000
    2.1118   -1.7369    0.6517 C   0  0  0  0  0  0  0  0  0  0  0  0
    2.2471   -0.3846   -0.0104 C   0  0  0  0  0  0  0  0  0  0  0  0
    3.3443   -0.4773   -1.0481 C   0  0  0  0  0  0  0  0  0  0  0  0
    0.9819    0.0935   -0.6251 C   0  0  0  0  0  0  0  0  0  0  0  0
    0.9775    0.3357   -1.8814 O   0  0  0  0  0  0  0  0  0  0  0  0
   -0.3496    0.3887   -0.1819 C   0  0  0  0  0  0  0  0  0  0  0  0
   -0.6646    1.6754    0.2628 C   0  0  0  0  0  0  0  0  0  0  0  0
    0.0339    2.8591    0.4071 C   0  0  0  0  0  0  0  0  0  0  0  0
   -0.5379    4.0180    0.8849 C   0  0  0  0  0  0  0  0  0  0  0  0
   -1.8693    4.0316    1.2456 C   0  0  0  0  0  0  0  0  0  0  0  0
   -2.5595    2.8465    1.0988 C   0  0  0  0  0  0  0  0  0  0  0  0
   -1.9597    1.7392    0.6279 N   0  0  0  0  0  0  0  0  0  0  0  0
   -2.4583    0.5324    0.4235 N   0  0  0  0  0  0  0  0  0  0  0  0
   -1.5345   -0.3027   -0.0581 C   0  0  0  0  0  0  0  0  0  0  0  0
   -1.6446   -1.7383   -0.4381 C   0  0  0  0  0  0  0  0  0  0  0  0
   -1.3401   -2.6660    0.6871 C   0  0  0  0  0  0  0  0  0  0  0  0
   -0.8664   -2.0756   -1.6849 C   0  0  0  0  0  0  0  0  0  0  0  0
    2.0423   -2.5714   -0.0483 H   0  0  0  0  0  0  0  0  0  0  0  0
    3.0739   -1.8646    1.2324 H   0  0  0  0  0  0  0  0  0  0  0  0
    1.2916   -1.7016    1.4041 H   0  0  0  0  0  0  0  0  0  0  0  0
    2.6086    0.3065    0.7828 H   0  0  0  0  0  0  0  0  0  0  0  0
    4.3417   -0.2331   -0.6409 H   0  0  0  0  0  0  0  0  0  0  0  0
    3.3130   -1.4997   -1.4785 H   0  0  0  0  0  0  0  0  0  0  0  0
    3.0666    0.2465   -1.8462 H   0  0  0  0  0  0  0  0  0  0  0  0
    1.0907    2.8790    0.1293 H   0  0  0  0  0  0  0  0  0  0  0  0
    0.0686    4.9151    0.9736 H   0  0  0  0  0  0  0  0  0  0  0  0
   -2.3378    4.9253    1.6215 H   0  0  0  0  0  0  0  0  0  0  0  0
   -3.6187    2.8115    1.3730 H   0  0  0  0  0  0  0  0  0  0  0  0
   -2.7251   -1.9132   -0.7292 H   0  0  0  0  0  0  0  0  0  0  0  0
   -2.1125   -3.4582    0.7343 H   0  0  0  0  0  0  0  0  0  0  0  0
   -1.4095   -2.1063    1.6391 H   0  0  0  0  0  0  0  0  0  0  0  0
   -0.3789   -3.2078    0.5694 H   0  0  0  0  0  0  0  0  0  0  0  0
   -1.3046   -3.0448   -2.0649 H   0  0  0  0  0  0  0  0  0  0  0  0
    0.1942   -2.2770   -1.5369 H   0  0  0  0  0  0  0  0  0  0  0  0
   -1.1159   -1.3451   -2.4762 H   0  0  0  0  0  0  0  0  0  0  0  0
  1  2  1  0
  2  3  1  0
  2  4  1  0
  4  5  2  0
  4  6  1  0
  6  7  2  0
  7  8  1  0
  8  9  2  0
  9 10  1  0
 10 11  2  0
 11 12  1  0
 12 13  1  0
 13 14  2  0
 14 15  1  0
 15 16  1  0
 15 17  1  0
 14  6  1  0
 12  7  1  0
  1 18  1  0
  1 19  1  0
  1 20  1  0
  2 21  1  0
  3 22  1  0
  3 23  1  0
  3 24  1  0
  8 25  1  0
  9 26  1  0
 10 27  1  0
 11 28  1  0
 15 29  1  0
 16 30  1  0
 16 31  1  0
 16 32  1  0
 17 33  1  0
 17 34  1  0
 17 35  1  0
M  END
$$$$
