
     RDKit          3D

 47 51  0  0  0  0  0  0  0  0999 V2000
   -2.6235    3.9033   -0.7424 O   0  0  0  0  0  0  0  0  0  0  0  0
   -2.0666    2.8000   -0.4772 C   0  0  0  0  0  0  0  0  0  0  0  0
   -0.7171    2.7047   -0.3099 N   0  0  0  0  0  0  0  0  0  0  0  0
   -0.1149    1.5372   -0.0278 C   0  0  0  0  0  0  0  0  0  0  0  0
    1.2567    1.4246    0.1451 C   0  0  0  0  0  0  0  0  0  0  0  0
    1.8731    0.2220    0.4353 C   0  0  0  0  0  0  0  0  0  0  0  0
    3.3445    0.1335    0.6148 C   0  0  0  0  0  0  0  0  0  0  0  0
    4.0567   -0.1535   -0.6901 C   0  0  0  0  0  0  0  0  0  0  0  0
    5.5237   -0.2150   -0.3555 C   0  0  0  0  0  0  0  0  0  0  0  0
    6.0689   -1.4217   -0.0024 C   0  0  0  0  0  0  0  0  0  0  0  0
    7.3976   -1.5167    0.3082 C   0  0  0  0  0  0  0  0  0  0  0  0
    8.1965   -0.4084    0.2698 C   0  0  0  0  0  0  0  0  0  0  0  0
    7.6299    0.7979   -0.0879 C   0  0  0  0  0  0  0  0  0  0  0  0
    6.3030    0.9281   -0.4049 C   0  0  0  0  0  0  0  0  0  0  0  0
    1.0649   -0.8894    0.5506 C   0  0  0  0  0  0  0  0  0  0  0  0
   -0.3195   -0.8201    0.3842 C   0  0  0  0  0  0  0  0  0  0  0  0
   -0.8894    0.4027    0.0955 C   0  0  0  0  0  0  0  0  0  0  0  0
   -2.2784    0.4829   -0.0734 C   0  0  0  0  0  0  0  0  0  0  0  0
   -3.2400   -0.4418   -0.0096 N   0  0  0  0  0  0  0  0  0  0  0  0
   -4.4613    0.1449   -0.2532 C   0  0  0  0  0  0  0  0  0  0  0  0
   -5.7254   -0.5777   -0.2602 C   0  0  0  0  0  0  0  0  0  0  0  0
   -5.7131   -1.9636   -0.0033 C   0  0  0  0  0  0  0  0  0  0  0  0
   -6.8616   -2.7156    0.0080 C   0  0  0  0  0  0  0  0  0  0  0  0
   -8.0685   -2.1269   -0.2344 C   0  0  0  0  0  0  0  0  0  0  0  0
   -8.0856   -0.7778   -0.4850 C   0  0  0  0  0  0  0  0  0  0  0  0
   -6.9307    0.0018   -0.5007 C   0  0  0  0  0  0  0  0  0  0  0  0
   -7.1239    1.6932   -0.8339 Cl  0  0  0  0  0  0  0  0  0  0  0  0
   -4.1936    1.4191   -0.4585 N   0  0  0  0  0  0  0  0  0  0  0  0
   -2.8624    1.6911   -0.3610 C   0  0  0  0  0  0  0  0  0  0  0  0
   -0.1125    3.5448   -0.3977 H   0  0  0  0  0  0  0  0  0  0  0  0
    1.8590    2.3061    0.0494 H   0  0  0  0  0  0  0  0  0  0  0  0
    3.7670    1.1119    0.9806 H   0  0  0  0  0  0  0  0  0  0  0  0
    3.6320   -0.6099    1.3832 H   0  0  0  0  0  0  0  0  0  0  0  0
    3.9268    0.6713   -1.4198 H   0  0  0  0  0  0  0  0  0  0  0  0
    3.7789   -1.1131   -1.1292 H   0  0  0  0  0  0  0  0  0  0  0  0
    5.4502   -2.3030    0.0318 H   0  0  0  0  0  0  0  0  0  0  0  0
    7.8493   -2.4656    0.5909 H   0  0  0  0  0  0  0  0  0  0  0  0
    9.2555   -0.4216    0.5053 H   0  0  0  0  0  0  0  0  0  0  0  0
    8.2407    1.7058   -0.1290 H   0  0  0  0  0  0  0  0  0  0  0  0
    5.8316    1.8534   -0.6874 H   0  0  0  0  0  0  0  0  0  0  0  0
    1.5273   -1.8270    0.7747 H   0  0  0  0  0  0  0  0  0  0  0  0
   -0.9549   -1.6690    0.4702 H   0  0  0  0  0  0  0  0  0  0  0  0
   -4.7777   -2.4628    0.1924 H   0  0  0  0  0  0  0  0  0  0  0  0
   -6.8503   -3.7785    0.2052 H   0  0  0  0  0  0  0  0  0  0  0  0
   -8.9928   -2.6976   -0.2316 H   0  0  0  0  0  0  0  0  0  0  0  0
   -9.0242   -0.2892   -0.6791 H   0  0  0  0  0  0  0  0  0  0  0  0
   -4.8459    2.1856   -0.6722 H   0  0  0  0  0  0  0  0  0  0  0  0
  1  2  2  0
  2  3  1  0
  3  4  1  0
  4  5  2  0
  5  6  1  0
  6  7  1  0
  7  8  1  0
  8  9  1  0
  9 10  2  0
 10 11  1  0
 11 12  2  0
 12 13  1  0
 13 14  2  0
  6 15  2  0
 15 16  1  0
 16 17  2  0
 17 18  1  0
 18 19  1  0
 19 20  2  0
 20 21  1  0
 21 22  2  0
 22 23  1  0
 23 24  2  0
 24 25  1  0
 25 26  2  0
 26 27  1  0
 20 28  1  0
 28 29  1  0
 29  2  1  0
 17  4  1  0
 29 18  2  0
 14  9  1  0
 26 21  1  0
  3 30  1  0
  5 31  1  0
  7 32  1  0
  7 33  1  0
  8 34  1  0
  8 35  1  0
 10 36  1  0
 11 37  1  0
 12 38  1  0
 13 39  1  0
 14 40  1  0
 15 41  1  0
 16 42  1  0
 22 43  1  0
 23 44  1  0
 24 45  1  0
 25 46  1  0
 28 47  1  0
M  END
$$$$
