@<TRIPOS>MOLECULE
*****
 47 51 0 0 0
SMALL
GASTEIGER

@<TRIPOS>ATOM
      1 O          -2.6235    3.9033   -0.7424 O.2     1  UNL1       -0.2656
      2 C          -2.0666    2.8000   -0.4772 C.ar    1  UNL1        0.2748
      3 N          -0.7171    2.7047   -0.3099 N.ar    1  UNL1       -0.3203
      4 C          -0.1149    1.5372   -0.0278 C.ar    1  UNL1        0.0516
      5 C           1.2567    1.4246    0.1451 C.ar    1  UNL1       -0.0345
      6 C           1.8731    0.2220    0.4353 C.ar    1  UNL1       -0.0451
      7 C           3.3445    0.1335    0.6148 C.3     1  UNL1       -0.0236
      8 C           4.0567   -0.1535   -0.6901 C.3     1  UNL1       -0.0237
      9 C           5.5237   -0.2150   -0.3555 C.ar    1  UNL1       -0.0470
     10 C           6.0689   -1.4217   -0.0024 C.ar    1  UNL1       -0.0586
     11 C           7.3976   -1.5167    0.3082 C.ar    1  UNL1       -0.0615
     12 C           8.1965   -0.4084    0.2698 C.ar    1  UNL1       -0.0617
     13 C           7.6299    0.7979   -0.0879 C.ar    1  UNL1       -0.0615
     14 C           6.3030    0.9281   -0.4049 C.ar    1  UNL1       -0.0586
     15 C           1.0649   -0.8894    0.5506 C.ar    1  UNL1       -0.0578
     16 C          -0.3195   -0.8201    0.3842 C.ar    1  UNL1       -0.0503
     17 C          -0.8894    0.4027    0.0955 C.ar    1  UNL1        0.0260
     18 C          -2.2784    0.4829   -0.0734 C.ar    1  UNL1        0.1039
     19 N          -3.2400   -0.4418   -0.0096 N.ar    1  UNL1       -0.2269
     20 C          -4.4613    0.1449   -0.2532 C.ar    1  UNL1        0.1408
     21 C          -5.7254   -0.5777   -0.2602 C.ar    1  UNL1        0.0356
     22 C          -5.7131   -1.9636   -0.0033 C.ar    1  UNL1       -0.0497
     23 C          -6.8616   -2.7156    0.0080 C.ar    1  UNL1       -0.0610
     24 C          -8.0685   -2.1269   -0.2344 C.ar    1  UNL1       -0.0603
     25 C          -8.0856   -0.7778   -0.4850 C.ar    1  UNL1       -0.0427
     26 C          -6.9307    0.0018   -0.5007 C.ar    1  UNL1        0.0516
     27 CL         -7.1239    1.6932   -0.8339 Cl      1  UNL1       -0.0828
     28 N          -4.1936    1.4191   -0.4585 N.ar    1  UNL1       -0.3336
     29 C          -2.8624    1.6911   -0.3610 C.ar    1  UNL1        0.1322
     30 H          -0.1125    3.5448   -0.3977 H       1  UNL1        0.1690
     31 H           1.8590    2.3061    0.0494 H       1  UNL1        0.0641
     32 H           3.7670    1.1119    0.9806 H       1  UNL1        0.0316
     33 H           3.6320   -0.6099    1.3832 H       1  UNL1        0.0316
     34 H           3.9268    0.6713   -1.4198 H       1  UNL1        0.0316
     35 H           3.7789   -1.1131   -1.1292 H       1  UNL1        0.0316
     36 H           5.4502   -2.3030    0.0318 H       1  UNL1        0.0620
     37 H           7.8493   -2.4656    0.5909 H       1  UNL1        0.0618
     38 H           9.2555   -0.4216    0.5053 H       1  UNL1        0.0618
     39 H           8.2407    1.7058   -0.1290 H       1  UNL1        0.0618
     40 H           5.8316    1.8534   -0.6874 H       1  UNL1        0.0620
     41 H           1.5273   -1.8270    0.7747 H       1  UNL1        0.0620
     42 H          -0.9549   -1.6690    0.4702 H       1  UNL1        0.0625
     43 H          -4.7777   -2.4628    0.1924 H       1  UNL1        0.0625
     44 H          -6.8503   -3.7785    0.2052 H       1  UNL1        0.0618
     45 H          -8.9928   -2.6976   -0.2316 H       1  UNL1        0.0618
     46 H          -9.0242   -0.2892   -0.6791 H       1  UNL1        0.0632
     47 H          -4.8459    2.1856   -0.6722 H       1  UNL1        0.1675
@<TRIPOS>BOND
     1     1     2    2
     2     2     3   ar
     3     3     4   ar
     4     4     5   ar
     5     5     6   ar
     6     6     7    1
     7     7     8    1
     8     8     9    1
     9     9    10   ar
    10    10    11   ar
    11    11    12   ar
    12    12    13   ar
    13    13    14   ar
    14     6    15   ar
    15    15    16   ar
    16    16    17   ar
    17    17    18   ar
    18    18    19   ar
    19    19    20   ar
    20    20    21    1
    21    21    22   ar
    22    22    23   ar
    23    23    24   ar
    24    24    25   ar
    25    25    26   ar
    26    26    27    1
    27    20    28   ar
    28    28    29   ar
    29    29     2   ar
    30    17     4   ar
    31    29    18   ar
    32    14     9   ar
    33    26    21   ar
    34     3    30    1
    35     5    31    1
    36     7    32    1
    37     7    33    1
    38     8    34    1
    39     8    35    1
    40    10    36    1
    41    11    37    1
    42    12    38    1
    43    13    39    1
    44    14    40    1
    45    15    41    1
    46    16    42    1
    47    22    43    1
    48    23    44    1
    49    24    45    1
    50    25    46    1
    51    28    47    1
