@<TRIPOS>MOLECULE
*****
 53 55 0 0 0
SMALL
GASTEIGER

@<TRIPOS>ATOM
      1 O           2.5572    1.1350    3.9144 O.2     1  UNL1       -0.2817
      2 C           2.9246    0.6360    2.8118 C.2     1  UNL1        0.2496
      3 C           4.2471    0.7137    2.2110 C.2     1  UNL1        0.2913
      4 O           5.2677    1.2978    2.6895 O.2     1  UNL1       -0.2661
      5 N           4.1987    0.0207    0.9924 N.am    1  UNL1       -0.2641
      6 C           5.2475   -0.2001    0.0083 C.3     1  UNL1        0.0203
      7 C           5.3019    0.8677   -1.0229 C.3     1  UNL1       -0.0344
      8 C           6.4016    0.5655   -2.0078 C.3     1  UNL1       -0.0232
      9 C           7.7478    0.4923   -1.3500 C.3     1  UNL1        0.0902
     10 F           7.9936    1.7210   -0.7497 F       1  UNL1       -0.2491
     11 C           2.8852   -0.4776    0.8321 C.ar    1  UNL1        0.0477
     12 C           2.2758   -1.2308   -0.1808 C.ar    1  UNL1       -0.0377
     13 C           0.9545   -1.6169   -0.1349 C.ar    1  UNL1       -0.0335
     14 C           0.1767   -1.2577    0.9462 C.ar    1  UNL1        0.1063
     15 S          -1.4908   -1.7707    0.9576 S.O2    1  UNL1        0.0612
     16 O          -1.9626   -2.0623    2.3635 O.2     1  UNL1       -0.1528
     17 O          -1.6107   -3.0386    0.1607 O.2     1  UNL1       -0.1528
     18 N          -2.4429   -0.5740    0.2035 N.3     1  UNL1       -0.1713
     19 C          -2.4180    0.6994    0.8523 C.3     1  UNL1        0.0209
     20 C          -3.5870    0.6842    1.8132 C.3     1  UNL1       -0.0370
     21 C          -4.3422   -0.5691    1.5118 C.3     1  UNL1       -0.0323
     22 C          -3.8242   -0.9560    0.1435 C.3     1  UNL1        0.0552
     23 C          -4.5819   -0.1385   -0.8912 C.3     1  UNL1        0.0650
     24 O          -5.8824   -0.5794   -0.8686 O.3     1  UNL1       -0.3756
     25 C          -6.7483    0.0193   -1.7375 C.3     1  UNL1        0.0759
     26 C          -6.8932    1.5049   -1.5259 C.3     1  UNL1        0.1134
     27 F          -7.7886    2.0502   -2.4315 F       1  UNL1       -0.2467
     28 C           0.7386   -0.5190    1.9595 C.ar    1  UNL1       -0.0226
     29 C           2.0860   -0.1328    1.8993 C.ar    1  UNL1        0.0502
     30 H           6.2149   -0.2024    0.5864 H       1  UNL1        0.0469
     31 H           5.1341   -1.1793   -0.4497 H       1  UNL1        0.0469
     32 H           4.3438    0.8402   -1.6063 H       1  UNL1        0.0281
     33 H           5.4977    1.8744   -0.6113 H       1  UNL1        0.0281
     34 H           6.3915    1.2716   -2.8732 H       1  UNL1        0.0291
     35 H           6.2281   -0.4440   -2.4781 H       1  UNL1        0.0291
     36 H           7.8043   -0.3317   -0.6350 H       1  UNL1        0.0615
     37 H           8.4832    0.2939   -2.1642 H       1  UNL1        0.0615
     38 H           2.8760   -1.5224   -1.0408 H       1  UNL1        0.0637
     39 H           0.5545   -2.2006   -0.9602 H       1  UNL1        0.0638
     40 H          -2.5516    1.4957    0.0702 H       1  UNL1        0.0444
     41 H          -1.5115    0.9254    1.4138 H       1  UNL1        0.0444
     42 H          -4.2179    1.5561    1.5877 H       1  UNL1        0.0279
     43 H          -3.2579    0.7582    2.8686 H       1  UNL1        0.0279
     44 H          -4.1951   -1.3798    2.2452 H       1  UNL1        0.0282
     45 H          -5.4271   -0.3365    1.3892 H       1  UNL1        0.0282
     46 H          -3.9683   -2.0295   -0.0734 H       1  UNL1        0.0502
     47 H          -4.1024   -0.3741   -1.8829 H       1  UNL1        0.0576
     48 H          -4.4428    0.9361   -0.7304 H       1  UNL1        0.0576
     49 H          -6.5562   -0.2365   -2.8012 H       1  UNL1        0.0585
     50 H          -7.7654   -0.4174   -1.5244 H       1  UNL1        0.0585
     51 H          -5.8851    1.9863   -1.6556 H       1  UNL1        0.0638
     52 H          -7.2155    1.6638   -0.4751 H       1  UNL1        0.0638
     53 H           0.1372   -0.2321    2.8118 H       1  UNL1        0.0645
@<TRIPOS>BOND
     1     1     2    2
     2     2     3    1
     3     3     4    2
     4     3     5   am
     5     5     6    1
     6     6     7    1
     7     7     8    1
     8     8     9    1
     9     9    10    1
    10     5    11    1
    11    11    12   ar
    12    12    13   ar
    13    13    14   ar
    14    14    15    1
    15    15    16    2
    16    15    17    2
    17    15    18    1
    18    18    19    1
    19    19    20    1
    20    20    21    1
    21    21    22    1
    22    22    23    1
    23    23    24    1
    24    24    25    1
    25    25    26    1
    26    26    27    1
    27    14    28   ar
    28    28    29   ar
    29    29     2    1
    30    29    11   ar
    31    22    18    1
    32     6    30    1
    33     6    31    1
    34     7    32    1
    35     7    33    1
    36     8    34    1
    37     8    35    1
    38     9    36    1
    39     9    37    1
    40    12    38    1
    41    13    39    1
    42    19    40    1
    43    19    41    1
    44    20    42    1
    45    20    43    1
    46    21    44    1
    47    21    45    1
    48    22    46    1
    49    23    47    1
    50    23    48    1
    51    25    49    1
    52    25    50    1
    53    26    51    1
    54    26    52    1
    55    28    53    1
