@<TRIPOS>MOLECULE
*****
 49 50 0 0 0
SMALL
GASTEIGER

@<TRIPOS>ATOM
      1 C           5.8633   -0.9598    0.3143 C.3     1  UNL1        0.0365
      2 O           5.1813   -1.9736   -0.3165 O.3     1  UNL1       -0.3814
      3 C           4.9343   -1.7473   -1.6511 C.3     1  UNL1        0.0628
      4 C           4.1072   -0.5116   -1.8910 C.3     1  UNL1        0.0353
      5 N           2.8099   -0.6149   -1.2294 N.am    1  UNL1       -0.3092
      6 C           1.8934    0.4667   -1.3491 C.2     1  UNL1        0.2442
      7 O           2.2504    1.4855   -2.0347 O.2     1  UNL1       -0.2702
      8 C           0.5793    0.4414   -0.7192 C.ar    1  UNL1        0.0375
      9 C           0.1316   -0.6225    0.0319 C.ar    1  UNL1       -0.0425
     10 C          -1.1351   -0.6103    0.6205 C.ar    1  UNL1        0.0007
     11 C          -1.6252   -1.7424    1.4267 C.3     1  UNL1       -0.0092
     12 C          -1.9396   -1.3210    2.8283 C.3     1  UNL1       -0.0559
     13 C          -0.6708   -2.9160    1.3934 C.3     1  UNL1       -0.0559
     14 C          -2.9266   -2.2243    0.7938 C.3     1  UNL1       -0.0559
     15 C          -1.9250    0.5116    0.4212 C.ar    1  UNL1        0.1280
     16 C          -1.4993    1.5871   -0.3257 C.ar    1  UNL1        0.0041
     17 C          -0.2384    1.5391   -0.8933 C.ar    1  UNL1       -0.0423
     18 C          -2.5929    2.5799   -0.3218 C.3     1  UNL1        0.0276
     19 C          -2.0931    4.0006   -0.2799 C.3     1  UNL1       -0.0525
     20 C          -3.4439    2.3176   -1.5534 C.3     1  UNL1       -0.0525
     21 C          -3.3981    2.2083    0.8763 C.3     1  UNL1        0.0988
     22 O          -3.2274    0.7908    0.8917 O.3     1  UNL1       -0.4905
     23 H           6.0017   -1.2604    1.3823 H       1  UNL1        0.0523
     24 H           5.2926    0.0003    0.3455 H       1  UNL1        0.0523
     25 H           6.8888   -0.8181   -0.0959 H       1  UNL1        0.0523
     26 H           4.4179   -2.6545   -2.0523 H       1  UNL1        0.0575
     27 H           5.8674   -1.6290   -2.2423 H       1  UNL1        0.0575
     28 H           3.9492   -0.4573   -3.0072 H       1  UNL1        0.0485
     29 H           4.6690    0.3711   -1.5585 H       1  UNL1        0.0485
     30 H           2.6071   -1.4648   -0.7021 H       1  UNL1        0.1491
     31 H           0.7886   -1.4695    0.1542 H       1  UNL1        0.0629
     32 H          -2.8997   -1.7655    3.1886 H       1  UNL1        0.0238
     33 H          -1.1100   -1.6360    3.5197 H       1  UNL1        0.0238
     34 H          -1.9867   -0.2008    2.9469 H       1  UNL1        0.0238
     35 H          -1.1339   -3.8348    1.8071 H       1  UNL1        0.0238
     36 H           0.2187   -2.7166    2.0534 H       1  UNL1        0.0238
     37 H          -0.3458   -3.1481    0.3662 H       1  UNL1        0.0238
     38 H          -3.7958   -1.6415    1.1952 H       1  UNL1        0.0238
     39 H          -3.0807   -3.2677    1.1375 H       1  UNL1        0.0238
     40 H          -2.8820   -2.2239   -0.3004 H       1  UNL1        0.0238
     41 H           0.0570    2.4099   -1.4747 H       1  UNL1        0.0629
     42 H          -2.9858    4.6591   -0.3366 H       1  UNL1        0.0239
     43 H          -1.4641    4.1918   -1.1563 H       1  UNL1        0.0239
     44 H          -1.5909    4.1577    0.6795 H       1  UNL1        0.0239
     45 H          -4.3582    2.9310   -1.4629 H       1  UNL1        0.0239
     46 H          -3.7972    1.2501   -1.4449 H       1  UNL1        0.0239
     47 H          -2.8986    2.4811   -2.4922 H       1  UNL1        0.0239
     48 H          -3.0083    2.5941    1.8323 H       1  UNL1        0.0705
     49 H          -4.4554    2.4575    0.6850 H       1  UNL1        0.0705
@<TRIPOS>BOND
     1     1     2    1
     2     2     3    1
     3     3     4    1
     4     4     5    1
     5     5     6   am
     6     6     7    2
     7     6     8    1
     8     8     9   ar
     9     9    10   ar
    10    10    11    1
    11    11    12    1
    12    11    13    1
    13    11    14    1
    14    10    15   ar
    15    15    16   ar
    16    16    17   ar
    17    16    18    1
    18    18    19    1
    19    18    20    1
    20    18    21    1
    21    21    22    1
    22    17     8   ar
    23    22    15    1
    24     1    23    1
    25     1    24    1
    26     1    25    1
    27     3    26    1
    28     3    27    1
    29     4    28    1
    30     4    29    1
    31     5    30    1
    32     9    31    1
    33    12    32    1
    34    12    33    1
    35    12    34    1
    36    13    35    1
    37    13    36    1
    38    13    37    1
    39    14    38    1
    40    14    39    1
    41    14    40    1
    42    17    41    1
    43    19    42    1
    44    19    43    1
    45    19    44    1
    46    20    45    1
    47    20    46    1
    48    20    47    1
    49    21    48    1
    50    21    49    1
