
     RDKit          3D

 49 50  0  0  0  0  0  0  0  0999 V2000
    5.8633   -0.9598    0.3143 C   0  0  0  0  0  0  0  0  0  0  0  0
    5.1813   -1.9736   -0.3165 O   0  0  0  0  0  0  0  0  0  0  0  0
    4.9343   -1.7473   -1.6511 C   0  0  0  0  0  0  0  0  0  0  0  0
    4.1072   -0.5116   -1.8910 C   0  0  0  0  0  0  0  0  0  0  0  0
    2.8099   -0.6149   -1.2294 N   0  0  0  0  0  0  0  0  0  0  0  0
    1.8934    0.4667   -1.3491 C   0  0  0  0  0  0  0  0  0  0  0  0
    2.2504    1.4855   -2.0347 O   0  0  0  0  0  0  0  0  0  0  0  0
    0.5793    0.4414   -0.7192 C   0  0  0  0  0  0  0  0  0  0  0  0
    0.1316   -0.6225    0.0319 C   0  0  0  0  0  0  0  0  0  0  0  0
   -1.1351   -0.6103    0.6205 C   0  0  0  0  0  0  0  0  0  0  0  0
   -1.6252   -1.7424    1.4267 C   0  0  0  0  0  0  0  0  0  0  0  0
   -1.9396   -1.3210    2.8283 C   0  0  0  0  0  0  0  0  0  0  0  0
   -0.6708   -2.9160    1.3934 C   0  0  0  0  0  0  0  0  0  0  0  0
   -2.9266   -2.2243    0.7938 C   0  0  0  0  0  0  0  0  0  0  0  0
   -1.9250    0.5116    0.4212 C   0  0  0  0  0  0  0  0  0  0  0  0
   -1.4993    1.5871   -0.3257 C   0  0  0  0  0  0  0  0  0  0  0  0
   -0.2384    1.5391   -0.8933 C   0  0  0  0  0  0  0  0  0  0  0  0
   -2.5929    2.5799   -0.3218 C   0  0  0  0  0  0  0  0  0  0  0  0
   -2.0931    4.0006   -0.2799 C   0  0  0  0  0  0  0  0  0  0  0  0
   -3.4439    2.3176   -1.5534 C   0  0  0  0  0  0  0  0  0  0  0  0
   -3.3981    2.2083    0.8763 C   0  0  0  0  0  0  0  0  0  0  0  0
   -3.2274    0.7908    0.8917 O   0  0  0  0  0  0  0  0  0  0  0  0
    6.0017   -1.2604    1.3823 H   0  0  0  0  0  0  0  0  0  0  0  0
    5.2926    0.0003    0.3455 H   0  0  0  0  0  0  0  0  0  0  0  0
    6.8888   -0.8181   -0.0959 H   0  0  0  0  0  0  0  0  0  0  0  0
    4.4179   -2.6545   -2.0523 H   0  0  0  0  0  0  0  0  0  0  0  0
    5.8674   -1.6290   -2.2423 H   0  0  0  0  0  0  0  0  0  0  0  0
    3.9492   -0.4573   -3.0072 H   0  0  0  0  0  0  0  0  0  0  0  0
    4.6690    0.3711   -1.5585 H   0  0  0  0  0  0  0  0  0  0  0  0
    2.6071   -1.4648   -0.7021 H   0  0  0  0  0  0  0  0  0  0  0  0
    0.7886   -1.4695    0.1542 H   0  0  0  0  0  0  0  0  0  0  0  0
   -2.8997   -1.7655    3.1886 H   0  0  0  0  0  0  0  0  0  0  0  0
   -1.1100   -1.6360    3.5197 H   0  0  0  0  0  0  0  0  0  0  0  0
   -1.9867   -0.2008    2.9469 H   0  0  0  0  0  0  0  0  0  0  0  0
   -1.1339   -3.8348    1.8071 H   0  0  0  0  0  0  0  0  0  0  0  0
    0.2187   -2.7166    2.0534 H   0  0  0  0  0  0  0  0  0  0  0  0
   -0.3458   -3.1481    0.3662 H   0  0  0  0  0  0  0  0  0  0  0  0
   -3.7958   -1.6415    1.1952 H   0  0  0  0  0  0  0  0  0  0  0  0
   -3.0807   -3.2677    1.1375 H   0  0  0  0  0  0  0  0  0  0  0  0
   -2.8820   -2.2239   -0.3004 H   0  0  0  0  0  0  0  0  0  0  0  0
    0.0570    2.4099   -1.4747 H   0  0  0  0  0  0  0  0  0  0  0  0
   -2.9858    4.6591   -0.3366 H   0  0  0  0  0  0  0  0  0  0  0  0
   -1.4641    4.1918   -1.1563 H   0  0  0  0  0  0  0  0  0  0  0  0
   -1.5909    4.1577    0.6795 H   0  0  0  0  0  0  0  0  0  0  0  0
   -4.3582    2.9310   -1.4629 H   0  0  0  0  0  0  0  0  0  0  0  0
   -3.7972    1.2501   -1.4449 H   0  0  0  0  0  0  0  0  0  0  0  0
   -2.8986    2.4811   -2.4922 H   0  0  0  0  0  0  0  0  0  0  0  0
   -3.0083    2.5941    1.8323 H   0  0  0  0  0  0  0  0  0  0  0  0
   -4.4554    2.4575    0.6850 H   0  0  0  0  0  0  0  0  0  0  0  0
  1  2  1  0
  2  3  1  0
  3  4  1  0
  4  5  1  0
  5  6  1  0
  6  7  2  0
  6  8  1  0
  8  9  2  0
  9 10  1  0
 10 11  1  0
 11 12  1  0
 11 13  1  0
 11 14  1  0
 10 15  2  0
 15 16  1  0
 16 17  2  0
 16 18  1  0
 18 19  1  0
 18 20  1  0
 18 21  1  0
 21 22  1  0
 17  8  1  0
 22 15  1  0
  1 23  1  0
  1 24  1  0
  1 25  1  0
  3 26  1  0
  3 27  1  0
  4 28  1  0
  4 29  1  0
  5 30  1  0
  9 31  1  0
 12 32  1  0
 12 33  1  0
 12 34  1  0
 13 35  1  0
 13 36  1  0
 13 37  1  0
 14 38  1  0
 14 39  1  0
 14 40  1  0
 17 41  1  0
 19 42  1  0
 19 43  1  0
 19 44  1  0
 20 45  1  0
 20 46  1  0
 20 47  1  0
 21 48  1  0
 21 49  1  0
M  END
$$$$
