@<TRIPOS>MOLECULE
*****
 32 33 0 0 0
SMALL
GASTEIGER

@<TRIPOS>ATOM
      1 C           0.0024   -1.8170   -1.4815 C.3     1  UNL1       -0.0517
      2 C          -0.1002   -1.0631   -0.1480 C.3     1  UNL1        0.0151
      3 C           0.1117   -2.1085    0.9174 C.3     1  UNL1       -0.0517
      4 C          -1.4184   -0.3880   -0.0459 C.ar    1  UNL1       -0.0374
      5 C          -2.4496   -0.2775   -0.9667 C.ar    1  UNL1       -0.0577
      6 C          -3.5867    0.4019   -0.6593 C.ar    1  UNL1       -0.0615
      7 C          -3.7467    1.0068    0.5922 C.ar    1  UNL1       -0.0617
      8 C          -2.7358    0.9069    1.5148 C.ar    1  UNL1       -0.0615
      9 C          -1.5690    0.2104    1.2010 C.ar    1  UNL1       -0.0577
     10 C           0.9976   -0.0691   -0.1405 C.ar    1  UNL1       -0.0372
     11 C           1.1395    0.8418   -1.1648 C.ar    1  UNL1       -0.0543
     12 C           2.1879    1.7661   -1.1193 C.ar    1  UNL1       -0.0199
     13 C           3.0664    1.7550   -0.0509 C.ar    1  UNL1        0.1169
     14 O           4.1031    2.6615    0.0050 O.3     1  UNL1       -0.5068
     15 C           2.9500    0.8508    0.9949 C.ar    1  UNL1       -0.0199
     16 C           1.8970   -0.0640    0.9313 C.ar    1  UNL1       -0.0543
     17 H           1.0448   -2.2216   -1.5264 H       1  UNL1        0.0241
     18 H          -0.2253   -1.1256   -2.3141 H       1  UNL1        0.0241
     19 H          -0.7504   -2.6478   -1.5232 H       1  UNL1        0.0241
     20 H           1.1909   -2.4298    0.8303 H       1  UNL1        0.0241
     21 H          -0.0136   -1.7223    1.9398 H       1  UNL1        0.0241
     22 H          -0.4955   -3.0210    0.7180 H       1  UNL1        0.0241
     23 H          -2.2056   -0.7854   -1.8896 H       1  UNL1        0.0621
     24 H          -4.3410    0.4333   -1.4478 H       1  UNL1        0.0618
     25 H          -4.6740    1.5291    0.7677 H       1  UNL1        0.0618
     26 H          -2.8834    1.3902    2.4902 H       1  UNL1        0.0618
     27 H          -0.8438    0.2071    2.0254 H       1  UNL1        0.0621
     28 H           0.4509    0.8613   -2.0168 H       1  UNL1        0.0622
     29 H           2.3522    2.5084   -1.8945 H       1  UNL1        0.0654
     30 H           5.0517    2.2925   -0.1178 H       1  UNL1        0.2921
     31 H           3.6448    0.8636    1.8116 H       1  UNL1        0.0654
     32 H           1.8480   -0.7460    1.7674 H       1  UNL1        0.0622
@<TRIPOS>BOND
     1     1     2    1
     2     2     3    1
     3     2     4    1
     4     4     5   ar
     5     5     6   ar
     6     6     7   ar
     7     7     8   ar
     8     8     9   ar
     9     2    10    1
    10    10    11   ar
    11    11    12   ar
    12    12    13   ar
    13    13    14    1
    14    13    15   ar
    15    15    16   ar
    16     9     4   ar
    17    16    10   ar
    18     1    17    1
    19     1    18    1
    20     1    19    1
    21     3    20    1
    22     3    21    1
    23     3    22    1
    24     5    23    1
    25     6    24    1
    26     7    25    1
    27     8    26    1
    28     9    27    1
    29    11    28    1
    30    12    29    1
    31    14    30    1
    32    15    31    1
    33    16    32    1
