
     RDKit          3D

 32 33  0  0  0  0  0  0  0  0999 V2000
    0.0024   -1.8170   -1.4815 C   0  0  0  0  0  0  0  0  0  0  0  0
   -0.1002   -1.0631   -0.1480 C   0  0  0  0  0  0  0  0  0  0  0  0
    0.1117   -2.1085    0.9174 C   0  0  0  0  0  0  0  0  0  0  0  0
   -1.4184   -0.3880   -0.0459 C   0  0  0  0  0  0  0  0  0  0  0  0
   -2.4496   -0.2775   -0.9667 C   0  0  0  0  0  0  0  0  0  0  0  0
   -3.5867    0.4019   -0.6593 C   0  0  0  0  0  0  0  0  0  0  0  0
   -3.7467    1.0068    0.5922 C   0  0  0  0  0  0  0  0  0  0  0  0
   -2.7358    0.9069    1.5148 C   0  0  0  0  0  0  0  0  0  0  0  0
   -1.5690    0.2104    1.2010 C   0  0  0  0  0  0  0  0  0  0  0  0
    0.9976   -0.0691   -0.1405 C   0  0  0  0  0  0  0  0  0  0  0  0
    1.1395    0.8418   -1.1648 C   0  0  0  0  0  0  0  0  0  0  0  0
    2.1879    1.7661   -1.1193 C   0  0  0  0  0  0  0  0  0  0  0  0
    3.0664    1.7550   -0.0509 C   0  0  0  0  0  0  0  0  0  0  0  0
    4.1031    2.6615    0.0050 O   0  0  0  0  0  0  0  0  0  0  0  0
    2.9500    0.8508    0.9949 C   0  0  0  0  0  0  0  0  0  0  0  0
    1.8970   -0.0640    0.9313 C   0  0  0  0  0  0  0  0  0  0  0  0
    1.0448   -2.2216   -1.5264 H   0  0  0  0  0  0  0  0  0  0  0  0
   -0.2253   -1.1256   -2.3141 H   0  0  0  0  0  0  0  0  0  0  0  0
   -0.7504   -2.6478   -1.5232 H   0  0  0  0  0  0  0  0  0  0  0  0
    1.1909   -2.4298    0.8303 H   0  0  0  0  0  0  0  0  0  0  0  0
   -0.0136   -1.7223    1.9398 H   0  0  0  0  0  0  0  0  0  0  0  0
   -0.4955   -3.0210    0.7180 H   0  0  0  0  0  0  0  0  0  0  0  0
   -2.2056   -0.7854   -1.8896 H   0  0  0  0  0  0  0  0  0  0  0  0
   -4.3410    0.4333   -1.4478 H   0  0  0  0  0  0  0  0  0  0  0  0
   -4.6740    1.5291    0.7677 H   0  0  0  0  0  0  0  0  0  0  0  0
   -2.8834    1.3902    2.4902 H   0  0  0  0  0  0  0  0  0  0  0  0
   -0.8438    0.2071    2.0254 H   0  0  0  0  0  0  0  0  0  0  0  0
    0.4509    0.8613   -2.0168 H   0  0  0  0  0  0  0  0  0  0  0  0
    2.3522    2.5084   -1.8945 H   0  0  0  0  0  0  0  0  0  0  0  0
    5.0517    2.2925   -0.1178 H   0  0  0  0  0  0  0  0  0  0  0  0
    3.6448    0.8636    1.8116 H   0  0  0  0  0  0  0  0  0  0  0  0
    1.8480   -0.7460    1.7674 H   0  0  0  0  0  0  0  0  0  0  0  0
  1  2  1  0
  2  3  1  0
  2  4  1  0
  4  5  2  0
  5  6  1  0
  6  7  2  0
  7  8  1  0
  8  9  2  0
  2 10  1  0
 10 11  2  0
 11 12  1  0
 12 13  2  0
 13 14  1  0
 13 15  1  0
 15 16  2  0
  9  4  1  0
 16 10  1  0
  1 17  1  0
  1 18  1  0
  1 19  1  0
  3 20  1  0
  3 21  1  0
  3 22  1  0
  5 23  1  0
  6 24  1  0
  7 25  1  0
  8 26  1  0
  9 27  1  0
 11 28  1  0
 12 29  1  0
 14 30  1  0
 15 31  1  0
 16 32  1  0
M  END
$$$$
