@<TRIPOS>MOLECULE
*****
 48 52 0 0 0
SMALL
GASTEIGER

@<TRIPOS>ATOM
      1 O           3.5528    3.2144   -0.5276 O.2     1  UNL1       -0.1643
      2 S           3.8933    2.0355    0.3507 S.O2    1  UNL1        0.0253
      3 O           4.5699    2.5611    1.5857 O.2     1  UNL1       -0.1643
      4 C           4.9797    1.0173   -0.5611 C.ar    1  UNL1        0.0963
      5 C           4.9727    0.9458   -1.9263 C.ar    1  UNL1       -0.0363
      6 C           5.8799    0.1031   -2.5552 C.ar    1  UNL1       -0.0572
      7 C           6.7633   -0.6400   -1.8048 C.ar    1  UNL1       -0.0263
      8 C           6.7882   -0.5834   -0.4222 C.ar    1  UNL1        0.1252
      9 F           7.6703   -1.3263    0.3103 F       1  UNL1       -0.2054
     10 C           5.8791    0.2595    0.1796 C.ar    1  UNL1       -0.0012
     11 C           2.4138    1.2164    0.7626 C.ar    1  UNL1        0.0971
     12 C           2.2496    0.4938    1.9196 C.ar    1  UNL1       -0.0357
     13 C           1.0404   -0.1503    2.2117 C.ar    1  UNL1       -0.0489
     14 C          -0.0107   -0.0595    1.3209 C.ar    1  UNL1        0.0238
     15 C          -1.2971   -0.5455    1.2811 C.ar    1  UNL1        0.0044
     16 C          -1.8755   -0.1078    0.1085 C.ar    1  UNL1        0.1317
     17 O          -0.9872    0.5951   -0.5102 O.2     1  UNL1       -0.4574
     18 C           0.1406    0.6627    0.1553 C.ar    1  UNL1        0.1374
     19 C           1.3465    1.2890   -0.1075 C.ar    1  UNL1        0.0065
     20 C          -3.2969   -0.5115   -0.1701 C.3     1  UNL1        0.1015
     21 C          -3.6115   -0.4004   -1.6309 C.3     1  UNL1       -0.0233
     22 C          -4.7953    0.5207   -1.8526 C.3     1  UNL1       -0.0273
     23 C          -5.8996    0.0903   -0.9337 C.3     1  UNL1        0.0478
     24 O          -5.5285    0.1651    0.3890 O.3     1  UNL1       -0.3775
     25 C          -4.1921    0.4267    0.5850 C.3     1  UNL1        0.0729
     26 N          -3.4222   -1.8789    0.2505 N.3     1  UNL1       -0.3022
     27 C          -3.2219   -2.0879    1.6457 C.3     1  UNL1        0.0009
     28 C          -2.0400   -1.3787    2.2306 C.3     1  UNL1       -0.0112
     29 H           4.2605    1.5486   -2.4659 H       1  UNL1        0.0637
     30 H           5.8743    0.0466   -3.6354 H       1  UNL1        0.0619
     31 H           7.4751   -1.3002   -2.2806 H       1  UNL1        0.0646
     32 H           5.8987    0.3039    1.2668 H       1  UNL1        0.0665
     33 H           3.0725    0.4352    2.5953 H       1  UNL1        0.0637
     34 H           0.9188   -0.7150    3.1207 H       1  UNL1        0.0625
     35 H           1.4542    1.8501   -1.0199 H       1  UNL1        0.0674
     36 H          -3.8821   -1.3839   -2.0809 H       1  UNL1        0.0289
     37 H          -2.7233   -0.0396   -2.2220 H       1  UNL1        0.0289
     38 H          -4.5257    1.5883   -1.7179 H       1  UNL1        0.0288
     39 H          -5.1608    0.3889   -2.8945 H       1  UNL1        0.0288
     40 H          -6.1804   -0.9557   -1.2286 H       1  UNL1        0.0560
     41 H          -6.7915    0.7227   -1.1638 H       1  UNL1        0.0560
     42 H          -3.9312    1.4651    0.2310 H       1  UNL1        0.0583
     43 H          -4.0023    0.4364    1.6718 H       1  UNL1        0.0583
     44 H          -2.7310   -2.4412   -0.2868 H       1  UNL1        0.1229
     45 H          -4.1662   -1.8736    2.2059 H       1  UNL1        0.0427
     46 H          -3.0544   -3.1935    1.7978 H       1  UNL1        0.0427
     47 H          -2.4267   -0.7216    3.0633 H       1  UNL1        0.0327
     48 H          -1.3401   -2.0880    2.7588 H       1  UNL1        0.0327
@<TRIPOS>BOND
     1     1     2    2
     2     2     3    2
     3     2     4    1
     4     4     5   ar
     5     5     6   ar
     6     6     7   ar
     7     7     8   ar
     8     8     9    1
     9     8    10   ar
    10     2    11    1
    11    11    12   ar
    12    12    13   ar
    13    13    14   ar
    14    14    15   ar
    15    15    16   ar
    16    16    17   ar
    17    17    18   ar
    18    18    19   ar
    19    16    20    1
    20    20    21    1
    21    21    22    1
    22    22    23    1
    23    23    24    1
    24    24    25    1
    25    20    26    1
    26    26    27    1
    27    27    28    1
    28    10     4   ar
    29    19    11   ar
    30    25    20    1
    31    18    14   ar
    32    28    15    1
    33     5    29    1
    34     6    30    1
    35     7    31    1
    36    10    32    1
    37    12    33    1
    38    13    34    1
    39    19    35    1
    40    21    36    1
    41    21    37    1
    42    22    38    1
    43    22    39    1
    44    23    40    1
    45    23    41    1
    46    25    42    1
    47    25    43    1
    48    26    44    1
    49    27    45    1
    50    27    46    1
    51    28    47    1
    52    28    48    1
