
     RDKit          3D

 48 52  0  0  0  0  0  0  0  0999 V2000
    3.5528    3.2144   -0.5276 O   0  0  0  0  0  0  0  0  0  0  0  0
    3.8933    2.0355    0.3507 S   0  0  0  0  0  6  0  0  0  0  0  0
    4.5699    2.5611    1.5857 O   0  0  0  0  0  0  0  0  0  0  0  0
    4.9797    1.0173   -0.5611 C   0  0  0  0  0  0  0  0  0  0  0  0
    4.9727    0.9458   -1.9263 C   0  0  0  0  0  0  0  0  0  0  0  0
    5.8799    0.1031   -2.5552 C   0  0  0  0  0  0  0  0  0  0  0  0
    6.7633   -0.6400   -1.8048 C   0  0  0  0  0  0  0  0  0  0  0  0
    6.7882   -0.5834   -0.4222 C   0  0  0  0  0  0  0  0  0  0  0  0
    7.6703   -1.3263    0.3103 F   0  0  0  0  0  0  0  0  0  0  0  0
    5.8791    0.2595    0.1796 C   0  0  0  0  0  0  0  0  0  0  0  0
    2.4138    1.2164    0.7626 C   0  0  0  0  0  0  0  0  0  0  0  0
    2.2496    0.4938    1.9196 C   0  0  0  0  0  0  0  0  0  0  0  0
    1.0404   -0.1503    2.2117 C   0  0  0  0  0  0  0  0  0  0  0  0
   -0.0107   -0.0595    1.3209 C   0  0  0  0  0  0  0  0  0  0  0  0
   -1.2971   -0.5455    1.2811 C   0  0  0  0  0  0  0  0  0  0  0  0
   -1.8755   -0.1078    0.1085 C   0  0  0  0  0  0  0  0  0  0  0  0
   -0.9872    0.5951   -0.5102 O   0  0  0  0  0  0  0  0  0  0  0  0
    0.1406    0.6627    0.1553 C   0  0  0  0  0  0  0  0  0  0  0  0
    1.3465    1.2890   -0.1075 C   0  0  0  0  0  0  0  0  0  0  0  0
   -3.2969   -0.5115   -0.1701 C   0  0  0  0  0  0  0  0  0  0  0  0
   -3.6115   -0.4004   -1.6309 C   0  0  0  0  0  0  0  0  0  0  0  0
   -4.7953    0.5207   -1.8526 C   0  0  0  0  0  0  0  0  0  0  0  0
   -5.8996    0.0903   -0.9337 C   0  0  0  0  0  0  0  0  0  0  0  0
   -5.5285    0.1651    0.3890 O   0  0  0  0  0  0  0  0  0  0  0  0
   -4.1921    0.4267    0.5850 C   0  0  0  0  0  0  0  0  0  0  0  0
   -3.4222   -1.8789    0.2505 N   0  0  0  0  0  0  0  0  0  0  0  0
   -3.2219   -2.0879    1.6457 C   0  0  0  0  0  0  0  0  0  0  0  0
   -2.0400   -1.3787    2.2306 C   0  0  0  0  0  0  0  0  0  0  0  0
    4.2605    1.5486   -2.4659 H   0  0  0  0  0  0  0  0  0  0  0  0
    5.8743    0.0466   -3.6354 H   0  0  0  0  0  0  0  0  0  0  0  0
    7.4751   -1.3002   -2.2806 H   0  0  0  0  0  0  0  0  0  0  0  0
    5.8987    0.3039    1.2668 H   0  0  0  0  0  0  0  0  0  0  0  0
    3.0725    0.4352    2.5953 H   0  0  0  0  0  0  0  0  0  0  0  0
    0.9188   -0.7150    3.1207 H   0  0  0  0  0  0  0  0  0  0  0  0
    1.4542    1.8501   -1.0199 H   0  0  0  0  0  0  0  0  0  0  0  0
   -3.8821   -1.3839   -2.0809 H   0  0  0  0  0  0  0  0  0  0  0  0
   -2.7233   -0.0396   -2.2220 H   0  0  0  0  0  0  0  0  0  0  0  0
   -4.5257    1.5883   -1.7179 H   0  0  0  0  0  0  0  0  0  0  0  0
   -5.1608    0.3889   -2.8945 H   0  0  0  0  0  0  0  0  0  0  0  0
   -6.1804   -0.9557   -1.2286 H   0  0  0  0  0  0  0  0  0  0  0  0
   -6.7915    0.7227   -1.1638 H   0  0  0  0  0  0  0  0  0  0  0  0
   -3.9312    1.4651    0.2310 H   0  0  0  0  0  0  0  0  0  0  0  0
   -4.0023    0.4364    1.6718 H   0  0  0  0  0  0  0  0  0  0  0  0
   -2.7310   -2.4412   -0.2868 H   0  0  0  0  0  0  0  0  0  0  0  0
   -4.1662   -1.8736    2.2059 H   0  0  0  0  0  0  0  0  0  0  0  0
   -3.0544   -3.1935    1.7978 H   0  0  0  0  0  0  0  0  0  0  0  0
   -2.4267   -0.7216    3.0633 H   0  0  0  0  0  0  0  0  0  0  0  0
   -1.3401   -2.0880    2.7588 H   0  0  0  0  0  0  0  0  0  0  0  0
  1  2  2  0
  2  3  2  0
  2  4  1  0
  4  5  2  0
  5  6  1  0
  6  7  2  0
  7  8  1  0
  8  9  1  0
  8 10  2  0
  2 11  1  0
 11 12  2  0
 12 13  1  0
 13 14  2  0
 14 15  1  0
 15 16  2  0
 16 17  1  0
 17 18  1  0
 18 19  2  0
 16 20  1  0
 20 21  1  0
 21 22  1  0
 22 23  1  0
 23 24  1  0
 24 25  1  0
 20 26  1  0
 26 27  1  0
 27 28  1  0
 10  4  1  0
 19 11  1  0
 25 20  1  0
 18 14  1  0
 28 15  1  0
  5 29  1  0
  6 30  1  0
  7 31  1  0
 10 32  1  0
 12 33  1  0
 13 34  1  0
 19 35  1  0
 21 36  1  0
 21 37  1  0
 22 38  1  0
 22 39  1  0
 23 40  1  0
 23 41  1  0
 25 42  1  0
 25 43  1  0
 26 44  1  0
 27 45  1  0
 27 46  1  0
 28 47  1  0
 28 48  1  0
M  END
$$$$
