@<TRIPOS>MOLECULE
*****
 62 65 0 0 0
SMALL
GASTEIGER

@<TRIPOS>ATOM
      1 C           1.6013   -0.0435   -3.3210 C.1     1  UNL1       -0.1179
      2 C           1.7759   -0.5390   -2.2092 C.1     1  UNL1       -0.0900
      3 C           1.9900   -1.1340   -0.8696 C.3     1  UNL1        0.0609
      4 N           1.8699   -0.3244    0.2191 N.3     1  UNL1       -0.2858
      5 C           0.6687    0.3534    0.5707 C.3     1  UNL1        0.0004
      6 C          -0.4540   -0.5837    0.8407 C.3     1  UNL1       -0.0372
      7 C          -1.7658   -0.0149    1.2321 C.3     1  UNL1       -0.0376
      8 C          -2.2943    0.9221    0.1497 C.3     1  UNL1       -0.0373
      9 C          -3.8195    0.7124    0.0230 C.3     1  UNL1       -0.0005
     10 N          -4.0375   -0.5025   -0.6759 N.3     1  UNL1       -0.2981
     11 C          -5.3710   -0.9762   -0.6846 C.3     1  UNL1        0.0240
     12 C          -6.3251    0.1186   -0.8885 C.ar    1  UNL1       -0.0334
     13 C          -6.3911    0.7914   -2.0771 C.ar    1  UNL1       -0.0573
     14 C          -7.3287    1.7905   -2.3198 C.ar    1  UNL1       -0.0615
     15 C          -8.2031    2.0916   -1.2811 C.ar    1  UNL1       -0.0617
     16 C          -8.1463    1.4279   -0.0604 C.ar    1  UNL1       -0.0615
     17 C          -7.2194    0.4466    0.1334 C.ar    1  UNL1       -0.0573
     18 C          -3.1632   -1.5650   -0.1134 C.3     1  UNL1       -0.0005
     19 C          -2.7285   -1.2304    1.2935 C.3     1  UNL1       -0.0373
     20 C           2.8129   -0.2699    1.2579 C.3     1  UNL1        0.0421
     21 C           4.2110    0.0873    0.8447 C.ar    1  UNL1        0.0561
     22 C           4.5492    1.4183    0.5471 C.ar    1  UNL1       -0.0385
     23 C           5.8722    1.7376    0.4018 C.ar    1  UNL1       -0.0507
     24 C           6.8418    0.7695    0.5484 C.ar    1  UNL1        0.0040
     25 C           8.2321    1.1220    0.5260 C.ar    1  UNL1       -0.0523
     26 C           9.1884    0.1683    0.7603 C.ar    1  UNL1       -0.0576
     27 C           8.7711   -1.1367    0.9921 C.ar    1  UNL1       -0.0180
     28 C           7.4020   -1.4509    1.0128 C.ar    1  UNL1        0.1427
     29 O           7.0829   -2.8391    1.2292 O.3     1  UNL1       -0.5046
     30 C           6.4584   -0.5266    0.8237 C.ar    1  UNL1        0.1126
     31 N           5.1282   -0.8285    0.9618 N.ar    1  UNL1       -0.2466
     32 H           1.4234    0.4057   -4.3280 H       1  UNL1        0.1228
     33 H           2.9666   -1.7069   -0.8999 H       1  UNL1        0.0563
     34 H           1.2235   -1.9731   -0.8032 H       1  UNL1        0.0563
     35 H           0.4978    1.1558   -0.1466 H       1  UNL1        0.0427
     36 H           0.8799    0.8903    1.5556 H       1  UNL1        0.0427
     37 H          -0.1598   -1.2634    1.7292 H       1  UNL1        0.0280
     38 H          -0.5690   -1.2294   -0.0674 H       1  UNL1        0.0280
     39 H          -1.7301    0.4445    2.2361 H       1  UNL1        0.0302
     40 H          -2.1524    1.9440    0.4833 H       1  UNL1        0.0280
     41 H          -1.8703    0.7255   -0.8434 H       1  UNL1        0.0280
     42 H          -4.1857    1.5795   -0.5811 H       1  UNL1        0.0427
     43 H          -4.2738    0.7773    1.0320 H       1  UNL1        0.0427
     44 H          -5.5509   -1.4491    0.3336 H       1  UNL1        0.0476
     45 H          -5.5218   -1.7859   -1.4527 H       1  UNL1        0.0476
     46 H          -5.6512    0.6468   -2.8899 H       1  UNL1        0.0621
     47 H          -7.3287    2.3520   -3.2273 H       1  UNL1        0.0618
     48 H          -8.9809    2.8224   -1.4352 H       1  UNL1        0.0618
     49 H          -8.8520    1.7253    0.7417 H       1  UNL1        0.0618
     50 H          -7.1438   -0.1132    1.0720 H       1  UNL1        0.0621
     51 H          -2.2897   -1.6810   -0.7875 H       1  UNL1        0.0427
     52 H          -3.7190   -2.5258   -0.1083 H       1  UNL1        0.0427
     53 H          -2.1255   -2.1132    1.6688 H       1  UNL1        0.0280
     54 H          -3.5724   -1.0570    1.9597 H       1  UNL1        0.0280
     55 H           2.4775    0.5321    1.9815 H       1  UNL1        0.0491
     56 H           2.8428   -1.2118    1.8602 H       1  UNL1        0.0491
     57 H           3.7958    2.1654    0.4014 H       1  UNL1        0.0636
     58 H           6.1705    2.7496    0.1056 H       1  UNL1        0.0625
     59 H           8.5008    2.1646    0.3753 H       1  UNL1        0.0624
     60 H          10.2559    0.3742    0.8766 H       1  UNL1        0.0619
     61 H           9.5313   -1.8963    1.1232 H       1  UNL1        0.0655
     62 H           7.9025   -3.4407    1.4217 H       1  UNL1        0.2922
@<TRIPOS>BOND
     1     1     2    3
     2     2     3    1
     3     3     4    1
     4     4     5    1
     5     5     6    1
     6     6     7    1
     7     7     8    1
     8     8     9    1
     9     9    10    1
    10    10    11    1
    11    11    12    1
    12    12    13   ar
    13    13    14   ar
    14    14    15   ar
    15    15    16   ar
    16    16    17   ar
    17    10    18    1
    18    18    19    1
    19     4    20    1
    20    20    21    1
    21    21    22   ar
    22    22    23   ar
    23    23    24   ar
    24    24    25   ar
    25    25    26   ar
    26    26    27   ar
    27    27    28   ar
    28    28    29    1
    29    28    30   ar
    30    30    31   ar
    31    19     7    1
    32    31    21   ar
    33    17    12   ar
    34    30    24   ar
    35     1    32    1
    36     3    33    1
    37     3    34    1
    38     5    35    1
    39     5    36    1
    40     6    37    1
    41     6    38    1
    42     7    39    1
    43     8    40    1
    44     8    41    1
    45     9    42    1
    46     9    43    1
    47    11    44    1
    48    11    45    1
    49    13    46    1
    50    14    47    1
    51    15    48    1
    52    16    49    1
    53    17    50    1
    54    18    51    1
    55    18    52    1
    56    19    53    1
    57    19    54    1
    58    20    55    1
    59    20    56    1
    60    22    57    1
    61    23    58    1
    62    25    59    1
    63    26    60    1
    64    27    61    1
    65    29    62    1
