
     RDKit          3D

 62 65  0  0  0  0  0  0  0  0999 V2000
    1.6013   -0.0435   -3.3210 C   0  0  0  0  0  0  0  0  0  0  0  0
    1.7759   -0.5390   -2.2092 C   0  0  0  0  0  0  0  0  0  0  0  0
    1.9900   -1.1340   -0.8696 C   0  0  0  0  0  0  0  0  0  0  0  0
    1.8699   -0.3244    0.2191 N   0  0  0  0  0  0  0  0  0  0  0  0
    0.6687    0.3534    0.5707 C   0  0  0  0  0  0  0  0  0  0  0  0
   -0.4540   -0.5837    0.8407 C   0  0  0  0  0  0  0  0  0  0  0  0
   -1.7658   -0.0149    1.2321 C   0  0  0  0  0  0  0  0  0  0  0  0
   -2.2943    0.9221    0.1497 C   0  0  0  0  0  0  0  0  0  0  0  0
   -3.8195    0.7124    0.0230 C   0  0  0  0  0  0  0  0  0  0  0  0
   -4.0375   -0.5025   -0.6759 N   0  0  0  0  0  0  0  0  0  0  0  0
   -5.3710   -0.9762   -0.6846 C   0  0  0  0  0  0  0  0  0  0  0  0
   -6.3251    0.1186   -0.8885 C   0  0  0  0  0  0  0  0  0  0  0  0
   -6.3911    0.7914   -2.0771 C   0  0  0  0  0  0  0  0  0  0  0  0
   -7.3287    1.7905   -2.3198 C   0  0  0  0  0  0  0  0  0  0  0  0
   -8.2031    2.0916   -1.2811 C   0  0  0  0  0  0  0  0  0  0  0  0
   -8.1463    1.4279   -0.0604 C   0  0  0  0  0  0  0  0  0  0  0  0
   -7.2194    0.4466    0.1334 C   0  0  0  0  0  0  0  0  0  0  0  0
   -3.1632   -1.5650   -0.1134 C   0  0  0  0  0  0  0  0  0  0  0  0
   -2.7285   -1.2304    1.2935 C   0  0  0  0  0  0  0  0  0  0  0  0
    2.8129   -0.2699    1.2579 C   0  0  0  0  0  0  0  0  0  0  0  0
    4.2110    0.0873    0.8447 C   0  0  0  0  0  0  0  0  0  0  0  0
    4.5492    1.4183    0.5471 C   0  0  0  0  0  0  0  0  0  0  0  0
    5.8722    1.7376    0.4018 C   0  0  0  0  0  0  0  0  0  0  0  0
    6.8418    0.7695    0.5484 C   0  0  0  0  0  0  0  0  0  0  0  0
    8.2321    1.1220    0.5260 C   0  0  0  0  0  0  0  0  0  0  0  0
    9.1884    0.1683    0.7603 C   0  0  0  0  0  0  0  0  0  0  0  0
    8.7711   -1.1367    0.9921 C   0  0  0  0  0  0  0  0  0  0  0  0
    7.4020   -1.4509    1.0128 C   0  0  0  0  0  0  0  0  0  0  0  0
    7.0829   -2.8391    1.2292 O   0  0  0  0  0  0  0  0  0  0  0  0
    6.4584   -0.5266    0.8237 C   0  0  0  0  0  0  0  0  0  0  0  0
    5.1282   -0.8285    0.9618 N   0  0  0  0  0  0  0  0  0  0  0  0
    1.4234    0.4057   -4.3280 H   0  0  0  0  0  0  0  0  0  0  0  0
    2.9666   -1.7069   -0.8999 H   0  0  0  0  0  0  0  0  0  0  0  0
    1.2235   -1.9731   -0.8032 H   0  0  0  0  0  0  0  0  0  0  0  0
    0.4978    1.1558   -0.1466 H   0  0  0  0  0  0  0  0  0  0  0  0
    0.8799    0.8903    1.5556 H   0  0  0  0  0  0  0  0  0  0  0  0
   -0.1598   -1.2634    1.7292 H   0  0  0  0  0  0  0  0  0  0  0  0
   -0.5690   -1.2294   -0.0674 H   0  0  0  0  0  0  0  0  0  0  0  0
   -1.7301    0.4445    2.2361 H   0  0  0  0  0  0  0  0  0  0  0  0
   -2.1524    1.9440    0.4833 H   0  0  0  0  0  0  0  0  0  0  0  0
   -1.8703    0.7255   -0.8434 H   0  0  0  0  0  0  0  0  0  0  0  0
   -4.1857    1.5795   -0.5811 H   0  0  0  0  0  0  0  0  0  0  0  0
   -4.2738    0.7773    1.0320 H   0  0  0  0  0  0  0  0  0  0  0  0
   -5.5509   -1.4491    0.3336 H   0  0  0  0  0  0  0  0  0  0  0  0
   -5.5218   -1.7859   -1.4527 H   0  0  0  0  0  0  0  0  0  0  0  0
   -5.6512    0.6468   -2.8899 H   0  0  0  0  0  0  0  0  0  0  0  0
   -7.3287    2.3520   -3.2273 H   0  0  0  0  0  0  0  0  0  0  0  0
   -8.9809    2.8224   -1.4352 H   0  0  0  0  0  0  0  0  0  0  0  0
   -8.8520    1.7253    0.7417 H   0  0  0  0  0  0  0  0  0  0  0  0
   -7.1438   -0.1132    1.0720 H   0  0  0  0  0  0  0  0  0  0  0  0
   -2.2897   -1.6810   -0.7875 H   0  0  0  0  0  0  0  0  0  0  0  0
   -3.7190   -2.5258   -0.1083 H   0  0  0  0  0  0  0  0  0  0  0  0
   -2.1255   -2.1132    1.6688 H   0  0  0  0  0  0  0  0  0  0  0  0
   -3.5724   -1.0570    1.9597 H   0  0  0  0  0  0  0  0  0  0  0  0
    2.4775    0.5321    1.9815 H   0  0  0  0  0  0  0  0  0  0  0  0
    2.8428   -1.2118    1.8602 H   0  0  0  0  0  0  0  0  0  0  0  0
    3.7958    2.1654    0.4014 H   0  0  0  0  0  0  0  0  0  0  0  0
    6.1705    2.7496    0.1056 H   0  0  0  0  0  0  0  0  0  0  0  0
    8.5008    2.1646    0.3753 H   0  0  0  0  0  0  0  0  0  0  0  0
   10.2559    0.3742    0.8766 H   0  0  0  0  0  0  0  0  0  0  0  0
    9.5313   -1.8963    1.1232 H   0  0  0  0  0  0  0  0  0  0  0  0
    7.9025   -3.4407    1.4217 H   0  0  0  0  0  0  0  0  0  0  0  0
  1  2  3  0
  2  3  1  0
  3  4  1  0
  4  5  1  0
  5  6  1  0
  6  7  1  0
  7  8  1  0
  8  9  1  0
  9 10  1  0
 10 11  1  0
 11 12  1  0
 12 13  2  0
 13 14  1  0
 14 15  2  0
 15 16  1  0
 16 17  2  0
 10 18  1  0
 18 19  1  0
  4 20  1  0
 20 21  1  0
 21 22  2  0
 22 23  1  0
 23 24  2  0
 24 25  1  0
 25 26  2  0
 26 27  1  0
 27 28  2  0
 28 29  1  0
 28 30  1  0
 30 31  2  0
 19  7  1  0
 31 21  1  0
 17 12  1  0
 30 24  1  0
  1 32  1  0
  3 33  1  0
  3 34  1  0
  5 35  1  0
  5 36  1  0
  6 37  1  0
  6 38  1  0
  7 39  1  0
  8 40  1  0
  8 41  1  0
  9 42  1  0
  9 43  1  0
 11 44  1  0
 11 45  1  0
 13 46  1  0
 14 47  1  0
 15 48  1  0
 16 49  1  0
 17 50  1  0
 18 51  1  0
 18 52  1  0
 19 53  1  0
 19 54  1  0
 20 55  1  0
 20 56  1  0
 22 57  1  0
 23 58  1  0
 25 59  1  0
 26 60  1  0
 27 61  1  0
 29 62  1  0
M  END
$$$$
