
     RDKit          3D

 17 17  0  0  0  0  0  0  0  0999 V2000
   -3.1108   -0.2634   -0.2795 N   0  0  0  0  0  0  0  0  0  0  0  0
   -1.6979   -0.1477   -0.1534 C   0  0  0  0  0  0  0  0  0  0  0  0
   -1.1745    0.7661    0.7356 C   0  0  0  0  0  0  0  0  0  0  0  0
    0.1987    0.9056    0.8842 C   0  0  0  0  0  0  0  0  0  0  0  0
    1.0916    0.1453    0.1578 C   0  0  0  0  0  0  0  0  0  0  0  0
    2.5362    0.3182    0.3395 C   0  0  0  0  0  0  0  0  0  0  0  0
    2.9426    1.1642    1.1617 O   0  0  0  0  0  0  0  0  0  0  0  0
    3.4614   -0.4199   -0.3650 O   0  0  0  0  0  0  0  0  0  0  0  0
    0.5697   -0.7696   -0.7322 C   0  0  0  0  0  0  0  0  0  0  0  0
   -0.8068   -0.9071   -0.8790 C   0  0  0  0  0  0  0  0  0  0  0  0
   -3.6397    0.4129   -0.8709 H   0  0  0  0  0  0  0  0  0  0  0  0
   -3.6268   -1.0167    0.2119 H   0  0  0  0  0  0  0  0  0  0  0  0
   -1.8197    1.3996    1.3417 H   0  0  0  0  0  0  0  0  0  0  0  0
    0.6219    1.6260    1.5852 H   0  0  0  0  0  0  0  0  0  0  0  0
    4.4420   -0.2068   -0.2425 H   0  0  0  0  0  0  0  0  0  0  0  0
    1.2452   -1.3802   -1.3159 H   0  0  0  0  0  0  0  0  0  0  0  0
   -1.2333   -1.6267   -1.5792 H   0  0  0  0  0  0  0  0  0  0  0  0
  1  2  1  0
  2  3  2  0
  3  4  1  0
  4  5  2  0
  5  6  1  0
  6  7  2  0
  6  8  1  0
  5  9  1  0
  9 10  2  0
 10  2  1  0
  1 11  1  0
  1 12  1  0
  3 13  1  0
  4 14  1  0
  8 15  1  0
  9 16  1  0
 10 17  1  0
M  END
$$$$
