@<TRIPOS>MOLECULE
*****
 17 17 0 0 0
SMALL
GASTEIGER

@<TRIPOS>ATOM
      1 N          -3.1108   -0.2634   -0.2795 N.pl3   1  UNL1       -0.3580
      2 C          -1.6979   -0.1477   -0.1534 C.ar    1  UNL1        0.0246
      3 C          -1.1745    0.7661    0.7356 C.ar    1  UNL1       -0.0403
      4 C           0.1987    0.9056    0.8842 C.ar    1  UNL1       -0.0460
      5 C           1.0916    0.1453    0.1578 C.ar    1  UNL1        0.0589
      6 C           2.5362    0.3182    0.3395 C.2     1  UNL1        0.3368
      7 O           2.9426    1.1642    1.1617 O.2     1  UNL1       -0.2451
      8 O           3.4614   -0.4199   -0.3650 O.3     1  UNL1       -0.4771
      9 C           0.5697   -0.7696   -0.7322 C.ar    1  UNL1       -0.0460
     10 C          -0.8068   -0.9071   -0.8790 C.ar    1  UNL1       -0.0403
     11 H          -3.6397    0.4129   -0.8709 H       1  UNL1        0.1423
     12 H          -3.6268   -1.0167    0.2119 H       1  UNL1        0.1423
     13 H          -1.8197    1.3996    1.3417 H       1  UNL1        0.0636
     14 H           0.6219    1.6260    1.5852 H       1  UNL1        0.0626
     15 H           4.4420   -0.2068   -0.2425 H       1  UNL1        0.2954
     16 H           1.2452   -1.3802   -1.3159 H       1  UNL1        0.0626
     17 H          -1.2333   -1.6267   -1.5792 H       1  UNL1        0.0636
@<TRIPOS>BOND
     1     1     2    1
     2     2     3   ar
     3     3     4   ar
     4     4     5   ar
     5     5     6    1
     6     6     7    2
     7     6     8    1
     8     5     9   ar
     9     9    10   ar
    10    10     2   ar
    11     1    11    1
    12     1    12    1
    13     3    13    1
    14     4    14    1
    15     8    15    1
    16     9    16    1
    17    10    17    1
