@<TRIPOS>MOLECULE
*****
 68 72 0 0 0
SMALL
GASTEIGER

@<TRIPOS>ATOM
      1 C          -0.0732   -1.8100    3.8024 C.3     1  UNL1       -0.0217
      2 C           1.3483   -2.0925    3.4104 C.ar    1  UNL1        0.0472
      3 N           2.1388   -2.8181    4.1776 N.ar    1  UNL1       -0.2582
      4 C           3.4196   -3.0372    3.8103 C.ar    1  UNL1        0.0471
      5 C           3.8467   -2.4895    2.6392 C.ar    1  UNL1        0.0915
      6 C           5.3502   -2.7160    2.3330 C.1     1  UNL1        0.1026
      7 N           6.2991   -2.8686    2.1290 N.1     1  UNL1       -0.1908
      8 C           3.0852   -1.7382    1.8044 C.ar    1  UNL1        0.0593
      9 N           3.5634   -1.3130    0.5537 N.pl3   1  UNL1       -0.3127
     10 C           4.6399   -0.4386    0.3470 C.ar    1  UNL1        0.0350
     11 C           5.3947    0.1975    1.2972 C.ar    1  UNL1       -0.0383
     12 C           6.4766    1.0026    1.0013 C.ar    1  UNL1       -0.0360
     13 C           6.8705    1.2181   -0.3011 C.ar    1  UNL1        0.0468
     14 N           7.8509    1.9298   -0.8973 N.ar    1  UNL1       -0.3606
     15 C           7.7701    1.7859   -2.2376 C.ar    1  UNL1        0.0027
     16 C           6.7100    0.9612   -2.4702 C.ar    1  UNL1       -0.0364
     17 C           6.1360    0.5969   -1.2770 C.ar    1  UNL1        0.0043
     18 C           5.0659   -0.1966   -0.9752 C.ar    1  UNL1       -0.0202
     19 C           4.2951   -0.8468   -2.0640 C.3     1  UNL1       -0.0373
     20 C           1.7881   -1.5078    2.1723 C.ar    1  UNL1        0.0184
     21 C           0.8184   -0.7734    1.4415 C.2     1  UNL1       -0.0505
     22 C           0.9822    0.1116    0.4692 C.2     1  UNL1       -0.0539
     23 C          -0.1356    0.8076   -0.1976 C.ar    1  UNL1       -0.0232
     24 C           0.1601    1.7359   -1.1524 C.ar    1  UNL1       -0.0545
     25 C          -0.8736    2.4756   -1.7821 C.ar    1  UNL1       -0.0594
     26 C          -2.1838    2.2526   -1.4246 C.ar    1  UNL1       -0.0353
     27 C          -2.4967    1.3292   -0.4756 C.ar    1  UNL1        0.1060
     28 S          -4.1221    1.0573    0.0438 S.O2    1  UNL1        0.0609
     29 O          -4.8918    2.3799    0.0648 O.2     1  UNL1       -0.1528
     30 O          -4.1788    0.5848    1.4774 O.2     1  UNL1       -0.1528
     31 N          -4.9779    0.0115   -0.9445 N.3     1  UNL1       -0.1741
     32 C          -5.1987    0.3964   -2.2984 C.3     1  UNL1        0.0333
     33 C          -6.5973    0.9812   -2.4750 C.3     1  UNL1        0.0131
     34 N          -7.5588    0.0082   -2.0825 N.3     1  UNL1       -0.3028
     35 C          -8.8895    0.4640   -2.4082 C.3     1  UNL1       -0.0127
     36 C          -7.4073   -0.3912   -0.7281 C.3     1  UNL1        0.0131
     37 C          -6.0120   -0.7788   -0.3768 C.3     1  UNL1        0.0333
     38 C          -1.4441    0.5989    0.1419 C.ar    1  UNL1       -0.0282
     39 H          -0.2144   -1.9118    4.9021 H       1  UNL1        0.0293
     40 H          -0.2246   -0.7112    3.6119 H       1  UNL1        0.0293
     41 H          -0.7973   -2.3579    3.1904 H       1  UNL1        0.0293
     42 H           4.0773   -3.6448    4.4566 H       1  UNL1        0.0843
     43 H           3.0674   -1.6900   -0.3060 H       1  UNL1        0.1522
     44 H           5.0878    0.0460    2.3446 H       1  UNL1        0.0637
     45 H           7.0212    1.4603    1.8047 H       1  UNL1        0.0639
     46 H           8.5502    2.4901   -0.3458 H       1  UNL1        0.1653
     47 H           8.4437    2.2488   -2.9585 H       1  UNL1        0.0807
     48 H           6.3523    0.6249   -3.4510 H       1  UNL1        0.0639
     49 H           3.2921   -0.4133   -2.1885 H       1  UNL1        0.0278
     50 H           4.8305   -0.6741   -3.0155 H       1  UNL1        0.0278
     51 H           4.2737   -1.9591   -1.9138 H       1  UNL1        0.0278
     52 H          -0.2525   -0.9558    1.6583 H       1  UNL1        0.0625
     53 H           1.9761    0.3387    0.1782 H       1  UNL1        0.0624
     54 H           1.1784    1.9294   -1.4500 H       1  UNL1        0.0623
     55 H          -0.6670    3.2155   -2.5347 H       1  UNL1        0.0618
     56 H          -2.9945    2.8347   -1.9140 H       1  UNL1        0.0637
     57 H          -5.0837   -0.4585   -2.9943 H       1  UNL1        0.0456
     58 H          -4.5034    1.1702   -2.6232 H       1  UNL1        0.0456
     59 H          -6.7195    1.2766   -3.5176 H       1  UNL1        0.0439
     60 H          -6.6138    1.9061   -1.8520 H       1  UNL1        0.0439
     61 H          -9.3187   -0.2092   -3.1991 H       1  UNL1        0.0391
     62 H          -9.5604    0.5995   -1.5551 H       1  UNL1        0.0391
     63 H          -8.7865    1.4558   -2.9179 H       1  UNL1        0.0391
     64 H          -8.0411   -1.3270   -0.5645 H       1  UNL1        0.0439
     65 H          -7.8020    0.3699    0.0198 H       1  UNL1        0.0439
     66 H          -5.9367   -0.7537    0.7528 H       1  UNL1        0.0456
     67 H          -5.8765   -1.8534   -0.7068 H       1  UNL1        0.0456
     68 H          -1.7268   -0.1169    0.8805 H       1  UNL1        0.0643
@<TRIPOS>BOND
     1     1     2    1
     2     2     3   ar
     3     3     4   ar
     4     4     5   ar
     5     5     6    1
     6     6     7    3
     7     5     8   ar
     8     8     9    1
     9     9    10    1
    10    10    11   ar
    11    11    12   ar
    12    12    13   ar
    13    13    14   ar
    14    14    15   ar
    15    15    16   ar
    16    16    17   ar
    17    17    18   ar
    18    18    19    1
    19     8    20   ar
    20    20    21    1
    21    21    22    2
    22    22    23    1
    23    23    24   ar
    24    24    25   ar
    25    25    26   ar
    26    26    27   ar
    27    27    28    1
    28    28    29    2
    29    28    30    2
    30    28    31    1
    31    31    32    1
    32    32    33    1
    33    33    34    1
    34    34    35    1
    35    34    36    1
    36    36    37    1
    37    27    38   ar
    38    20     2   ar
    39    38    23   ar
    40    18    10   ar
    41    37    31    1
    42    17    13   ar
    43     1    39    1
    44     1    40    1
    45     1    41    1
    46     4    42    1
    47     9    43    1
    48    11    44    1
    49    12    45    1
    50    14    46    1
    51    15    47    1
    52    16    48    1
    53    19    49    1
    54    19    50    1
    55    19    51    1
    56    21    52    1
    57    22    53    1
    58    24    54    1
    59    25    55    1
    60    26    56    1
    61    32    57    1
    62    32    58    1
    63    33    59    1
    64    33    60    1
    65    35    61    1
    66    35    62    1
    67    35    63    1
    68    36    64    1
    69    36    65    1
    70    37    66    1
    71    37    67    1
    72    38    68    1
