
     RDKit          3D

 68 72  0  0  0  0  0  0  0  0999 V2000
   -0.0732   -1.8100    3.8024 C   0  0  0  0  0  0  0  0  0  0  0  0
    1.3483   -2.0925    3.4104 C   0  0  0  0  0  0  0  0  0  0  0  0
    2.1388   -2.8181    4.1776 N   0  0  0  0  0  0  0  0  0  0  0  0
    3.4196   -3.0372    3.8103 C   0  0  0  0  0  0  0  0  0  0  0  0
    3.8467   -2.4895    2.6392 C   0  0  0  0  0  0  0  0  0  0  0  0
    5.3502   -2.7160    2.3330 C   0  0  0  0  0  0  0  0  0  0  0  0
    6.2991   -2.8686    2.1290 N   0  0  0  0  0  0  0  0  0  0  0  0
    3.0852   -1.7382    1.8044 C   0  0  0  0  0  0  0  0  0  0  0  0
    3.5634   -1.3130    0.5537 N   0  0  0  0  0  0  0  0  0  0  0  0
    4.6399   -0.4386    0.3470 C   0  0  0  0  0  0  0  0  0  0  0  0
    5.3947    0.1975    1.2972 C   0  0  0  0  0  0  0  0  0  0  0  0
    6.4766    1.0026    1.0013 C   0  0  0  0  0  0  0  0  0  0  0  0
    6.8705    1.2181   -0.3011 C   0  0  0  0  0  0  0  0  0  0  0  0
    7.8509    1.9298   -0.8973 N   0  0  0  0  0  0  0  0  0  0  0  0
    7.7701    1.7859   -2.2376 C   0  0  0  0  0  0  0  0  0  0  0  0
    6.7100    0.9612   -2.4702 C   0  0  0  0  0  0  0  0  0  0  0  0
    6.1360    0.5969   -1.2770 C   0  0  0  0  0  0  0  0  0  0  0  0
    5.0659   -0.1966   -0.9752 C   0  0  0  0  0  0  0  0  0  0  0  0
    4.2951   -0.8468   -2.0640 C   0  0  0  0  0  0  0  0  0  0  0  0
    1.7881   -1.5078    2.1723 C   0  0  0  0  0  0  0  0  0  0  0  0
    0.8184   -0.7734    1.4415 C   0  0  0  0  0  0  0  0  0  0  0  0
    0.9822    0.1116    0.4692 C   0  0  0  0  0  0  0  0  0  0  0  0
   -0.1356    0.8076   -0.1976 C   0  0  0  0  0  0  0  0  0  0  0  0
    0.1601    1.7359   -1.1524 C   0  0  0  0  0  0  0  0  0  0  0  0
   -0.8736    2.4756   -1.7821 C   0  0  0  0  0  0  0  0  0  0  0  0
   -2.1838    2.2526   -1.4246 C   0  0  0  0  0  0  0  0  0  0  0  0
   -2.4967    1.3292   -0.4756 C   0  0  0  0  0  0  0  0  0  0  0  0
   -4.1221    1.0573    0.0438 S   0  0  0  0  0  6  0  0  0  0  0  0
   -4.8918    2.3799    0.0648 O   0  0  0  0  0  0  0  0  0  0  0  0
   -4.1788    0.5848    1.4774 O   0  0  0  0  0  0  0  0  0  0  0  0
   -4.9779    0.0115   -0.9445 N   0  0  0  0  0  0  0  0  0  0  0  0
   -5.1987    0.3964   -2.2984 C   0  0  0  0  0  0  0  0  0  0  0  0
   -6.5973    0.9812   -2.4750 C   0  0  0  0  0  0  0  0  0  0  0  0
   -7.5588    0.0082   -2.0825 N   0  0  0  0  0  0  0  0  0  0  0  0
   -8.8895    0.4640   -2.4082 C   0  0  0  0  0  0  0  0  0  0  0  0
   -7.4073   -0.3912   -0.7281 C   0  0  0  0  0  0  0  0  0  0  0  0
   -6.0120   -0.7788   -0.3768 C   0  0  0  0  0  0  0  0  0  0  0  0
   -1.4441    0.5989    0.1419 C   0  0  0  0  0  0  0  0  0  0  0  0
   -0.2144   -1.9118    4.9021 H   0  0  0  0  0  0  0  0  0  0  0  0
   -0.2246   -0.7112    3.6119 H   0  0  0  0  0  0  0  0  0  0  0  0
   -0.7973   -2.3579    3.1904 H   0  0  0  0  0  0  0  0  0  0  0  0
    4.0773   -3.6448    4.4566 H   0  0  0  0  0  0  0  0  0  0  0  0
    3.0674   -1.6900   -0.3060 H   0  0  0  0  0  0  0  0  0  0  0  0
    5.0878    0.0460    2.3446 H   0  0  0  0  0  0  0  0  0  0  0  0
    7.0212    1.4603    1.8047 H   0  0  0  0  0  0  0  0  0  0  0  0
    8.5502    2.4901   -0.3458 H   0  0  0  0  0  0  0  0  0  0  0  0
    8.4437    2.2488   -2.9585 H   0  0  0  0  0  0  0  0  0  0  0  0
    6.3523    0.6249   -3.4510 H   0  0  0  0  0  0  0  0  0  0  0  0
    3.2921   -0.4133   -2.1885 H   0  0  0  0  0  0  0  0  0  0  0  0
    4.8305   -0.6741   -3.0155 H   0  0  0  0  0  0  0  0  0  0  0  0
    4.2737   -1.9591   -1.9138 H   0  0  0  0  0  0  0  0  0  0  0  0
   -0.2525   -0.9558    1.6583 H   0  0  0  0  0  0  0  0  0  0  0  0
    1.9761    0.3387    0.1782 H   0  0  0  0  0  0  0  0  0  0  0  0
    1.1784    1.9294   -1.4500 H   0  0  0  0  0  0  0  0  0  0  0  0
   -0.6670    3.2155   -2.5347 H   0  0  0  0  0  0  0  0  0  0  0  0
   -2.9945    2.8347   -1.9140 H   0  0  0  0  0  0  0  0  0  0  0  0
   -5.0837   -0.4585   -2.9943 H   0  0  0  0  0  0  0  0  0  0  0  0
   -4.5034    1.1702   -2.6232 H   0  0  0  0  0  0  0  0  0  0  0  0
   -6.7195    1.2766   -3.5176 H   0  0  0  0  0  0  0  0  0  0  0  0
   -6.6138    1.9061   -1.8520 H   0  0  0  0  0  0  0  0  0  0  0  0
   -9.3187   -0.2092   -3.1991 H   0  0  0  0  0  0  0  0  0  0  0  0
   -9.5604    0.5995   -1.5551 H   0  0  0  0  0  0  0  0  0  0  0  0
   -8.7865    1.4558   -2.9179 H   0  0  0  0  0  0  0  0  0  0  0  0
   -8.0411   -1.3270   -0.5645 H   0  0  0  0  0  0  0  0  0  0  0  0
   -7.8020    0.3699    0.0198 H   0  0  0  0  0  0  0  0  0  0  0  0
   -5.9367   -0.7537    0.7528 H   0  0  0  0  0  0  0  0  0  0  0  0
   -5.8765   -1.8534   -0.7068 H   0  0  0  0  0  0  0  0  0  0  0  0
   -1.7268   -0.1169    0.8805 H   0  0  0  0  0  0  0  0  0  0  0  0
  1  2  1  0
  2  3  2  0
  3  4  1  0
  4  5  2  0
  5  6  1  0
  6  7  3  0
  5  8  1  0
  8  9  1  0
  9 10  1  0
 10 11  2  0
 11 12  1  0
 12 13  2  0
 13 14  1  0
 14 15  1  0
 15 16  2  0
 16 17  1  0
 17 18  2  0
 18 19  1  0
  8 20  2  0
 20 21  1  0
 21 22  2  0
 22 23  1  0
 23 24  2  0
 24 25  1  0
 25 26  2  0
 26 27  1  0
 27 28  1  0
 28 29  2  0
 28 30  2  0
 28 31  1  0
 31 32  1  0
 32 33  1  0
 33 34  1  0
 34 35  1  0
 34 36  1  0
 36 37  1  0
 27 38  2  0
 20  2  1  0
 38 23  1  0
 18 10  1  0
 37 31  1  0
 17 13  1  0
  1 39  1  0
  1 40  1  0
  1 41  1  0
  4 42  1  0
  9 43  1  0
 11 44  1  0
 12 45  1  0
 14 46  1  0
 15 47  1  0
 16 48  1  0
 19 49  1  0
 19 50  1  0
 19 51  1  0
 21 52  1  0
 22 53  1  0
 24 54  1  0
 25 55  1  0
 26 56  1  0
 32 57  1  0
 32 58  1  0
 33 59  1  0
 33 60  1  0
 35 61  1  0
 35 62  1  0
 35 63  1  0
 36 64  1  0
 36 65  1  0
 37 66  1  0
 37 67  1  0
 38 68  1  0
M  END
$$$$
