
     RDKit          3D

 24 25  0  0  0  0  0  0  0  0999 V2000
   -3.3905   -1.9099   -0.2110 C   0  0  0  0  0  0  0  0  0  0  0  0
   -2.2013   -0.9848   -0.1188 C   0  0  0  0  0  0  0  0  0  0  0  0
   -0.9504   -1.4773   -0.1122 N   0  0  0  0  0  0  0  0  0  0  0  0
    0.1244   -0.6879   -0.0317 C   0  0  0  0  0  0  0  0  0  0  0  0
    1.4196   -1.1647   -0.0227 C   0  0  0  0  0  0  0  0  0  0  0  0
    1.5866   -2.4044   -0.0942 O   0  0  0  0  0  0  0  0  0  0  0  0
    2.4046   -0.2581    0.0623 N   0  0  0  0  0  0  0  0  0  0  0  0
    3.7860   -0.7520    0.0728 C   0  0  0  0  0  0  0  0  0  0  0  0
    2.1565    1.0639    0.1365 C   0  0  0  0  0  0  0  0  0  0  0  0
    3.1597    1.8500    0.2147 O   0  0  0  0  0  0  0  0  0  0  0  0
    0.9134    1.5744    0.1312 N   0  0  0  0  0  0  0  0  0  0  0  0
   -0.1325    0.7685    0.0505 C   0  0  0  0  0  0  0  0  0  0  0  0
   -1.3991    1.2291    0.0414 N   0  0  0  0  0  0  0  0  0  0  0  0
   -1.6050    2.6575    0.1234 C   0  0  0  0  0  0  0  0  0  0  0  0
   -2.3778    0.3469   -0.0419 N   0  0  0  0  0  0  0  0  0  0  0  0
   -3.5697   -2.4331    0.7352 H   0  0  0  0  0  0  0  0  0  0  0  0
   -3.2204   -2.6864   -0.9840 H   0  0  0  0  0  0  0  0  0  0  0  0
   -4.2534   -1.3181   -0.5355 H   0  0  0  0  0  0  0  0  0  0  0  0
    4.4050   -0.1060   -0.5956 H   0  0  0  0  0  0  0  0  0  0  0  0
    3.8206   -1.7740   -0.3359 H   0  0  0  0  0  0  0  0  0  0  0  0
    4.2148   -0.6542    1.0853 H   0  0  0  0  0  0  0  0  0  0  0  0
   -2.6641    2.9260    0.1774 H   0  0  0  0  0  0  0  0  0  0  0  0
   -1.1049    3.0969   -0.7865 H   0  0  0  0  0  0  0  0  0  0  0  0
   -1.1221    3.0976    1.0391 H   0  0  0  0  0  0  0  0  0  0  0  0
  1  2  1  0
  2  3  1  0
  3  4  2  0
  4  5  1  0
  5  6  2  0
  5  7  1  0
  7  8  1  0
  7  9  1  0
  9 10  2  0
  9 11  1  0
 11 12  2  0
 12 13  1  0
 13 14  1  0
 13 15  1  0
 15  2  2  0
 12  4  1  0
  1 16  1  0
  1 17  1  0
  1 18  1  0
  8 19  1  0
  8 20  1  0
  8 21  1  0
 14 22  1  0
 14 23  1  0
 14 24  1  0
M  END
$$$$
