@<TRIPOS>MOLECULE
*****
 24 25 0 0 0
SMALL
GASTEIGER

@<TRIPOS>ATOM
      1 C          -3.3905   -1.9099   -0.2110 C.3     1  UNL1       -0.0029
      2 C          -2.2013   -0.9848   -0.1188 C.ar    1  UNL1        0.1472
      3 N          -0.9504   -1.4773   -0.1122 N.ar    1  UNL1       -0.2220
      4 C           0.1244   -0.6879   -0.0317 C.ar    1  UNL1        0.1740
      5 C           1.4196   -1.1647   -0.0227 C.ar    1  UNL1        0.2841
      6 O           1.5866   -2.4044   -0.0942 O.2     1  UNL1       -0.2651
      7 N           2.4046   -0.2581    0.0623 N.ar    1  UNL1       -0.2607
      8 C           3.7860   -0.7520    0.0728 C.3     1  UNL1        0.0197
      9 C           2.1565    1.0639    0.1365 C.ar    1  UNL1        0.3529
     10 O           3.1597    1.8500    0.2147 O.2     1  UNL1       -0.2443
     11 N           0.9134    1.5744    0.1312 N.ar    1  UNL1       -0.1717
     12 C          -0.1325    0.7685    0.0505 C.ar    1  UNL1        0.1857
     13 N          -1.3991    1.2291    0.0414 N.ar    1  UNL1       -0.2464
     14 C          -1.6050    2.6575    0.1234 C.3     1  UNL1        0.0325
     15 N          -2.3778    0.3469   -0.0419 N.ar    1  UNL1       -0.1550
     16 H          -3.5697   -2.4331    0.7352 H       1  UNL1        0.0309
     17 H          -3.2204   -2.6864   -0.9840 H       1  UNL1        0.0309
     18 H          -4.2534   -1.3181   -0.5355 H       1  UNL1        0.0309
     19 H           4.4050   -0.1060   -0.5956 H       1  UNL1        0.0458
     20 H           3.8206   -1.7740   -0.3359 H       1  UNL1        0.0458
     21 H           4.2148   -0.6542    1.0853 H       1  UNL1        0.0458
     22 H          -2.6641    2.9260    0.1774 H       1  UNL1        0.0473
     23 H          -1.1049    3.0969   -0.7865 H       1  UNL1        0.0473
     24 H          -1.1221    3.0976    1.0391 H       1  UNL1        0.0473
@<TRIPOS>BOND
     1     1     2    1
     2     2     3   ar
     3     3     4   ar
     4     4     5   ar
     5     5     6    2
     6     5     7   ar
     7     7     8    1
     8     7     9   ar
     9     9    10    2
    10     9    11   ar
    11    11    12   ar
    12    12    13   ar
    13    13    14    1
    14    13    15   ar
    15    15     2   ar
    16    12     4    1
    17     1    16    1
    18     1    17    1
    19     1    18    1
    20     8    19    1
    21     8    20    1
    22     8    21    1
    23    14    22    1
    24    14    23    1
    25    14    24    1
