
     RDKit          3D

 37 39  0  0  0  0  0  0  0  0999 V2000
   -3.9518   -2.8134    0.5529 C   0  0  0  0  0  0  0  0  0  0  0  0
   -3.0321   -1.6683    0.2346 C   0  0  0  0  0  0  0  0  0  0  0  0
   -1.7838   -1.7306   -0.2558 N   0  0  0  0  0  0  0  0  0  0  0  0
   -1.2609   -0.5268   -0.4168 N   0  0  0  0  0  0  0  0  0  0  0  0
    0.0549   -0.2118   -0.9200 C   0  0  0  0  0  0  0  0  0  0  0  0
    0.2214    0.0438   -2.2686 C   0  0  0  0  0  0  0  0  0  0  0  0
    1.4595    0.3323   -2.6951 N   0  0  0  0  0  0  0  0  0  0  0  0
    2.5395    0.3815   -1.8609 C   0  0  0  0  0  0  0  0  0  0  0  0
    2.4148    0.1333   -0.5122 C   0  0  0  0  0  0  0  0  0  0  0  0
    3.4960    0.1559    0.4730 C   0  0  2  0  0  0  0  0  0  0  0  0
    4.1137   -1.2402    0.5890 C   0  0  0  0  0  0  0  0  0  0  0  0
    2.9464    0.4412    1.7273 O   0  0  0  0  0  0  0  0  0  0  0  0
    4.5970    1.1387    0.1990 C   0  0  0  0  0  0  0  0  0  0  0  0
    4.1753    2.4301    0.1414 F   0  0  0  0  0  0  0  0  0  0  0  0
    5.3510    0.7402   -0.8846 F   0  0  0  0  0  0  0  0  0  0  0  0
    5.4633    1.0482    1.3020 F   0  0  0  0  0  0  0  0  0  0  0  0
    1.1322   -0.1658   -0.0693 C   0  0  0  0  0  0  0  0  0  0  0  0
   -2.1793    0.3741   -0.0252 C   0  0  0  0  0  0  0  0  0  0  0  0
   -2.2001    1.7492    0.0326 C   0  0  0  0  0  0  0  0  0  0  0  0
   -3.3254    2.3953    0.4960 C   0  0  0  0  0  0  0  0  0  0  0  0
   -4.4507    1.6833    0.9103 C   0  0  0  0  0  0  0  0  0  0  0  0
   -4.4336    0.3017    0.8538 C   0  0  0  0  0  0  0  0  0  0  0  0
   -3.3089   -0.3275    0.3913 C   0  0  0  0  0  0  0  0  0  0  0  0
   -3.8999   -3.0748    1.6203 H   0  0  0  0  0  0  0  0  0  0  0  0
   -4.9814   -2.4980    0.2911 H   0  0  0  0  0  0  0  0  0  0  0  0
   -3.7010   -3.6831   -0.0926 H   0  0  0  0  0  0  0  0  0  0  0  0
   -0.6358    0.0066   -2.9417 H   0  0  0  0  0  0  0  0  0  0  0  0
    3.5234    0.6170   -2.2371 H   0  0  0  0  0  0  0  0  0  0  0  0
    4.7128   -1.2831    1.5104 H   0  0  0  0  0  0  0  0  0  0  0  0
    3.2348   -1.9447    0.6217 H   0  0  0  0  0  0  0  0  0  0  0  0
    4.7263   -1.4510   -0.2985 H   0  0  0  0  0  0  0  0  0  0  0  0
    3.3905    1.2052    2.1434 H   0  0  0  0  0  0  0  0  0  0  0  0
    0.9331   -0.3768    0.9799 H   0  0  0  0  0  0  0  0  0  0  0  0
   -1.3603    2.3462   -0.2742 H   0  0  0  0  0  0  0  0  0  0  0  0
   -3.3654    3.4573    0.5499 H   0  0  0  0  0  0  0  0  0  0  0  0
   -5.3082    2.2364    1.2656 H   0  0  0  0  0  0  0  0  0  0  0  0
   -5.3076   -0.2215    1.1767 H   0  0  0  0  0  0  0  0  0  0  0  0
  1  2  1  0
  2  3  2  0
  3  4  1  0
  4  5  1  0
  5  6  2  0
  6  7  1  0
  7  8  2  0
  8  9  1  0
  9 10  1  0
 10 11  1  0
 10 12  1  1
 10 13  1  0
 13 14  1  0
 13 15  1  0
 13 16  1  0
  9 17  2  0
  4 18  1  0
 18 19  2  0
 19 20  1  0
 20 21  2  0
 21 22  1  0
 22 23  2  0
 23  2  1  0
 17  5  1  0
 23 18  1  0
  1 24  1  0
  1 25  1  0
  1 26  1  0
  6 27  1  0
  8 28  1  0
 11 29  1  0
 11 30  1  0
 11 31  1  0
 12 32  1  0
 17 33  1  0
 19 34  1  0
 20 35  1  0
 21 36  1  0
 22 37  1  0
M  END
$$$$
