@<TRIPOS>MOLECULE
*****
 37 39 0 0 0
SMALL
GASTEIGER

@<TRIPOS>ATOM
      1 C          -3.9518   -2.8134    0.5529 C.3     1  UNL1       -0.0200
      2 C          -3.0321   -1.6683    0.2346 C.ar    1  UNL1        0.0681
      3 N          -1.7838   -1.7306   -0.2558 N.ar    1  UNL1       -0.1705
      4 N          -1.2609   -0.5268   -0.4168 N.ar    1  UNL1       -0.2304
      5 C           0.0549   -0.2118   -0.9200 C.ar    1  UNL1        0.0844
      6 C           0.2214    0.0438   -2.2686 C.ar    1  UNL1        0.0530
      7 N           1.4595    0.3323   -2.6951 N.ar    1  UNL1       -0.2608
      8 C           2.5395    0.3815   -1.8609 C.ar    1  UNL1        0.0339
      9 C           2.4148    0.1333   -0.5122 C.ar    1  UNL1        0.0123
     10 C           3.4960    0.1559    0.4730 C.3     1  UNL1        0.1843
     11 C           4.1137   -1.2402    0.5890 C.3     1  UNL1       -0.0232
     12 O           2.9464    0.4412    1.7273 O.3     1  UNL1       -0.3757
     13 C           4.5970    1.1387    0.1990 C.3     1  UNL1        0.4222
     14 F           4.1753    2.4301    0.1414 F       1  UNL1       -0.1673
     15 F           5.3510    0.7402   -0.8846 F       1  UNL1       -0.1673
     16 F           5.4633    1.0482    1.3020 F       1  UNL1       -0.1673
     17 C           1.1322   -0.1658   -0.0693 C.ar    1  UNL1       -0.0271
     18 C          -2.1793    0.3741   -0.0252 C.ar    1  UNL1        0.0749
     19 C          -2.2001    1.7492    0.0326 C.ar    1  UNL1       -0.0356
     20 C          -3.3254    2.3953    0.4960 C.ar    1  UNL1       -0.0597
     21 C          -4.4507    1.6833    0.9103 C.ar    1  UNL1       -0.0610
     22 C          -4.4336    0.3017    0.8538 C.ar    1  UNL1       -0.0508
     23 C          -3.3089   -0.3275    0.3913 C.ar    1  UNL1        0.0231
     24 H          -3.8999   -3.0748    1.6203 H       1  UNL1        0.0293
     25 H          -4.9814   -2.4980    0.2911 H       1  UNL1        0.0293
     26 H          -3.7010   -3.6831   -0.0926 H       1  UNL1        0.0293
     27 H          -0.6358    0.0066   -2.9417 H       1  UNL1        0.0851
     28 H           3.5234    0.6170   -2.2371 H       1  UNL1        0.0833
     29 H           4.7128   -1.2831    1.5104 H       1  UNL1        0.0263
     30 H           3.2348   -1.9447    0.6217 H       1  UNL1        0.0263
     31 H           4.7263   -1.4510   -0.2985 H       1  UNL1        0.0263
     32 H           3.3905    1.2052    2.1434 H       1  UNL1        0.2110
     33 H           0.9331   -0.3768    0.9799 H       1  UNL1        0.0643
     34 H          -1.3603    2.3462   -0.2742 H       1  UNL1        0.0639
     35 H          -3.3654    3.4573    0.5499 H       1  UNL1        0.0618
     36 H          -5.3082    2.2364    1.2656 H       1  UNL1        0.0618
     37 H          -5.3076   -0.2215    1.1767 H       1  UNL1        0.0625
@<TRIPOS>BOND
     1     1     2    1
     2     2     3   ar
     3     3     4   ar
     4     4     5    1
     5     5     6   ar
     6     6     7   ar
     7     7     8   ar
     8     8     9   ar
     9     9    10    1
    10    10    11    1
    11    10    12    1
    12    10    13    1
    13    13    14    1
    14    13    15    1
    15    13    16    1
    16     9    17   ar
    17     4    18   ar
    18    18    19   ar
    19    19    20   ar
    20    20    21   ar
    21    21    22   ar
    22    22    23   ar
    23    23     2   ar
    24    17     5   ar
    25    23    18   ar
    26     1    24    1
    27     1    25    1
    28     1    26    1
    29     6    27    1
    30     8    28    1
    31    11    29    1
    32    11    30    1
    33    11    31    1
    34    12    32    1
    35    17    33    1
    36    19    34    1
    37    20    35    1
    38    21    36    1
    39    22    37    1
