
     RDKit          3D

 44 47  0  0  0  0  0  0  0  0999 V2000
   -0.3746    0.5959    1.6797 O   0  0  0  0  0  0  0  0  0  0  0  0
   -1.1078    0.1836    0.6836 C   0  0  0  0  0  0  0  0  0  0  0  0
   -0.4162   -0.2401   -0.4636 N   0  0  0  0  0  0  0  0  0  0  0  0
    1.0266   -0.1840   -0.4431 C   0  0  0  0  0  0  0  0  0  0  0  0
    1.6262    0.9798   -0.8776 C   0  0  0  0  0  0  0  0  0  0  0  0
    3.0001    1.0774   -0.8750 C   0  0  0  0  0  0  0  0  0  0  0  0
    3.8137    0.0467   -0.4508 C   0  0  0  0  0  0  0  0  0  0  0  0
    5.2670    0.2127   -0.4730 C   0  0  0  0  0  0  0  0  0  0  0  0
    5.8805    0.9990   -1.4332 C   0  0  0  0  0  0  0  0  0  0  0  0
    7.2512    1.1672   -1.4693 C   0  0  0  0  0  0  0  0  0  0  0  0
    8.0658    0.5552   -0.5456 C   0  0  0  0  0  0  0  0  0  0  0  0
    9.8140    0.7502   -0.5659 Cl  0  0  0  0  0  0  0  0  0  0  0  0
    7.4696   -0.2306    0.4162 C   0  0  0  0  0  0  0  0  0  0  0  0
    8.4872   -1.0223    1.6065 Cl  0  0  0  0  0  0  0  0  0  0  0  0
    6.0941   -0.3962    0.4485 C   0  0  0  0  0  0  0  0  0  0  0  0
    3.2030   -1.1094   -0.0196 C   0  0  0  0  0  0  0  0  0  0  0  0
    1.8080   -1.2145   -0.0199 C   0  0  0  0  0  0  0  0  0  0  0  0
   -2.5661    0.1839    0.8090 C   0  0  0  0  0  0  0  0  0  0  0  0
   -3.3855   -0.2119   -0.1379 C   0  0  0  0  0  0  0  0  0  0  0  0
   -2.8532   -0.6603   -1.3351 O   0  0  0  0  0  0  0  0  0  0  0  0
   -4.8405   -0.2233   -0.0433 C   0  0  0  0  0  0  0  0  0  0  0  0
   -5.5708   -0.6767   -1.1440 C   0  0  0  0  0  0  0  0  0  0  0  0
   -6.9503   -0.7163   -1.1267 C   0  0  0  0  0  0  0  0  0  0  0  0
   -7.6264   -0.2965    0.0087 C   0  0  0  0  0  0  0  0  0  0  0  0
   -6.9207    0.1537    1.1030 C   0  0  0  0  0  0  0  0  0  0  0  0
   -5.5571    0.1714    1.0311 C   0  0  0  0  0  0  0  0  0  0  0  0
   -4.6977    0.7456    2.4292 S   0  0  0  0  0  6  0  0  0  0  0  0
   -5.0873    2.1665    2.7289 O   0  0  0  0  0  0  0  0  0  0  0  0
   -4.9988   -0.1071    3.6516 O   0  0  0  0  0  0  0  0  0  0  0  0
   -3.0388    0.6603    2.0743 N   0  0  0  0  0  0  0  0  0  0  0  0
   -0.8268   -0.5866   -1.3182 H   0  0  0  0  0  0  0  0  0  0  0  0
    1.0023    1.7942   -1.2121 H   0  0  0  0  0  0  0  0  0  0  0  0
    3.4356    2.0097   -1.2247 H   0  0  0  0  0  0  0  0  0  0  0  0
    5.2266    1.4778   -2.1581 H   0  0  0  0  0  0  0  0  0  0  0  0
    7.6977    1.7813   -2.2233 H   0  0  0  0  0  0  0  0  0  0  0  0
    5.6170   -1.0142    1.2039 H   0  0  0  0  0  0  0  0  0  0  0  0
    3.7993   -1.9457    0.3231 H   0  0  0  0  0  0  0  0  0  0  0  0
    1.3344   -2.1196    0.3175 H   0  0  0  0  0  0  0  0  0  0  0  0
   -3.0195   -1.5658   -1.7367 H   0  0  0  0  0  0  0  0  0  0  0  0
   -5.0865   -1.0103   -2.0422 H   0  0  0  0  0  0  0  0  0  0  0  0
   -7.4844   -1.0762   -2.0045 H   0  0  0  0  0  0  0  0  0  0  0  0
   -8.6950   -0.3286    0.0186 H   0  0  0  0  0  0  0  0  0  0  0  0
   -7.4463    0.4864    2.0020 H   0  0  0  0  0  0  0  0  0  0  0  0
   -2.3694    0.9664    2.8081 H   0  0  0  0  0  0  0  0  0  0  0  0
  1  2  2  0
  2  3  1  0
  3  4  1  0
  4  5  2  0
  5  6  1  0
  6  7  2  0
  7  8  1  0
  8  9  2  0
  9 10  1  0
 10 11  2  0
 11 12  1  0
 11 13  1  0
 13 14  1  0
 13 15  2  0
  7 16  1  0
 16 17  2  0
  2 18  1  0
 18 19  2  0
 19 20  1  0
 19 21  1  0
 21 22  2  0
 22 23  1  0
 23 24  2  0
 24 25  1  0
 25 26  2  0
 26 27  1  0
 27 28  2  0
 27 29  2  0
 27 30  1  0
 17  4  1  0
 30 18  1  0
 15  8  1  0
 26 21  1  0
  3 31  1  0
  5 32  1  0
  6 33  1  0
  9 34  1  0
 10 35  1  0
 15 36  1  0
 16 37  1  0
 17 38  1  0
 20 39  1  0
 22 40  1  0
 23 41  1  0
 24 42  1  0
 25 43  1  0
 30 44  1  0
M  END
$$$$
