@<TRIPOS>MOLECULE
*****
 44 47 0 0 0
SMALL
GASTEIGER

@<TRIPOS>ATOM
      1 O          -0.3746    0.5959    1.6797 O.2     1  UNL1       -0.2683
      2 C          -1.1078    0.1836    0.6836 C.2     1  UNL1        0.2672
      3 N          -0.4162   -0.2401   -0.4636 N.am    1  UNL1       -0.2803
      4 C           1.0266   -0.1840   -0.4431 C.ar    1  UNL1        0.0337
      5 C           1.6262    0.9798   -0.8776 C.ar    1  UNL1       -0.0399
      6 C           3.0001    1.0774   -0.8750 C.ar    1  UNL1       -0.0523
      7 C           3.8137    0.0467   -0.4508 C.ar    1  UNL1       -0.0177
      8 C           5.2670    0.2127   -0.4730 C.ar    1  UNL1       -0.0164
      9 C           5.8805    0.9990   -1.4332 C.ar    1  UNL1       -0.0526
     10 C           7.2512    1.1672   -1.4693 C.ar    1  UNL1       -0.0414
     11 C           8.0658    0.5552   -0.5456 C.ar    1  UNL1        0.0593
     12 CL          9.8140    0.7502   -0.5659 Cl      1  UNL1       -0.0820
     13 C           7.4696   -0.2306    0.4162 C.ar    1  UNL1        0.0598
     14 CL          8.4872   -1.0223    1.6065 Cl      1  UNL1       -0.0820
     15 C           6.0941   -0.3962    0.4485 C.ar    1  UNL1       -0.0342
     16 C           3.2030   -1.1094   -0.0196 C.ar    1  UNL1       -0.0523
     17 C           1.8080   -1.2145   -0.0199 C.ar    1  UNL1       -0.0399
     18 C          -2.5661    0.1839    0.8090 C.2     1  UNL1        0.1520
     19 C          -3.3855   -0.2119   -0.1379 C.2     1  UNL1        0.1532
     20 O          -2.8532   -0.6603   -1.3351 O.2     1  UNL1       -0.5040
     21 C          -4.8405   -0.2233   -0.0433 C.ar    1  UNL1        0.0451
     22 C          -5.5708   -0.6767   -1.1440 C.ar    1  UNL1       -0.0491
     23 C          -6.9503   -0.7163   -1.1267 C.ar    1  UNL1       -0.0610
     24 C          -7.6264   -0.2965    0.0087 C.ar    1  UNL1       -0.0599
     25 C          -6.9207    0.1537    1.1030 C.ar    1  UNL1       -0.0344
     26 C          -5.5571    0.1714    1.0311 C.ar    1  UNL1        0.1191
     27 S          -4.6977    0.7456    2.4292 S.O2    1  UNL1        0.0733
     28 O          -5.0873    2.1665    2.7289 O.2     1  UNL1       -0.1499
     29 O          -4.9988   -0.1071    3.6516 O.2     1  UNL1       -0.1499
     30 N          -3.0388    0.6603    2.0743 N.pl3   1  UNL1       -0.2079
     31 H          -0.8268   -0.5866   -1.3182 H       1  UNL1        0.1552
     32 H           1.0023    1.7942   -1.2121 H       1  UNL1        0.0636
     33 H           3.4356    2.0097   -1.2247 H       1  UNL1        0.0624
     34 H           5.2266    1.4778   -2.1581 H       1  UNL1        0.0624
     35 H           7.6977    1.7813   -2.2233 H       1  UNL1        0.0633
     36 H           5.6170   -1.0142    1.2039 H       1  UNL1        0.0639
     37 H           3.7993   -1.9457    0.3231 H       1  UNL1        0.0624
     38 H           1.3344   -2.1196    0.3175 H       1  UNL1        0.0636
     39 H          -3.0195   -1.5658   -1.7367 H       1  UNL1        0.2923
     40 H          -5.0865   -1.0103   -2.0422 H       1  UNL1        0.0625
     41 H          -7.4844   -1.0762   -2.0045 H       1  UNL1        0.0618
     42 H          -8.6950   -0.3286    0.0186 H       1  UNL1        0.0618
     43 H          -7.4463    0.4864    2.0020 H       1  UNL1        0.0637
     44 H          -2.3694    0.9664    2.8081 H       1  UNL1        0.1740
@<TRIPOS>BOND
     1     1     2    2
     2     2     3   am
     3     3     4    1
     4     4     5   ar
     5     5     6   ar
     6     6     7   ar
     7     7     8    1
     8     8     9   ar
     9     9    10   ar
    10    10    11   ar
    11    11    12    1
    12    11    13   ar
    13    13    14    1
    14    13    15   ar
    15     7    16   ar
    16    16    17   ar
    17     2    18    1
    18    18    19    2
    19    19    20    1
    20    19    21    1
    21    21    22   ar
    22    22    23   ar
    23    23    24   ar
    24    24    25   ar
    25    25    26   ar
    26    26    27    1
    27    27    28    2
    28    27    29    2
    29    27    30    1
    30    17     4   ar
    31    30    18    1
    32    15     8   ar
    33    26    21   ar
    34     3    31    1
    35     5    32    1
    36     6    33    1
    37     9    34    1
    38    10    35    1
    39    15    36    1
    40    16    37    1
    41    17    38    1
    42    20    39    1
    43    22    40    1
    44    23    41    1
    45    24    42    1
    46    25    43    1
    47    30    44    1
