@<TRIPOS>MOLECULE
*****
 38 39 0 0 0
SMALL
GASTEIGER

@<TRIPOS>ATOM
      1 C          -1.1052   -0.6427    0.4179 C.3     1  UNL1        0.1997
      2 C          -2.0799   -0.6206   -0.7528 C.3     1  UNL1        0.0201
      3 C          -3.2860    0.1492   -0.2778 C.ar    1  UNL1       -0.0433
      4 C          -3.3667    1.5313   -0.4429 C.ar    1  UNL1       -0.0584
      5 C          -4.4646    2.2234   -0.0093 C.ar    1  UNL1       -0.0615
      6 C          -5.5190    1.6017    0.5975 C.ar    1  UNL1       -0.0617
      7 C          -5.4657    0.2294    0.7746 C.ar    1  UNL1       -0.0615
      8 C          -4.3580   -0.4641    0.3364 C.ar    1  UNL1       -0.0584
      9 O           0.0651   -1.3229    0.1301 O.3     1  UNL1       -0.4773
     10 C           1.2820   -0.7188    0.1175 C.ar    1  UNL1        0.1217
     11 C           2.2524   -1.6753   -0.2068 C.ar    1  UNL1       -0.0196
     12 C           3.6136   -1.3563   -0.2988 C.ar    1  UNL1       -0.0551
     13 C           4.0275   -0.0551   -0.0638 C.ar    1  UNL1       -0.0474
     14 C           5.4545    0.3489   -0.1451 C.3     1  UNL1       -0.0305
     15 C           5.7660    0.7902   -1.5740 C.3     1  UNL1       -0.0613
     16 C           3.0781    0.8849    0.2544 C.ar    1  UNL1       -0.0551
     17 C           1.7445    0.5510    0.3399 C.ar    1  UNL1       -0.0196
     18 C          -1.7810   -1.2788    1.6028 C.2     1  UNL1        0.3462
     19 O          -2.5550   -1.7150    2.6705 O.3     1  UNL1       -0.4780
     20 O          -0.8530   -2.1243    1.6780 O.2     1  UNL1       -0.2468
     21 H          -0.8781    0.4187    0.6225 H       1  UNL1        0.0855
     22 H          -2.3387   -1.6454   -1.0319 H       1  UNL1        0.0355
     23 H          -1.6568   -0.0533   -1.5919 H       1  UNL1        0.0355
     24 H          -2.5463    2.0538   -0.9208 H       1  UNL1        0.0620
     25 H          -4.5483    3.3094   -0.1292 H       1  UNL1        0.0618
     26 H          -6.3853    2.1414    0.9406 H       1  UNL1        0.0618
     27 H          -6.2797   -0.2910    1.2490 H       1  UNL1        0.0618
     28 H          -4.3119   -1.5161    0.4695 H       1  UNL1        0.0620
     29 H           2.1226   -2.7357   -0.4230 H       1  UNL1        0.0654
     30 H           4.4044   -2.0319   -0.5404 H       1  UNL1        0.0621
     31 H           6.0686   -0.5371    0.0741 H       1  UNL1        0.0311
     32 H           5.5921    1.1968    0.5521 H       1  UNL1        0.0311
     33 H           5.0746    0.1917   -2.2335 H       1  UNL1        0.0233
     34 H           6.7942    0.5292   -1.8259 H       1  UNL1        0.0233
     35 H           5.5012    1.8538   -1.6987 H       1  UNL1        0.0233
     36 H           3.2975    1.9336    0.4574 H       1  UNL1        0.0621
     37 H           0.9441    1.2332    0.5840 H       1  UNL1        0.0654
     38 H          -3.3040   -2.3871    2.4655 H       1  UNL1        0.2952
@<TRIPOS>BOND
     1     1     2    1
     2     2     3    1
     3     3     4   ar
     4     4     5   ar
     5     5     6   ar
     6     6     7   ar
     7     7     8   ar
     8     1     9    1
     9     9    10    1
    10    10    11   ar
    11    11    12   ar
    12    12    13   ar
    13    13    14    1
    14    14    15    1
    15    13    16   ar
    16    16    17   ar
    17     1    18    1
    18    18    19    1
    19    18    20    2
    20     8     3   ar
    21    17    10   ar
    22     1    21    1
    23     2    22    1
    24     2    23    1
    25     4    24    1
    26     5    25    1
    27     6    26    1
    28     7    27    1
    29     8    28    1
    30    11    29    1
    31    12    30    1
    32    14    31    1
    33    14    32    1
    34    15    33    1
    35    15    34    1
    36    15    35    1
    37    16    36    1
    38    17    37    1
    39    19    38    1
