@<TRIPOS>MOLECULE
*****
 54 55 0 0 0
SMALL
GASTEIGER

@<TRIPOS>ATOM
      1 C           6.1925    2.1496    0.8361 C.3     1  UNL1       -0.0652
      2 C           5.3895    2.8878   -0.1850 C.3     1  UNL1       -0.0528
      3 C           5.4058    2.2040   -1.5489 C.3     1  UNL1       -0.0188
      4 C           4.8240    0.7996   -1.4186 C.3     1  UNL1        0.0912
      5 O           3.4909    0.8814   -0.9459 O.3     1  UNL1       -0.4763
      6 C           2.7837   -0.2996   -0.7600 C.ar    1  UNL1        0.2160
      7 N           3.2598   -1.5355   -0.9931 N.ar    1  UNL1       -0.2129
      8 C           2.5176   -2.6419   -0.7911 C.ar    1  UNL1        0.0755
      9 C           3.0238   -3.9018   -1.0362 C.ar    1  UNL1       -0.0356
     10 C           2.3076   -5.0672   -0.8465 C.ar    1  UNL1       -0.0597
     11 C           0.9968   -4.9203   -0.3779 C.ar    1  UNL1       -0.0611
     12 C           0.4553   -3.6719   -0.1209 C.ar    1  UNL1       -0.0518
     13 C           1.2206   -2.5465   -0.3300 C.ar    1  UNL1        0.0127
     14 C           0.6398   -1.3250   -0.0607 C.ar    1  UNL1        0.0509
     15 C           1.4863   -0.2396   -0.3007 C.ar    1  UNL1        0.0127
     16 C          -0.7168   -1.1225    0.4296 C.2     1  UNL1        0.2449
     17 O          -0.6013   -0.4940    1.5123 O.2     1  UNL1       -0.2702
     18 N          -1.9432   -1.5105   -0.1213 N.am    1  UNL1       -0.3101
     19 C          -3.2255   -1.2356    0.4867 C.3     1  UNL1        0.0247
     20 C          -3.3983    0.2498    0.6061 C.3     1  UNL1        0.0145
     21 N          -4.6413    0.6568    1.2013 N.3     1  UNL1       -0.3014
     22 C          -5.8081    0.4014    0.4312 C.3     1  UNL1       -0.0039
     23 C          -5.9160    1.2248   -0.8190 C.3     1  UNL1       -0.0524
     24 C          -4.5779    1.9106    1.8780 C.3     1  UNL1       -0.0039
     25 C          -4.3752    3.0998    0.9678 C.3     1  UNL1       -0.0524
     26 H           6.5026    2.9025    1.5984 H       1  UNL1        0.0230
     27 H           5.5764    1.3455    1.3049 H       1  UNL1        0.0230
     28 H           7.0920    1.7076    0.4040 H       1  UNL1        0.0230
     29 H           4.3241    2.9637    0.1093 H       1  UNL1        0.0264
     30 H           5.8265    3.8943   -0.3595 H       1  UNL1        0.0264
     31 H           4.8617    2.8260   -2.2698 H       1  UNL1        0.0298
     32 H           6.4500    2.1049   -1.9046 H       1  UNL1        0.0298
     33 H           5.4712    0.2578   -0.6940 H       1  UNL1        0.0697
     34 H           4.8853    0.3601   -2.4432 H       1  UNL1        0.0697
     35 H           4.0522   -3.9710   -1.4011 H       1  UNL1        0.0639
     36 H           2.7451   -6.0344   -1.0523 H       1  UNL1        0.0618
     37 H           0.3832   -5.7934   -0.2088 H       1  UNL1        0.0618
     38 H          -0.5593   -3.6090    0.2392 H       1  UNL1        0.0624
     39 H           1.0699    0.7562   -0.1015 H       1  UNL1        0.0678
     40 H          -1.8525   -2.0169   -1.0122 H       1  UNL1        0.1490
     41 H          -3.3298   -1.7277    1.4804 H       1  UNL1        0.0475
     42 H          -4.0239   -1.6466   -0.1329 H       1  UNL1        0.0475
     43 H          -3.2246    0.7116   -0.3894 H       1  UNL1        0.0442
     44 H          -2.5948    0.6541    1.2544 H       1  UNL1        0.0442
     45 H          -6.6941    0.4984    1.0904 H       1  UNL1        0.0424
     46 H          -5.7873   -0.6704    0.1369 H       1  UNL1        0.0424
     47 H          -6.7516    1.9664   -0.6954 H       1  UNL1        0.0242
     48 H          -4.9834    1.6942   -1.1481 H       1  UNL1        0.0242
     49 H          -6.2767    0.5804   -1.6696 H       1  UNL1        0.0242
     50 H          -3.6639    1.8660    2.5322 H       1  UNL1        0.0424
     51 H          -5.4549    2.0756    2.5126 H       1  UNL1        0.0424
     52 H          -3.5180    2.9462    0.2801 H       1  UNL1        0.0242
     53 H          -5.2806    3.4572    0.4727 H       1  UNL1        0.0242
     54 H          -4.0355    3.9470    1.6340 H       1  UNL1        0.0242
@<TRIPOS>BOND
     1     1     2    1
     2     2     3    1
     3     3     4    1
     4     4     5    1
     5     5     6    1
     6     6     7   ar
     7     7     8   ar
     8     8     9   ar
     9     9    10   ar
    10    10    11   ar
    11    11    12   ar
    12    12    13   ar
    13    13    14   ar
    14    14    15   ar
    15    14    16    1
    16    16    17    2
    17    16    18   am
    18    18    19    1
    19    19    20    1
    20    20    21    1
    21    21    22    1
    22    22    23    1
    23    21    24    1
    24    24    25    1
    25    15     6   ar
    26    13     8   ar
    27     1    26    1
    28     1    27    1
    29     1    28    1
    30     2    29    1
    31     2    30    1
    32     3    31    1
    33     3    32    1
    34     4    33    1
    35     4    34    1
    36     9    35    1
    37    10    36    1
    38    11    37    1
    39    12    38    1
    40    15    39    1
    41    18    40    1
    42    19    41    1
    43    19    42    1
    44    20    43    1
    45    20    44    1
    46    22    45    1
    47    22    46    1
    48    23    47    1
    49    23    48    1
    50    23    49    1
    51    24    50    1
    52    24    51    1
    53    25    52    1
    54    25    53    1
    55    25    54    1
