
     RDKit          3D

 54 55  0  0  0  0  0  0  0  0999 V2000
    6.1925    2.1496    0.8361 C   0  0  0  0  0  0  0  0  0  0  0  0
    5.3895    2.8878   -0.1850 C   0  0  0  0  0  0  0  0  0  0  0  0
    5.4058    2.2040   -1.5489 C   0  0  0  0  0  0  0  0  0  0  0  0
    4.8240    0.7996   -1.4186 C   0  0  0  0  0  0  0  0  0  0  0  0
    3.4909    0.8814   -0.9459 O   0  0  0  0  0  0  0  0  0  0  0  0
    2.7837   -0.2996   -0.7600 C   0  0  0  0  0  0  0  0  0  0  0  0
    3.2598   -1.5355   -0.9931 N   0  0  0  0  0  0  0  0  0  0  0  0
    2.5176   -2.6419   -0.7911 C   0  0  0  0  0  0  0  0  0  0  0  0
    3.0238   -3.9018   -1.0362 C   0  0  0  0  0  0  0  0  0  0  0  0
    2.3076   -5.0672   -0.8465 C   0  0  0  0  0  0  0  0  0  0  0  0
    0.9968   -4.9203   -0.3779 C   0  0  0  0  0  0  0  0  0  0  0  0
    0.4553   -3.6719   -0.1209 C   0  0  0  0  0  0  0  0  0  0  0  0
    1.2206   -2.5465   -0.3300 C   0  0  0  0  0  0  0  0  0  0  0  0
    0.6398   -1.3250   -0.0607 C   0  0  0  0  0  0  0  0  0  0  0  0
    1.4863   -0.2396   -0.3007 C   0  0  0  0  0  0  0  0  0  0  0  0
   -0.7168   -1.1225    0.4296 C   0  0  0  0  0  0  0  0  0  0  0  0
   -0.6013   -0.4940    1.5123 O   0  0  0  0  0  0  0  0  0  0  0  0
   -1.9432   -1.5105   -0.1213 N   0  0  0  0  0  0  0  0  0  0  0  0
   -3.2255   -1.2356    0.4867 C   0  0  0  0  0  0  0  0  0  0  0  0
   -3.3983    0.2498    0.6061 C   0  0  0  0  0  0  0  0  0  0  0  0
   -4.6413    0.6568    1.2013 N   0  0  0  0  0  0  0  0  0  0  0  0
   -5.8081    0.4014    0.4312 C   0  0  0  0  0  0  0  0  0  0  0  0
   -5.9160    1.2248   -0.8190 C   0  0  0  0  0  0  0  0  0  0  0  0
   -4.5779    1.9106    1.8780 C   0  0  0  0  0  0  0  0  0  0  0  0
   -4.3752    3.0998    0.9678 C   0  0  0  0  0  0  0  0  0  0  0  0
    6.5026    2.9025    1.5984 H   0  0  0  0  0  0  0  0  0  0  0  0
    5.5764    1.3455    1.3049 H   0  0  0  0  0  0  0  0  0  0  0  0
    7.0920    1.7076    0.4040 H   0  0  0  0  0  0  0  0  0  0  0  0
    4.3241    2.9637    0.1093 H   0  0  0  0  0  0  0  0  0  0  0  0
    5.8265    3.8943   -0.3595 H   0  0  0  0  0  0  0  0  0  0  0  0
    4.8617    2.8260   -2.2698 H   0  0  0  0  0  0  0  0  0  0  0  0
    6.4500    2.1049   -1.9046 H   0  0  0  0  0  0  0  0  0  0  0  0
    5.4712    0.2578   -0.6940 H   0  0  0  0  0  0  0  0  0  0  0  0
    4.8853    0.3601   -2.4432 H   0  0  0  0  0  0  0  0  0  0  0  0
    4.0522   -3.9710   -1.4011 H   0  0  0  0  0  0  0  0  0  0  0  0
    2.7451   -6.0344   -1.0523 H   0  0  0  0  0  0  0  0  0  0  0  0
    0.3832   -5.7934   -0.2088 H   0  0  0  0  0  0  0  0  0  0  0  0
   -0.5593   -3.6090    0.2392 H   0  0  0  0  0  0  0  0  0  0  0  0
    1.0699    0.7562   -0.1015 H   0  0  0  0  0  0  0  0  0  0  0  0
   -1.8525   -2.0169   -1.0122 H   0  0  0  0  0  0  0  0  0  0  0  0
   -3.3298   -1.7277    1.4804 H   0  0  0  0  0  0  0  0  0  0  0  0
   -4.0239   -1.6466   -0.1329 H   0  0  0  0  0  0  0  0  0  0  0  0
   -3.2246    0.7116   -0.3894 H   0  0  0  0  0  0  0  0  0  0  0  0
   -2.5948    0.6541    1.2544 H   0  0  0  0  0  0  0  0  0  0  0  0
   -6.6941    0.4984    1.0904 H   0  0  0  0  0  0  0  0  0  0  0  0
   -5.7873   -0.6704    0.1369 H   0  0  0  0  0  0  0  0  0  0  0  0
   -6.7516    1.9664   -0.6954 H   0  0  0  0  0  0  0  0  0  0  0  0
   -4.9834    1.6942   -1.1481 H   0  0  0  0  0  0  0  0  0  0  0  0
   -6.2767    0.5804   -1.6696 H   0  0  0  0  0  0  0  0  0  0  0  0
   -3.6639    1.8660    2.5322 H   0  0  0  0  0  0  0  0  0  0  0  0
   -5.4549    2.0756    2.5126 H   0  0  0  0  0  0  0  0  0  0  0  0
   -3.5180    2.9462    0.2801 H   0  0  0  0  0  0  0  0  0  0  0  0
   -5.2806    3.4572    0.4727 H   0  0  0  0  0  0  0  0  0  0  0  0
   -4.0355    3.9470    1.6340 H   0  0  0  0  0  0  0  0  0  0  0  0
  1  2  1  0
  2  3  1  0
  3  4  1  0
  4  5  1  0
  5  6  1  0
  6  7  2  0
  7  8  1  0
  8  9  2  0
  9 10  1  0
 10 11  2  0
 11 12  1  0
 12 13  2  0
 13 14  1  0
 14 15  2  0
 14 16  1  0
 16 17  2  0
 16 18  1  0
 18 19  1  0
 19 20  1  0
 20 21  1  0
 21 22  1  0
 22 23  1  0
 21 24  1  0
 24 25  1  0
 15  6  1  0
 13  8  1  0
  1 26  1  0
  1 27  1  0
  1 28  1  0
  2 29  1  0
  2 30  1  0
  3 31  1  0
  3 32  1  0
  4 33  1  0
  4 34  1  0
  9 35  1  0
 10 36  1  0
 11 37  1  0
 12 38  1  0
 15 39  1  0
 18 40  1  0
 19 41  1  0
 19 42  1  0
 20 43  1  0
 20 44  1  0
 22 45  1  0
 22 46  1  0
 23 47  1  0
 23 48  1  0
 23 49  1  0
 24 50  1  0
 24 51  1  0
 25 52  1  0
 25 53  1  0
 25 54  1  0
M  END
$$$$
