@<TRIPOS>MOLECULE
*****
 43 43 0 0 0
SMALL
GASTEIGER

@<TRIPOS>ATOM
      1 C          -1.0312   -4.3765   -0.4771 C.3     1  UNL1        0.0122
      2 C          -0.6896   -3.0892    0.2016 C.2     1  UNL1        0.2104
      3 O          -0.4820   -3.0851    1.4505 O.2     1  UNL1       -0.2761
      4 N          -0.5831   -1.8575   -0.4790 N.am    1  UNL1       -0.3053
      5 C          -0.2520   -0.6006    0.1689 C.3     1  UNL1        0.1030
      6 C          -1.4324    0.3256   -0.0346 C.3     1  UNL1        0.1588
      7 N          -2.6273   -0.2233    0.5646 N.pl3   1  UNL1       -0.1040
      8 C          -3.7358    0.3962    0.4992 C.cat   1  UNL1        0.3771
      9 N          -3.9308    1.6415   -0.1379 N.pl3   1  UNL1       -0.2892
     10 N          -4.8791   -0.2061    1.1150 N.pl3   1  UNL1       -0.2892
     11 C          -1.1444    1.6737    0.5274 C.2     1  UNL1        0.0067
     12 C           0.0291    2.2025    0.2229 C.2     1  UNL1        0.2042
     13 C           0.4220    3.5131    0.7134 C.2     1  UNL1        0.3717
     14 O           1.5119    4.0502    0.4545 O.2     1  UNL1       -0.2417
     15 O          -0.4681    4.2086    1.5176 O.3     1  UNL1       -0.4750
     16 O           0.8574    1.4283   -0.5919 O.2     1  UNL1       -0.4775
     17 C           0.9817    0.0269   -0.4308 C.3     1  UNL1        0.1505
     18 C           2.1938   -0.2278    0.4382 C.3     1  UNL1        0.1217
     19 O           1.9824    0.4032    1.6643 O.3     1  UNL1       -0.3854
     20 C           3.4544    0.3107   -0.1457 C.3     1  UNL1        0.1075
     21 O           3.3855    1.6835   -0.3484 O.3     1  UNL1       -0.3868
     22 C           3.8452   -0.3557   -1.4419 C.3     1  UNL1        0.0727
     23 O           3.9316   -1.7324   -1.3066 O.3     1  UNL1       -0.3924
     24 H          -1.3851   -4.1716   -1.4963 H       1  UNL1        0.0322
     25 H          -1.8363   -4.8369    0.1330 H       1  UNL1        0.0322
     26 H          -0.1549   -5.0438   -0.4413 H       1  UNL1        0.0322
     27 H          -0.7520   -1.8483   -1.5083 H       1  UNL1        0.1492
     28 H          -0.0933   -0.7056    1.2394 H       1  UNL1        0.0575
     29 H          -1.6072    0.3974   -1.1214 H       1  UNL1        0.0796
     30 H          -3.7791    1.8119   -1.1519 H       1  UNL1        0.2546
     31 H          -4.2517    2.4773    0.4209 H       1  UNL1        0.2546
     32 H          -4.8975   -0.2363    2.1574 H       1  UNL1        0.2546
     33 H          -5.6516   -0.5935    0.5467 H       1  UNL1        0.2546
     34 H          -1.8607    2.2009    1.1577 H       1  UNL1        0.0647
     35 H          -0.2435    4.9791    2.1034 H       1  UNL1        0.2955
     36 H           1.1006   -0.3983   -1.4456 H       1  UNL1        0.0780
     37 H           2.3349   -1.3003    0.6520 H       1  UNL1        0.0658
     38 H           2.2748    1.3426    1.5414 H       1  UNL1        0.2101
     39 H           4.2735    0.1129    0.5760 H       1  UNL1        0.0643
     40 H           3.2811    1.8538   -1.3135 H       1  UNL1        0.2100
     41 H           3.2156   -0.0390   -2.2953 H       1  UNL1        0.0584
     42 H           4.8784    0.0106   -1.6829 H       1  UNL1        0.0584
     43 H           3.8149   -2.1226   -2.2156 H       1  UNL1        0.2095
@<TRIPOS>BOND
     1     1     2    1
     2     2     3    2
     3     2     4   am
     4     4     5    1
     5     5     6    1
     6     6     7    1
     7     7     8    2
     8     8     9    1
     9     8    10    1
    10     6    11    1
    11    11    12    2
    12    12    13    1
    13    13    14    2
    14    13    15    1
    15    12    16    1
    16    16    17    1
    17    17    18    1
    18    18    19    1
    19    18    20    1
    20    20    21    1
    21    20    22    1
    22    22    23    1
    23    17     5    1
    24     1    24    1
    25     1    25    1
    26     1    26    1
    27     4    27    1
    28     5    28    1
    29     6    29    1
    30     9    30    1
    31     9    31    1
    32    10    32    1
    33    10    33    1
    34    11    34    1
    35    15    35    1
    36    17    36    1
    37    18    37    1
    38    19    38    1
    39    20    39    1
    40    21    40    1
    41    22    41    1
    42    22    42    1
    43    23    43    1
