
     RDKit          3D

 43 43  0  0  0  0  0  0  0  0999 V2000
   -1.0312   -4.3765   -0.4771 C   0  0  0  0  0  0  0  0  0  0  0  0
   -0.6896   -3.0892    0.2016 C   0  0  0  0  0  0  0  0  0  0  0  0
   -0.4820   -3.0851    1.4505 O   0  0  0  0  0  0  0  0  0  0  0  0
   -0.5831   -1.8575   -0.4790 N   0  0  0  0  0  0  0  0  0  0  0  0
   -0.2520   -0.6006    0.1689 C   0  0  2  0  0  0  0  0  0  0  0  0
   -1.4324    0.3256   -0.0346 C   0  0  1  0  0  0  0  0  0  0  0  0
   -2.6273   -0.2233    0.5646 N   0  0  0  0  0  0  0  0  0  0  0  0
   -3.7358    0.3962    0.4992 C   0  0  0  0  0  0  0  0  0  0  0  0
   -3.9308    1.6415   -0.1379 N   0  0  0  0  0  0  0  0  0  0  0  0
   -4.8791   -0.2061    1.1150 N   0  0  0  0  0  0  0  0  0  0  0  0
   -1.1444    1.6737    0.5274 C   0  0  0  0  0  0  0  0  0  0  0  0
    0.0291    2.2025    0.2229 C   0  0  0  0  0  0  0  0  0  0  0  0
    0.4220    3.5131    0.7134 C   0  0  0  0  0  0  0  0  0  0  0  0
    1.5119    4.0502    0.4545 O   0  0  0  0  0  0  0  0  0  0  0  0
   -0.4681    4.2086    1.5176 O   0  0  0  0  0  0  0  0  0  0  0  0
    0.8574    1.4283   -0.5919 O   0  0  0  0  0  0  0  0  0  0  0  0
    0.9817    0.0269   -0.4308 C   0  0  1  0  0  0  0  0  0  0  0  0
    2.1938   -0.2278    0.4382 C   0  0  2  0  0  0  0  0  0  0  0  0
    1.9824    0.4032    1.6643 O   0  0  0  0  0  0  0  0  0  0  0  0
    3.4544    0.3107   -0.1457 C   0  0  2  0  0  0  0  0  0  0  0  0
    3.3855    1.6835   -0.3484 O   0  0  0  0  0  0  0  0  0  0  0  0
    3.8452   -0.3557   -1.4419 C   0  0  0  0  0  0  0  0  0  0  0  0
    3.9316   -1.7324   -1.3066 O   0  0  0  0  0  0  0  0  0  0  0  0
   -1.3851   -4.1716   -1.4963 H   0  0  0  0  0  0  0  0  0  0  0  0
   -1.8363   -4.8369    0.1330 H   0  0  0  0  0  0  0  0  0  0  0  0
   -0.1549   -5.0438   -0.4413 H   0  0  0  0  0  0  0  0  0  0  0  0
   -0.7520   -1.8483   -1.5083 H   0  0  0  0  0  0  0  0  0  0  0  0
   -0.0933   -0.7056    1.2394 H   0  0  0  0  0  0  0  0  0  0  0  0
   -1.6072    0.3974   -1.1214 H   0  0  0  0  0  0  0  0  0  0  0  0
   -3.7791    1.8119   -1.1519 H   0  0  0  0  0  0  0  0  0  0  0  0
   -4.2517    2.4773    0.4209 H   0  0  0  0  0  0  0  0  0  0  0  0
   -4.8975   -0.2363    2.1574 H   0  0  0  0  0  0  0  0  0  0  0  0
   -5.6516   -0.5935    0.5467 H   0  0  0  0  0  0  0  0  0  0  0  0
   -1.8607    2.2009    1.1577 H   0  0  0  0  0  0  0  0  0  0  0  0
   -0.2435    4.9791    2.1034 H   0  0  0  0  0  0  0  0  0  0  0  0
    1.1006   -0.3983   -1.4456 H   0  0  0  0  0  0  0  0  0  0  0  0
    2.3349   -1.3003    0.6520 H   0  0  0  0  0  0  0  0  0  0  0  0
    2.2748    1.3426    1.5414 H   0  0  0  0  0  0  0  0  0  0  0  0
    4.2735    0.1129    0.5760 H   0  0  0  0  0  0  0  0  0  0  0  0
    3.2811    1.8538   -1.3135 H   0  0  0  0  0  0  0  0  0  0  0  0
    3.2156   -0.0390   -2.2953 H   0  0  0  0  0  0  0  0  0  0  0  0
    4.8784    0.0106   -1.6829 H   0  0  0  0  0  0  0  0  0  0  0  0
    3.8149   -2.1226   -2.2156 H   0  0  0  0  0  0  0  0  0  0  0  0
  1  2  1  0
  2  3  2  0
  2  4  1  0
  4  5  1  0
  5  6  1  0
  6  7  1  0
  7  8  2  3
  8  9  1  0
  8 10  1  0
  6 11  1  0
 11 12  2  0
 12 13  1  0
 13 14  2  0
 13 15  1  0
 12 16  1  0
 16 17  1  0
 17 18  1  0
 18 19  1  0
 18 20  1  0
 20 21  1  0
 20 22  1  0
 22 23  1  0
 17  5  1  0
  1 24  1  0
  1 25  1  0
  1 26  1  0
  4 27  1  0
  5 28  1  1
  6 29  1  6
  9 30  1  0
  9 31  1  0
 10 32  1  0
 10 33  1  0
 11 34  1  0
 15 35  1  0
 17 36  1  6
 18 37  1  1
 19 38  1  0
 20 39  1  1
 21 40  1  0
 22 41  1  0
 22 42  1  0
 23 43  1  0
M  END
$$$$
