
     RDKit          3D

 38 40  0  0  0  0  0  0  0  0999 V2000
   -2.0083   -0.8762   -0.3192 C   0  0  1  0  0  0  0  0  0  0  0  0
   -2.5042   -1.9651   -1.2172 C   0  0  0  0  0  0  0  0  0  0  0  0
   -3.5090   -2.6536   -0.5303 O   0  0  0  0  0  0  0  0  0  0  0  0
   -0.9941   -0.1162   -0.9052 O   0  0  0  0  0  0  0  0  0  0  0  0
   -0.5905    0.7775    0.0775 C   0  0  2  0  0  0  0  0  0  0  0  0
    0.8125    1.2661   -0.0974 C   0  0  0  0  0  0  0  0  0  0  0  0
    1.5722    0.1075    0.4901 C   0  0  0  0  0  0  0  0  0  0  0  0
    0.7622   -0.5312    1.2653 N   0  0  0  0  0  0  0  0  0  0  0  0
   -0.4831    0.0452    1.2915 O   0  0  0  0  0  0  0  0  0  0  0  0
    2.9574   -0.2211    0.2271 C   0  0  0  0  0  0  0  0  0  0  0  0
    3.4822   -1.3314    0.8647 C   0  0  0  0  0  0  0  0  0  0  0  0
    4.8029   -1.6727    0.6349 C   0  0  0  0  0  0  0  0  0  0  0  0
    5.5675   -0.8971   -0.2260 C   0  0  0  0  0  0  0  0  0  0  0  0
    5.0237    0.2197   -0.8615 C   0  0  0  0  0  0  0  0  0  0  0  0
    3.7215    0.5336   -0.6180 C   0  0  0  0  0  0  0  0  0  0  0  0
   -1.6332    1.8344    0.2088 C   0  0  2  0  0  0  0  0  0  0  0  0
   -1.2051    2.9720    0.8548 O   0  0  0  0  0  0  0  0  0  0  0  0
   -2.7995    1.1683    0.9274 C   0  0  1  0  0  0  0  0  0  0  0  0
   -3.8950    2.0125    1.0162 O   0  0  0  0  0  0  0  0  0  0  0  0
   -3.1587   -0.0588    0.1551 C   0  0  2  0  0  0  0  0  0  0  0  0
   -3.9403   -0.8851    0.9900 O   0  0  0  0  0  0  0  0  0  0  0  0
   -1.5419   -1.3889    0.5651 H   0  0  0  0  0  0  0  0  0  0  0  0
   -3.0127   -1.4763   -2.0841 H   0  0  0  0  0  0  0  0  0  0  0  0
   -1.7037   -2.6552   -1.5506 H   0  0  0  0  0  0  0  0  0  0  0  0
   -3.0732   -3.0041    0.3015 H   0  0  0  0  0  0  0  0  0  0  0  0
    1.1057    1.4773   -1.1412 H   0  0  0  0  0  0  0  0  0  0  0  0
    0.9626    2.1314    0.5805 H   0  0  0  0  0  0  0  0  0  0  0  0
    2.9399   -1.9721    1.5431 H   0  0  0  0  0  0  0  0  0  0  0  0
    5.3362   -2.5157    1.0695 H   0  0  0  0  0  0  0  0  0  0  0  0
    6.5958   -1.1273   -0.4315 H   0  0  0  0  0  0  0  0  0  0  0  0
    5.5792    0.8528   -1.5390 H   0  0  0  0  0  0  0  0  0  0  0  0
    3.2260    1.3856   -1.0732 H   0  0  0  0  0  0  0  0  0  0  0  0
   -2.0281    2.0908   -0.8121 H   0  0  0  0  0  0  0  0  0  0  0  0
   -1.2039    3.7253    0.2120 H   0  0  0  0  0  0  0  0  0  0  0  0
   -2.4014    0.8591    1.9142 H   0  0  0  0  0  0  0  0  0  0  0  0
   -4.1251    2.2564    0.0849 H   0  0  0  0  0  0  0  0  0  0  0  0
   -3.7599    0.2499   -0.7269 H   0  0  0  0  0  0  0  0  0  0  0  0
   -4.8767   -0.6175    1.0266 H   0  0  0  0  0  0  0  0  0  0  0  0
  1  2  1  0
  2  3  1  0
  1  4  1  0
  5  4  1  6
  5  6  1  0
  6  7  1  0
  7  8  2  0
  8  9  1  0
  7 10  1  0
 10 11  2  0
 11 12  1  0
 12 13  2  0
 13 14  1  0
 14 15  2  0
  5 16  1  0
 16 17  1  0
 16 18  1  0
 18 19  1  0
 18 20  1  0
 20 21  1  0
 20  1  1  0
  9  5  1  0
 15 10  1  0
  1 22  1  1
  2 23  1  0
  2 24  1  0
  3 25  1  0
  6 26  1  0
  6 27  1  0
 11 28  1  0
 12 29  1  0
 13 30  1  0
 14 31  1  0
 15 32  1  0
 16 33  1  6
 17 34  1  0
 18 35  1  1
 19 36  1  0
 20 37  1  6
 21 38  1  0
M  END
$$$$
