@<TRIPOS>MOLECULE
*****
 38 40 0 0 0
SMALL
GASTEIGER

@<TRIPOS>ATOM
      1 C          -2.0083   -0.8762   -0.3192 C.3     1  UNL1        0.1143
      2 C          -2.5042   -1.9651   -1.2172 C.3     1  UNL1        0.0731
      3 O          -3.5090   -2.6536   -0.5303 O.3     1  UNL1       -0.3924
      4 O          -0.9941   -0.1162   -0.9052 O.3     1  UNL1       -0.3270
      5 C          -0.5905    0.7775    0.0775 C.3     1  UNL1        0.2730
      6 C           0.8125    1.2661   -0.0974 C.3     1  UNL1        0.0640
      7 C           1.5722    0.1075    0.4901 C.2     1  UNL1        0.0937
      8 N           0.7622   -0.5312    1.2653 N.2     1  UNL1       -0.0853
      9 O          -0.4831    0.0452    1.2915 O.2     1  UNL1       -0.3551
     10 C           2.9574   -0.2211    0.2271 C.ar    1  UNL1       -0.0004
     11 C           3.4822   -1.3314    0.8647 C.ar    1  UNL1       -0.0528
     12 C           4.8029   -1.6727    0.6349 C.ar    1  UNL1       -0.0611
     13 C           5.5675   -0.8971   -0.2260 C.ar    1  UNL1       -0.0617
     14 C           5.0237    0.2197   -0.8615 C.ar    1  UNL1       -0.0611
     15 C           3.7215    0.5336   -0.6180 C.ar    1  UNL1       -0.0528
     16 C          -1.6332    1.8344    0.2088 C.3     1  UNL1        0.1510
     17 O          -1.2051    2.9720    0.8548 O.3     1  UNL1       -0.3825
     18 C          -2.7995    1.1683    0.9274 C.3     1  UNL1        0.1156
     19 O          -3.8950    2.0125    1.0162 O.3     1  UNL1       -0.3863
     20 C          -3.1587   -0.0588    0.1551 C.3     1  UNL1        0.1120
     21 O          -3.9403   -0.8851    0.9900 O.3     1  UNL1       -0.3865
     22 H          -1.5419   -1.3889    0.5651 H       1  UNL1        0.0647
     23 H          -3.0127   -1.4763   -2.0841 H       1  UNL1        0.0584
     24 H          -1.7037   -2.6552   -1.5506 H       1  UNL1        0.0584
     25 H          -3.0732   -3.0041    0.3015 H       1  UNL1        0.2095
     26 H           1.1057    1.4773   -1.1412 H       1  UNL1        0.0395
     27 H           0.9626    2.1314    0.5805 H       1  UNL1        0.0395
     28 H           2.9399   -1.9721    1.5431 H       1  UNL1        0.0624
     29 H           5.3362   -2.5157    1.0695 H       1  UNL1        0.0618
     30 H           6.5958   -1.1273   -0.4315 H       1  UNL1        0.0618
     31 H           5.5792    0.8528   -1.5390 H       1  UNL1        0.0618
     32 H           3.2260    1.3856   -1.0732 H       1  UNL1        0.0624
     33 H          -2.0281    2.0908   -0.8121 H       1  UNL1        0.0687
     34 H          -1.2039    3.7253    0.2120 H       1  UNL1        0.2102
     35 H          -2.4014    0.8591    1.9142 H       1  UNL1        0.0648
     36 H          -4.1251    2.2564    0.0849 H       1  UNL1        0.2100
     37 H          -3.7599    0.2499   -0.7269 H       1  UNL1        0.0647
     38 H          -4.8767   -0.6175    1.0266 H       1  UNL1        0.2100
@<TRIPOS>BOND
     1     1     2    1
     2     2     3    1
     3     1     4    1
     4     5     4    1
     5     5     6    1
     6     6     7    1
     7     7     8    2
     8     8     9    1
     9     7    10    1
    10    10    11   ar
    11    11    12   ar
    12    12    13   ar
    13    13    14   ar
    14    14    15   ar
    15     5    16    1
    16    16    17    1
    17    16    18    1
    18    18    19    1
    19    18    20    1
    20    20    21    1
    21    20     1    1
    22     9     5    1
    23    15    10   ar
    24     1    22    1
    25     2    23    1
    26     2    24    1
    27     3    25    1
    28     6    26    1
    29     6    27    1
    30    11    28    1
    31    12    29    1
    32    13    30    1
    33    14    31    1
    34    15    32    1
    35    16    33    1
    36    17    34    1
    37    18    35    1
    38    19    36    1
    39    20    37    1
    40    21    38    1
