@<TRIPOS>MOLECULE
*****
 43 43 0 0 0
SMALL
GASTEIGER

@<TRIPOS>ATOM
      1 C          -4.1805    1.8667    0.6900 C.3     1  UNL1       -0.0253
      2 C          -4.2481    0.5503   -0.0226 C.3     1  UNL1        0.1068
      3 C          -5.3837    0.6575   -1.0470 C.3     1  UNL1       -0.0253
      4 C          -4.6728   -0.5003    0.9903 C.3     1  UNL1       -0.0253
      5 O          -3.0974    0.2070   -0.7205 O.3     1  UNL1       -0.4447
      6 C          -1.8438    0.0482   -0.1282 C.2     1  UNL1        0.4010
      7 O          -1.7775    0.2301    1.0997 O.2     1  UNL1       -0.2265
      8 N          -0.7085   -0.2989   -0.8694 N.am    1  UNL1       -0.2764
      9 C           0.5936   -0.4447   -0.1333 C.3     1  UNL1        0.0482
     10 C           1.4505    0.6037   -0.7038 C.3     1  UNL1       -0.0075
     11 C           2.8098    0.7959   -0.1790 C.ar    1  UNL1       -0.0456
     12 C           2.9799    1.3514    1.1051 C.ar    1  UNL1       -0.0585
     13 C           4.2131    1.6375    1.6326 C.ar    1  UNL1       -0.0615
     14 C           5.3647    1.3939    0.9259 C.ar    1  UNL1       -0.0617
     15 C           5.2327    0.8521   -0.3319 C.ar    1  UNL1       -0.0615
     16 C           3.9847    0.5695   -0.8505 C.ar    1  UNL1       -0.0585
     17 C           0.9132   -1.8783   -0.2586 C.3     1  UNL1        0.0602
     18 N           2.0912   -2.4160    0.3032 N.am    1  UNL1       -0.1846
     19 O           2.0636   -2.7671    1.6290 O.3     1  UNL1       -0.2926
     20 C           3.2996   -2.6262   -0.3778 C.2     1  UNL1        0.2251
     21 O           3.3777   -2.4074   -1.6193 O.2     1  UNL1       -0.2772
     22 H          -3.8175    1.7848    1.7311 H       1  UNL1        0.0268
     23 H          -3.6585    2.6123    0.0852 H       1  UNL1        0.0268
     24 H          -5.2442    2.2363    0.7818 H       1  UNL1        0.0268
     25 H          -5.2167    1.5929   -1.6283 H       1  UNL1        0.0268
     26 H          -6.3695    0.5874   -0.5847 H       1  UNL1        0.0268
     27 H          -5.2719   -0.1742   -1.7758 H       1  UNL1        0.0268
     28 H          -3.8304   -1.1608    1.2678 H       1  UNL1        0.0268
     29 H          -5.5021   -1.1382    0.5710 H       1  UNL1        0.0268
     30 H          -5.0484   -0.0392    1.9326 H       1  UNL1        0.0268
     31 H          -0.6668   -0.4675   -1.8759 H       1  UNL1        0.1524
     32 H           0.3646   -0.2239    0.9641 H       1  UNL1        0.0519
     33 H           1.5346    0.4932   -1.8388 H       1  UNL1        0.0332
     34 H           0.9267    1.6268   -0.6439 H       1  UNL1        0.0332
     35 H           2.0565    1.5369    1.6490 H       1  UNL1        0.0620
     36 H           4.3208    2.0639    2.6209 H       1  UNL1        0.0618
     37 H           6.3342    1.6268    1.3605 H       1  UNL1        0.0618
     38 H           6.1232    0.6474   -0.9167 H       1  UNL1        0.0618
     39 H           3.8982    0.1625   -1.8587 H       1  UNL1        0.0620
     40 H           0.9089   -2.1298   -1.3928 H       1  UNL1        0.0507
     41 H          -0.0088   -2.4914    0.0532 H       1  UNL1        0.0507
     42 H           1.5026   -3.5924    1.6559 H       1  UNL1        0.2416
     43 H           4.2029   -2.9787    0.1201 H       1  UNL1        0.1274
@<TRIPOS>BOND
     1     1     2    1
     2     2     3    1
     3     2     4    1
     4     2     5    1
     5     5     6    1
     6     6     7    2
     7     6     8   am
     8     8     9    1
     9     9    10    1
    10    10    11    1
    11    11    12   ar
    12    12    13   ar
    13    13    14   ar
    14    14    15   ar
    15    15    16   ar
    16     9    17    1
    17    17    18    1
    18    18    19    1
    19    18    20   am
    20    20    21    2
    21    16    11   ar
    22     1    22    1
    23     1    23    1
    24     1    24    1
    25     3    25    1
    26     3    26    1
    27     3    27    1
    28     4    28    1
    29     4    29    1
    30     4    30    1
    31     8    31    1
    32     9    32    1
    33    10    33    1
    34    10    34    1
    35    12    35    1
    36    13    36    1
    37    14    37    1
    38    15    38    1
    39    16    39    1
    40    17    40    1
    41    17    41    1
    42    19    42    1
    43    20    43    1
