
     RDKit          3D

 43 43  0  0  0  0  0  0  0  0999 V2000
   -4.1805    1.8667    0.6900 C   0  0  0  0  0  0  0  0  0  0  0  0
   -4.2481    0.5503   -0.0226 C   0  0  0  0  0  0  0  0  0  0  0  0
   -5.3837    0.6575   -1.0470 C   0  0  0  0  0  0  0  0  0  0  0  0
   -4.6728   -0.5003    0.9903 C   0  0  0  0  0  0  0  0  0  0  0  0
   -3.0974    0.2070   -0.7205 O   0  0  0  0  0  0  0  0  0  0  0  0
   -1.8438    0.0482   -0.1282 C   0  0  0  0  0  0  0  0  0  0  0  0
   -1.7775    0.2301    1.0997 O   0  0  0  0  0  0  0  0  0  0  0  0
   -0.7085   -0.2989   -0.8694 N   0  0  0  0  0  0  0  0  0  0  0  0
    0.5936   -0.4447   -0.1333 C   0  0  0  0  0  0  0  0  0  0  0  0
    1.4505    0.6037   -0.7038 C   0  0  0  0  0  0  0  0  0  0  0  0
    2.8098    0.7959   -0.1790 C   0  0  0  0  0  0  0  0  0  0  0  0
    2.9799    1.3514    1.1051 C   0  0  0  0  0  0  0  0  0  0  0  0
    4.2131    1.6375    1.6326 C   0  0  0  0  0  0  0  0  0  0  0  0
    5.3647    1.3939    0.9259 C   0  0  0  0  0  0  0  0  0  0  0  0
    5.2327    0.8521   -0.3319 C   0  0  0  0  0  0  0  0  0  0  0  0
    3.9847    0.5695   -0.8505 C   0  0  0  0  0  0  0  0  0  0  0  0
    0.9132   -1.8783   -0.2586 C   0  0  0  0  0  0  0  0  0  0  0  0
    2.0912   -2.4160    0.3032 N   0  0  0  0  0  0  0  0  0  0  0  0
    2.0636   -2.7671    1.6290 O   0  0  0  0  0  0  0  0  0  0  0  0
    3.2996   -2.6262   -0.3778 C   0  0  0  0  0  0  0  0  0  0  0  0
    3.3777   -2.4074   -1.6193 O   0  0  0  0  0  0  0  0  0  0  0  0
   -3.8175    1.7848    1.7311 H   0  0  0  0  0  0  0  0  0  0  0  0
   -3.6585    2.6123    0.0852 H   0  0  0  0  0  0  0  0  0  0  0  0
   -5.2442    2.2363    0.7818 H   0  0  0  0  0  0  0  0  0  0  0  0
   -5.2167    1.5929   -1.6283 H   0  0  0  0  0  0  0  0  0  0  0  0
   -6.3695    0.5874   -0.5847 H   0  0  0  0  0  0  0  0  0  0  0  0
   -5.2719   -0.1742   -1.7758 H   0  0  0  0  0  0  0  0  0  0  0  0
   -3.8304   -1.1608    1.2678 H   0  0  0  0  0  0  0  0  0  0  0  0
   -5.5021   -1.1382    0.5710 H   0  0  0  0  0  0  0  0  0  0  0  0
   -5.0484   -0.0392    1.9326 H   0  0  0  0  0  0  0  0  0  0  0  0
   -0.6668   -0.4675   -1.8759 H   0  0  0  0  0  0  0  0  0  0  0  0
    0.3646   -0.2239    0.9641 H   0  0  0  0  0  0  0  0  0  0  0  0
    1.5346    0.4932   -1.8388 H   0  0  0  0  0  0  0  0  0  0  0  0
    0.9267    1.6268   -0.6439 H   0  0  0  0  0  0  0  0  0  0  0  0
    2.0565    1.5369    1.6490 H   0  0  0  0  0  0  0  0  0  0  0  0
    4.3208    2.0639    2.6209 H   0  0  0  0  0  0  0  0  0  0  0  0
    6.3342    1.6268    1.3605 H   0  0  0  0  0  0  0  0  0  0  0  0
    6.1232    0.6474   -0.9167 H   0  0  0  0  0  0  0  0  0  0  0  0
    3.8982    0.1625   -1.8587 H   0  0  0  0  0  0  0  0  0  0  0  0
    0.9089   -2.1298   -1.3928 H   0  0  0  0  0  0  0  0  0  0  0  0
   -0.0088   -2.4914    0.0532 H   0  0  0  0  0  0  0  0  0  0  0  0
    1.5026   -3.5924    1.6559 H   0  0  0  0  0  0  0  0  0  0  0  0
    4.2029   -2.9787    0.1201 H   0  0  0  0  0  0  0  0  0  0  0  0
  1  2  1  0
  2  3  1  0
  2  4  1  0
  2  5  1  0
  5  6  1  0
  6  7  2  0
  6  8  1  0
  8  9  1  0
  9 10  1  0
 10 11  1  0
 11 12  2  0
 12 13  1  0
 13 14  2  0
 14 15  1  0
 15 16  2  0
  9 17  1  0
 17 18  1  0
 18 19  1  0
 18 20  1  0
 20 21  2  0
 16 11  1  0
  1 22  1  0
  1 23  1  0
  1 24  1  0
  3 25  1  0
  3 26  1  0
  3 27  1  0
  4 28  1  0
  4 29  1  0
  4 30  1  0
  8 31  1  0
  9 32  1  0
 10 33  1  0
 10 34  1  0
 12 35  1  0
 13 36  1  0
 14 37  1  0
 15 38  1  0
 16 39  1  0
 17 40  1  0
 17 41  1  0
 19 42  1  0
 20 43  1  0
M  END
$$$$
