
     RDKit          3D

 71 74  0  0  0  0  0  0  0  0999 V2000
  -11.1410    3.0276    1.2346 C   0  0  0  0  0  0  0  0  0  0  0  0
  -10.6385    1.6396    1.5160 C   0  0  0  0  0  0  0  0  0  0  0  0
  -10.4665    0.8609    0.3290 N   0  0  0  0  0  0  0  0  0  0  0  0
   -9.3776    1.3555   -0.5034 C   0  0  0  0  0  0  0  0  0  0  0  0
   -8.7744    0.2290   -1.3177 C   0  0  0  0  0  0  0  0  0  0  0  0
   -7.9408   -0.6552   -0.3732 C   0  0  0  0  0  0  0  0  0  0  0  0
   -6.7531    0.0248   -0.1600 O   0  0  0  0  0  0  0  0  0  0  0  0
   -5.4836   -0.4284   -0.3800 C   0  0  0  0  0  0  0  0  0  0  0  0
   -5.2083   -1.6853   -0.8510 C   0  0  0  0  0  0  0  0  0  0  0  0
   -3.8792   -2.0421   -1.0386 C   0  0  0  0  0  0  0  0  0  0  0  0
   -2.8411   -1.1965   -0.7746 C   0  0  0  0  0  0  0  0  0  0  0  0
   -1.4688   -1.5959   -0.9807 C   0  0  0  0  0  0  0  0  0  0  0  0
   -1.1957   -2.7702   -1.4049 O   0  0  0  0  0  0  0  0  0  0  0  0
   -0.3613   -0.7448   -0.7361 N   0  0  0  0  0  0  0  0  0  0  0  0
    1.0026   -1.0961   -0.9219 C   0  0  0  0  0  0  0  0  0  0  0  0
    1.7609   -1.6405    0.1073 C   0  0  0  0  0  0  0  0  0  0  0  0
    3.0844   -1.9705   -0.0998 C   0  0  0  0  0  0  0  0  0  0  0  0
    3.7172   -1.7857   -1.3073 C   0  0  0  0  0  0  0  0  0  0  0  0
    5.0882   -2.1280   -1.4932 N   0  0  0  0  0  0  0  0  0  0  0  0
    6.1377   -1.2007   -1.2758 C   0  0  0  0  0  0  0  0  0  0  0  0
    5.8183   -0.0410   -0.9097 O   0  0  0  0  0  0  0  0  0  0  0  0
    7.4999   -1.4909   -1.4416 N   0  0  0  0  0  0  0  0  0  0  0  0
    8.5032   -0.5045   -1.2123 C   0  0  0  0  0  0  0  0  0  0  0  0
    9.1262   -0.2530   -0.0080 C   0  0  0  0  0  0  0  0  0  0  0  0
   10.0196    0.7747   -0.2351 C   0  0  0  0  0  0  0  0  0  0  0  0
   10.9173    1.3761    0.8001 C   0  0  0  0  0  0  0  0  0  0  0  0
   10.7285    0.7334    2.1395 C   0  0  0  0  0  0  0  0  0  0  0  0
   12.3445    1.1541    0.3512 C   0  0  0  0  0  0  0  0  0  0  0  0
   10.7032    2.8590    0.9213 C   0  0  0  0  0  0  0  0  0  0  0  0
    9.9048    1.0820   -1.4936 O   0  0  0  0  0  0  0  0  0  0  0  0
    9.0349    0.3643   -2.1013 N   0  0  0  0  0  0  0  0  0  0  0  0
    2.9694   -1.2440   -2.3407 C   0  0  0  0  0  0  0  0  0  0  0  0
    1.6498   -0.9165   -2.1278 C   0  0  0  0  0  0  0  0  0  0  0  0
   -3.1191    0.0256   -0.3163 N   0  0  0  0  0  0  0  0  0  0  0  0
   -4.3848    0.4167   -0.1189 C   0  0  0  0  0  0  0  0  0  0  0  0
   -8.6927   -0.7079    0.9413 C   0  0  0  0  0  0  0  0  0  0  0  0
  -10.2012   -0.5180    0.7311 C   0  0  0  0  0  0  0  0  0  0  0  0
  -10.2903    3.7245    1.1211 H   0  0  0  0  0  0  0  0  0  0  0  0
  -11.7709    3.0620    0.3193 H   0  0  0  0  0  0  0  0  0  0  0  0
  -11.8099    3.3371    2.0887 H   0  0  0  0  0  0  0  0  0  0  0  0
  -11.3561    1.0868    2.1767 H   0  0  0  0  0  0  0  0  0  0  0  0
   -9.6517    1.6636    2.0453 H   0  0  0  0  0  0  0  0  0  0  0  0
   -8.5979    1.7427    0.1615 H   0  0  0  0  0  0  0  0  0  0  0  0
   -9.7843    2.1059   -1.1810 H   0  0  0  0  0  0  0  0  0  0  0  0
   -9.6014   -0.3692   -1.7120 H   0  0  0  0  0  0  0  0  0  0  0  0
   -8.1136    0.6072   -2.0962 H   0  0  0  0  0  0  0  0  0  0  0  0
   -7.8193   -1.6521   -0.8055 H   0  0  0  0  0  0  0  0  0  0  0  0
   -6.0123   -2.3883   -1.0717 H   0  0  0  0  0  0  0  0  0  0  0  0
   -3.6881   -3.0266   -1.4069 H   0  0  0  0  0  0  0  0  0  0  0  0
   -0.6093    0.2283   -0.3864 H   0  0  0  0  0  0  0  0  0  0  0  0
    1.2947   -1.8016    1.0756 H   0  0  0  0  0  0  0  0  0  0  0  0
    3.6975   -2.4005    0.6997 H   0  0  0  0  0  0  0  0  0  0  0  0
    5.3349   -3.0830   -1.7968 H   0  0  0  0  0  0  0  0  0  0  0  0
    7.8001   -2.4417   -1.7426 H   0  0  0  0  0  0  0  0  0  0  0  0
    8.9348   -0.7776    0.9297 H   0  0  0  0  0  0  0  0  0  0  0  0
   11.2950   -0.2139    2.2496 H   0  0  0  0  0  0  0  0  0  0  0  0
   11.0978    1.4035    2.9493 H   0  0  0  0  0  0  0  0  0  0  0  0
    9.6699    0.4795    2.3569 H   0  0  0  0  0  0  0  0  0  0  0  0
   12.9929    2.0303    0.6416 H   0  0  0  0  0  0  0  0  0  0  0  0
   12.7731    0.2118    0.7492 H   0  0  0  0  0  0  0  0  0  0  0  0
   12.4307    1.1041   -0.7652 H   0  0  0  0  0  0  0  0  0  0  0  0
    9.8068    3.0705    1.5284 H   0  0  0  0  0  0  0  0  0  0  0  0
   11.5698    3.2793    1.4690 H   0  0  0  0  0  0  0  0  0  0  0  0
   10.6180    3.3494   -0.0754 H   0  0  0  0  0  0  0  0  0  0  0  0
    3.4697   -1.0993   -3.2932 H   0  0  0  0  0  0  0  0  0  0  0  0
    1.0596   -0.4924   -2.9354 H   0  0  0  0  0  0  0  0  0  0  0  0
   -4.6049    1.4028    0.2516 H   0  0  0  0  0  0  0  0  0  0  0  0
   -8.5894   -1.6753    1.4581 H   0  0  0  0  0  0  0  0  0  0  0  0
   -8.3490    0.1263    1.5621 H   0  0  0  0  0  0  0  0  0  0  0  0
  -10.6083   -1.2249    0.0027 H   0  0  0  0  0  0  0  0  0  0  0  0
  -10.6709   -0.6768    1.7221 H   0  0  0  0  0  0  0  0  0  0  0  0
  1  2  1  0
  2  3  1  0
  3  4  1  0
  4  5  1  0
  5  6  1  0
  6  7  1  0
  7  8  1  0
  8  9  2  0
  9 10  1  0
 10 11  2  0
 11 12  1  0
 12 13  2  0
 12 14  1  0
 14 15  1  0
 15 16  2  0
 16 17  1  0
 17 18  2  0
 18 19  1  0
 19 20  1  0
 20 21  2  0
 20 22  1  0
 22 23  1  0
 23 24  1  0
 24 25  2  0
 25 26  1  0
 26 27  1  0
 26 28  1  0
 26 29  1  0
 25 30  1  0
 30 31  1  0
 18 32  1  0
 32 33  2  0
 11 34  1  0
 34 35  2  0
  6 36  1  0
 36 37  1  0
 37  3  1  0
 35  8  1  0
 33 15  1  0
 31 23  2  0
  1 38  1  0
  1 39  1  0
  1 40  1  0
  2 41  1  0
  2 42  1  0
  4 43  1  0
  4 44  1  0
  5 45  1  0
  5 46  1  0
  6 47  1  0
  9 48  1  0
 10 49  1  0
 14 50  1  0
 16 51  1  0
 17 52  1  0
 19 53  1  0
 22 54  1  0
 24 55  1  0
 27 56  1  0
 27 57  1  0
 27 58  1  0
 28 59  1  0
 28 60  1  0
 28 61  1  0
 29 62  1  0
 29 63  1  0
 29 64  1  0
 32 65  1  0
 33 66  1  0
 35 67  1  0
 36 68  1  0
 36 69  1  0
 37 70  1  0
 37 71  1  0
M  END
$$$$
