@<TRIPOS>MOLECULE
*****
 71 74 0 0 0
SMALL
GASTEIGER

@<TRIPOS>ATOM
      1 C         -11.1410    3.0276    1.2346 C.3     1  UNL1       -0.0524
      2 C         -10.6385    1.6396    1.5160 C.3     1  UNL1       -0.0039
      3 N         -10.4665    0.8609    0.3290 N.3     1  UNL1       -0.3023
      4 C          -9.3776    1.3555   -0.5034 C.3     1  UNL1        0.0022
      5 C          -8.7744    0.2290   -1.3177 C.3     1  UNL1       -0.0029
      6 C          -7.9408   -0.6552   -0.3732 C.3     1  UNL1        0.1026
      7 O          -6.7531    0.0248   -0.1600 O.3     1  UNL1       -0.4872
      8 C          -5.4836   -0.4284   -0.3800 C.ar    1  UNL1        0.1390
      9 C          -5.2083   -1.6853   -0.8510 C.ar    1  UNL1       -0.0162
     10 C          -3.8792   -2.0421   -1.0386 C.ar    1  UNL1       -0.0277
     11 C          -2.8411   -1.1965   -0.7746 C.ar    1  UNL1        0.1259
     12 C          -1.4688   -1.5959   -0.9807 C.2     1  UNL1        0.2666
     13 O          -1.1957   -2.7702   -1.4049 O.2     1  UNL1       -0.2682
     14 N          -0.3613   -0.7448   -0.7361 N.am    1  UNL1       -0.2802
     15 C           1.0026   -1.0961   -0.9219 C.ar    1  UNL1        0.0338
     16 C           1.7609   -1.6405    0.1073 C.ar    1  UNL1       -0.0387
     17 C           3.0844   -1.9705   -0.0998 C.ar    1  UNL1       -0.0387
     18 C           3.7172   -1.7857   -1.3073 C.ar    1  UNL1        0.0349
     19 N           5.0882   -2.1280   -1.4932 N.am    1  UNL1       -0.2692
     20 C           6.1377   -1.2007   -1.2758 C.2     1  UNL1        0.3093
     21 O           5.8183   -0.0410   -0.9097 O.2     1  UNL1       -0.2521
     22 N           7.4999   -1.4909   -1.4416 N.am    1  UNL1       -0.2512
     23 C           8.5032   -0.5045   -1.2123 C.ar    1  UNL1        0.1691
     24 C           9.1262   -0.2530   -0.0080 C.ar    1  UNL1        0.0230
     25 C          10.0196    0.7747   -0.2351 C.ar    1  UNL1        0.1445
     26 C          10.9173    1.3761    0.8001 C.3     1  UNL1        0.0230
     27 C          10.7285    0.7334    2.1395 C.3     1  UNL1       -0.0531
     28 C          12.3445    1.1541    0.3512 C.3     1  UNL1       -0.0531
     29 C          10.7032    2.8590    0.9213 C.3     1  UNL1       -0.0531
     30 O           9.9048    1.0820   -1.4936 O.2     1  UNL1       -0.3573
     31 N           9.0349    0.3643   -2.1013 N.ar    1  UNL1       -0.0627
     32 C           2.9694   -1.2440   -2.3407 C.ar    1  UNL1       -0.0387
     33 C           1.6498   -0.9165   -2.1278 C.ar    1  UNL1       -0.0387
     34 N          -3.1191    0.0256   -0.3163 N.ar    1  UNL1       -0.2467
     35 C          -4.3848    0.4167   -0.1189 C.ar    1  UNL1        0.0701
     36 C          -8.6927   -0.7079    0.9413 C.3     1  UNL1       -0.0029
     37 C         -10.2012   -0.5180    0.7311 C.3     1  UNL1        0.0022
     38 H         -10.2903    3.7245    1.1211 H       1  UNL1        0.0242
     39 H         -11.7709    3.0620    0.3193 H       1  UNL1        0.0242
     40 H         -11.8099    3.3371    2.0887 H       1  UNL1        0.0242
     41 H         -11.3561    1.0868    2.1767 H       1  UNL1        0.0424
     42 H          -9.6517    1.6636    2.0453 H       1  UNL1        0.0424
     43 H          -8.5979    1.7427    0.1615 H       1  UNL1        0.0428
     44 H          -9.7843    2.1059   -1.1810 H       1  UNL1        0.0428
     45 H          -9.6014   -0.3692   -1.7120 H       1  UNL1        0.0313
     46 H          -8.1136    0.6072   -2.0962 H       1  UNL1        0.0313
     47 H          -7.8193   -1.6521   -0.8055 H       1  UNL1        0.0733
     48 H          -6.0123   -2.3883   -1.0717 H       1  UNL1        0.0655
     49 H          -3.6881   -3.0266   -1.4069 H       1  UNL1        0.0641
     50 H          -0.6093    0.2283   -0.3864 H       1  UNL1        0.1552
     51 H           1.2947   -1.8016    1.0756 H       1  UNL1        0.0637
     52 H           3.6975   -2.4005    0.6997 H       1  UNL1        0.0637
     53 H           5.3349   -3.0830   -1.7968 H       1  UNL1        0.1564
     54 H           7.8001   -2.4417   -1.7426 H       1  UNL1        0.1579
     55 H           8.9348   -0.7776    0.9297 H       1  UNL1        0.0688
     56 H          11.2950   -0.2139    2.2496 H       1  UNL1        0.0239
     57 H          11.0978    1.4035    2.9493 H       1  UNL1        0.0239
     58 H           9.6699    0.4795    2.3569 H       1  UNL1        0.0239
     59 H          12.9929    2.0303    0.6416 H       1  UNL1        0.0239
     60 H          12.7731    0.2118    0.7492 H       1  UNL1        0.0239
     61 H          12.4307    1.1041   -0.7652 H       1  UNL1        0.0239
     62 H           9.8068    3.0705    1.5284 H       1  UNL1        0.0239
     63 H          11.5698    3.2793    1.4690 H       1  UNL1        0.0239
     64 H          10.6180    3.3494   -0.0754 H       1  UNL1        0.0239
     65 H           3.4697   -1.0993   -3.2932 H       1  UNL1        0.0637
     66 H           1.0596   -0.4924   -2.9354 H       1  UNL1        0.0637
     67 H          -4.6049    1.4028    0.2516 H       1  UNL1        0.0867
     68 H          -8.5894   -1.6753    1.4581 H       1  UNL1        0.0313
     69 H          -8.3490    0.1263    1.5621 H       1  UNL1        0.0313
     70 H         -10.6083   -1.2249    0.0027 H       1  UNL1        0.0428
     71 H         -10.6709   -0.6768    1.7221 H       1  UNL1        0.0428
@<TRIPOS>BOND
     1     1     2    1
     2     2     3    1
     3     3     4    1
     4     4     5    1
     5     5     6    1
     6     6     7    1
     7     7     8    1
     8     8     9   ar
     9     9    10   ar
    10    10    11   ar
    11    11    12    1
    12    12    13    2
    13    12    14   am
    14    14    15    1
    15    15    16   ar
    16    16    17   ar
    17    17    18   ar
    18    18    19    1
    19    19    20   am
    20    20    21    2
    21    20    22   am
    22    22    23    1
    23    23    24   ar
    24    24    25   ar
    25    25    26    1
    26    26    27    1
    27    26    28    1
    28    26    29    1
    29    25    30   ar
    30    30    31   ar
    31    18    32   ar
    32    32    33   ar
    33    11    34   ar
    34    34    35   ar
    35     6    36    1
    36    36    37    1
    37    37     3    1
    38    35     8   ar
    39    33    15   ar
    40    31    23   ar
    41     1    38    1
    42     1    39    1
    43     1    40    1
    44     2    41    1
    45     2    42    1
    46     4    43    1
    47     4    44    1
    48     5    45    1
    49     5    46    1
    50     6    47    1
    51     9    48    1
    52    10    49    1
    53    14    50    1
    54    16    51    1
    55    17    52    1
    56    19    53    1
    57    22    54    1
    58    24    55    1
    59    27    56    1
    60    27    57    1
    61    27    58    1
    62    28    59    1
    63    28    60    1
    64    28    61    1
    65    29    62    1
    66    29    63    1
    67    29    64    1
    68    32    65    1
    69    33    66    1
    70    35    67    1
    71    36    68    1
    72    36    69    1
    73    37    70    1
    74    37    71    1
