@<TRIPOS>MOLECULE
*****
 21 21 0 0 0
SMALL
GASTEIGER

@<TRIPOS>ATOM
      1 O          -3.2314    0.1917   -1.0137 O.2     1  UNL1       -0.2687
      2 C          -2.7987   -0.0422    0.1487 C.2     1  UNL1        0.2593
      3 C          -1.3450   -0.1072    0.3448 C.2     1  UNL1        0.0027
      4 C          -0.5567    0.0791   -0.6883 C.2     1  UNL1       -0.0496
      5 C           0.8903    0.0243   -0.5438 C.ar    1  UNL1       -0.0249
      6 C           1.4611   -0.2243    0.6810 C.ar    1  UNL1       -0.0546
      7 C           2.8557   -0.2733    0.8007 C.ar    1  UNL1       -0.0612
      8 C           3.6474   -0.0721   -0.3096 C.ar    1  UNL1       -0.0617
      9 C           3.0578    0.1783   -1.5419 C.ar    1  UNL1       -0.0612
     10 C           1.6951    0.2302   -1.6795 C.ar    1  UNL1       -0.0546
     11 N          -3.6739   -0.2397    1.2480 N.am    1  UNL1       -0.1940
     12 O          -4.9953   -0.1725    1.0276 O.3     1  UNL1       -0.2949
     13 H          -0.9941   -0.3084    1.3465 H       1  UNL1        0.0670
     14 H          -0.9986    0.2799   -1.6794 H       1  UNL1        0.0625
     15 H           0.9124   -0.3918    1.5948 H       1  UNL1        0.0623
     16 H           3.2751   -0.4705    1.7755 H       1  UNL1        0.0618
     17 H           4.7185   -0.1077   -0.2281 H       1  UNL1        0.0618
     18 H           3.6595    0.3395   -2.4282 H       1  UNL1        0.0618
     19 H           1.1909    0.4237   -2.6271 H       1  UNL1        0.0623
     20 H          -3.3306   -0.4313    2.2008 H       1  UNL1        0.1825
     21 H          -5.4398    0.5242    1.5712 H       1  UNL1        0.2414
@<TRIPOS>BOND
     1     1     2    2
     2     2     3    1
     3     3     4    2
     4     4     5    1
     5     5     6   ar
     6     6     7   ar
     7     7     8   ar
     8     8     9   ar
     9     9    10   ar
    10     2    11   am
    11    11    12    1
    12    10     5   ar
    13     3    13    1
    14     4    14    1
    15     6    15    1
    16     7    16    1
    17     8    17    1
    18     9    18    1
    19    10    19    1
    20    11    20    1
    21    12    21    1
