
     RDKit          3D

 21 21  0  0  0  0  0  0  0  0999 V2000
   -3.2314    0.1917   -1.0137 O   0  0  0  0  0  0  0  0  0  0  0  0
   -2.7987   -0.0422    0.1487 C   0  0  0  0  0  0  0  0  0  0  0  0
   -1.3450   -0.1072    0.3448 C   0  0  0  0  0  0  0  0  0  0  0  0
   -0.5567    0.0791   -0.6883 C   0  0  0  0  0  0  0  0  0  0  0  0
    0.8903    0.0243   -0.5438 C   0  0  0  0  0  0  0  0  0  0  0  0
    1.4611   -0.2243    0.6810 C   0  0  0  0  0  0  0  0  0  0  0  0
    2.8557   -0.2733    0.8007 C   0  0  0  0  0  0  0  0  0  0  0  0
    3.6474   -0.0721   -0.3096 C   0  0  0  0  0  0  0  0  0  0  0  0
    3.0578    0.1783   -1.5419 C   0  0  0  0  0  0  0  0  0  0  0  0
    1.6951    0.2302   -1.6795 C   0  0  0  0  0  0  0  0  0  0  0  0
   -3.6739   -0.2397    1.2480 N   0  0  0  0  0  0  0  0  0  0  0  0
   -4.9953   -0.1725    1.0276 O   0  0  0  0  0  0  0  0  0  0  0  0
   -0.9941   -0.3084    1.3465 H   0  0  0  0  0  0  0  0  0  0  0  0
   -0.9986    0.2799   -1.6794 H   0  0  0  0  0  0  0  0  0  0  0  0
    0.9124   -0.3918    1.5948 H   0  0  0  0  0  0  0  0  0  0  0  0
    3.2751   -0.4705    1.7755 H   0  0  0  0  0  0  0  0  0  0  0  0
    4.7185   -0.1077   -0.2281 H   0  0  0  0  0  0  0  0  0  0  0  0
    3.6595    0.3395   -2.4282 H   0  0  0  0  0  0  0  0  0  0  0  0
    1.1909    0.4237   -2.6271 H   0  0  0  0  0  0  0  0  0  0  0  0
   -3.3306   -0.4313    2.2008 H   0  0  0  0  0  0  0  0  0  0  0  0
   -5.4398    0.5242    1.5712 H   0  0  0  0  0  0  0  0  0  0  0  0
  1  2  2  0
  2  3  1  0
  3  4  2  0
  4  5  1  0
  5  6  2  0
  6  7  1  0
  7  8  2  0
  8  9  1  0
  9 10  2  0
  2 11  1  0
 11 12  1  0
 10  5  1  0
  3 13  1  0
  4 14  1  0
  6 15  1  0
  7 16  1  0
  8 17  1  0
  9 18  1  0
 10 19  1  0
 11 20  1  0
 12 21  1  0
M  END
$$$$
