@<TRIPOS>MOLECULE
*****
 56 61 0 0 0
SMALL
GASTEIGER

@<TRIPOS>ATOM
      1 C           8.2689   -2.0496   -0.7133 C.3     1  UNL1        0.0788
      2 O           7.4640   -1.8150   -1.8534 O.3     1  UNL1       -0.4950
      3 C           6.1572   -1.3581   -1.6192 C.ar    1  UNL1        0.1237
      4 C           5.6699   -1.1445   -0.3433 C.ar    1  UNL1       -0.0190
      5 C           4.3903   -0.6963   -0.0889 C.ar    1  UNL1       -0.0439
      6 C           3.5485   -0.4458   -1.1415 C.ar    1  UNL1        0.0662
      7 C           2.2390    0.0009   -1.2124 C.ar    1  UNL1        0.1922
      8 N           1.3681    0.3392   -0.1223 N.ar    1  UNL1       -0.2413
      9 C           0.2790   -0.3105    0.2663 C.ar    1  UNL1        0.3362
     10 O          -0.1459   -1.3685   -0.3130 O.2     1  UNL1       -0.2459
     11 N          -0.2710    0.3040    1.3188 N.ar    1  UNL1       -0.2874
     12 C          -1.4450   -0.0888    2.0181 C.3     1  UNL1        0.0532
     13 C          -2.6688    0.5219    1.4452 C.ar    1  UNL1       -0.0272
     14 C          -3.1817    1.7249    1.8556 C.ar    1  UNL1       -0.0568
     15 C          -4.3339    2.2464    1.2790 C.ar    1  UNL1       -0.0611
     16 C          -4.9874    1.5503    0.2705 C.ar    1  UNL1       -0.0543
     17 C          -4.4797    0.3347   -0.1526 C.ar    1  UNL1        0.0049
     18 C          -5.1343   -0.4586   -1.2286 C.3     1  UNL1        0.2142
     19 C          -4.7543    0.0605   -2.5869 C.3     1  UNL1       -0.0116
     20 O          -4.7903   -1.8390   -1.0672 O.2     1  UNL1       -0.4308
     21 C          -5.7432   -2.3848   -0.2286 C.2     1  UNL1        0.3808
     22 O          -5.5609   -3.5912    0.4647 O.2     1  UNL1       -0.4673
     23 N          -6.8031   -1.6527   -0.1678 N.am    1  UNL1       -0.1074
     24 C          -6.6024   -0.5056   -1.0166 C.2     1  UNL1        0.2899
     25 O          -7.4419    0.2873   -1.4847 O.2     1  UNL1       -0.2687
     26 C          -3.3416   -0.1502    0.4376 C.ar    1  UNL1       -0.0494
     27 C           0.4890    1.3880    1.6207 C.ar    1  UNL1        0.0706
     28 C           0.4029    2.3598    2.5815 C.ar    1  UNL1       -0.0360
     29 C           1.3437    3.3535    2.6395 C.ar    1  UNL1       -0.0597
     30 C           2.3659    3.3461    1.7139 C.ar    1  UNL1       -0.0597
     31 C           2.4908    2.3915    0.7338 C.ar    1  UNL1       -0.0356
     32 C           1.5167    1.4082    0.7154 C.ar    1  UNL1        0.0765
     33 N           1.9754    0.0430   -2.5364 N.ar    1  UNL1       -0.0587
     34 O           3.0014   -0.3337   -3.2150 O.2     1  UNL1       -0.3525
     35 C           4.0225   -0.6551   -2.4233 C.ar    1  UNL1        0.1728
     36 C           5.3023   -1.1035   -2.6800 C.ar    1  UNL1        0.0257
     37 H           7.6858   -2.7738   -0.0786 H       1  UNL1        0.0660
     38 H           9.2610   -2.4273   -0.9557 H       1  UNL1        0.0660
     39 H           8.2990   -1.1117   -0.0896 H       1  UNL1        0.0660
     40 H           6.3399   -1.3443    0.4800 H       1  UNL1        0.0654
     41 H           4.0245   -0.5339    0.9267 H       1  UNL1        0.0627
     42 H          -1.4080    0.1380    3.1109 H       1  UNL1        0.0543
     43 H          -1.5906   -1.2011    1.9637 H       1  UNL1        0.0543
     44 H          -2.7000    2.2825    2.6298 H       1  UNL1        0.0621
     45 H          -4.7324    3.1942    1.6066 H       1  UNL1        0.0618
     46 H          -5.8958    1.9455   -0.1949 H       1  UNL1        0.0622
     47 H          -3.8025    0.6482   -2.4571 H       1  UNL1        0.0276
     48 H          -4.5001   -0.7402   -3.3065 H       1  UNL1        0.0276
     49 H          -5.4875    0.7926   -2.9868 H       1  UNL1        0.0276
     50 H          -6.0696   -3.7916    1.3093 H       1  UNL1        0.2967
     51 H          -2.9554   -1.1073    0.0933 H       1  UNL1        0.0625
     52 H          -0.4040    2.3654    3.3127 H       1  UNL1        0.0639
     53 H           1.3039    4.1468    3.3964 H       1  UNL1        0.0618
     54 H           3.1123    4.1444    1.7688 H       1  UNL1        0.0618
     55 H           3.2663    2.3535    0.0023 H       1  UNL1        0.0639
     56 H           5.6430   -1.2575   -3.6969 H       1  UNL1        0.0692
@<TRIPOS>BOND
     1     1     2    1
     2     2     3    1
     3     3     4   ar
     4     4     5   ar
     5     5     6   ar
     6     6     7   ar
     7     7     8    1
     8     8     9   ar
     9     9    10    2
    10     9    11   ar
    11    11    12    1
    12    12    13    1
    13    13    14   ar
    14    14    15   ar
    15    15    16   ar
    16    16    17   ar
    17    17    18    1
    18    18    19    1
    19    18    20    1
    20    20    21    1
    21    21    22    1
    22    21    23    2
    23    23    24    1
    24    24    25    2
    25    17    26   ar
    26    11    27   ar
    27    27    28   ar
    28    28    29   ar
    29    29    30   ar
    30    30    31   ar
    31    31    32   ar
    32     7    33   ar
    33    33    34   ar
    34    34    35   ar
    35    35    36   ar
    36    36     3   ar
    37    35     6   ar
    38    32     8   ar
    39    26    13   ar
    40    32    27   ar
    41    24    18    1
    42     1    37    1
    43     1    38    1
    44     1    39    1
    45     4    40    1
    46     5    41    1
    47    12    42    1
    48    12    43    1
    49    14    44    1
    50    15    45    1
    51    16    46    1
    52    19    47    1
    53    19    48    1
    54    19    49    1
    55    22    50    1
    56    26    51    1
    57    28    52    1
    58    29    53    1
    59    30    54    1
    60    31    55    1
    61    36    56    1
