@<TRIPOS>MOLECULE
*****
 65 67 0 0 0
SMALL
GASTEIGER

@<TRIPOS>ATOM
      1 C          -2.0386    5.0947    1.1661 C.3     1  UNL1       -0.0652
      2 C          -1.2069    3.8567    1.4878 C.3     1  UNL1       -0.0544
      3 C          -1.6871    2.7229    0.5549 C.3     1  UNL1       -0.0357
      4 C          -0.8287    1.5445    0.9272 C.3     1  UNL1        0.0350
      5 N          -1.0715    0.3440    0.1659 N.pl3   1  UNL1       -0.2016
      6 C          -2.0701   -0.6174    0.5112 C.ar    1  UNL1        0.0701
      7 C          -1.7129   -1.6151    1.4249 C.ar    1  UNL1       -0.0376
      8 C          -2.6294   -2.5571    1.8195 C.ar    1  UNL1       -0.0593
      9 C          -3.9144   -2.5500    1.3340 C.ar    1  UNL1       -0.0525
     10 C          -4.2874   -1.5778    0.4338 C.ar    1  UNL1        0.0023
     11 C          -5.6579   -1.6025   -0.0540 C.ar    1  UNL1       -0.0163
     12 C          -6.4473   -0.4757   -0.1223 C.ar    1  UNL1       -0.0526
     13 C          -7.7344   -0.5281   -0.5885 C.ar    1  UNL1       -0.0428
     14 C          -8.2941   -1.7130   -1.0093 C.ar    1  UNL1        0.0410
     15 CL         -9.9570   -1.7734   -1.6102 Cl      1  UNL1       -0.0835
     16 C          -7.5227   -2.8523   -0.9496 C.ar    1  UNL1       -0.0428
     17 C          -6.2394   -2.7788   -0.4809 C.ar    1  UNL1       -0.0526
     18 C          -3.3502   -0.6368    0.0471 C.ar    1  UNL1        0.0712
     19 CL         -3.8494    0.5606   -1.1265 Cl      1  UNL1       -0.0809
     20 S          -0.0322    0.1026   -1.1897 S.O2    1  UNL1        0.0750
     21 O          -0.2519    1.2761   -2.1242 O.2     1  UNL1       -0.1498
     22 O          -0.5529   -1.1120   -1.9381 O.2     1  UNL1       -0.1498
     23 C           1.6356   -0.0688   -0.7889 C.ar    1  UNL1        0.1121
     24 C           2.1178   -0.1391    0.4885 C.ar    1  UNL1       -0.0313
     25 C           3.4790   -0.3002    0.7878 C.ar    1  UNL1       -0.0178
     26 C           4.3895   -0.3948   -0.2338 C.ar    1  UNL1        0.1249
     27 O           5.7277   -0.5526    0.0089 O.3     1  UNL1       -0.4776
     28 C           6.3894   -0.6424    1.2335 C.3     1  UNL1        0.1931
     29 C           7.1201   -1.9673    1.3763 C.3     1  UNL1       -0.0172
     30 C           7.4469    0.4215    1.2788 C.2     1  UNL1        0.3456
     31 O           8.1705    0.5282    2.2942 O.2     1  UNL1       -0.2468
     32 O           7.6476    1.2922    0.2278 O.3     1  UNL1       -0.4781
     33 C           3.9143   -0.3255   -1.5572 C.ar    1  UNL1       -0.0040
     34 C           4.8872   -0.4267   -2.6777 C.3     1  UNL1       -0.0359
     35 C           2.5696   -0.1665   -1.8011 C.ar    1  UNL1       -0.0175
     36 C           2.0844   -0.0953   -3.2036 C.3     1  UNL1       -0.0375
     37 H          -1.8633    5.4278    0.1245 H       1  UNL1        0.0230
     38 H          -1.7949    5.8692    1.9170 H       1  UNL1        0.0230
     39 H          -3.0970    4.7737    1.2408 H       1  UNL1        0.0230
     40 H          -1.3608    3.5917    2.5372 H       1  UNL1        0.0263
     41 H          -0.1585    4.1226    1.2403 H       1  UNL1        0.0263
     42 H          -2.7496    2.5205    0.7432 H       1  UNL1        0.0281
     43 H          -1.4626    3.0159   -0.4828 H       1  UNL1        0.0281
     44 H          -0.9655    1.2686    2.0061 H       1  UNL1        0.0482
     45 H           0.2370    1.8236    0.8034 H       1  UNL1        0.0482
     46 H          -0.6952   -1.6196    1.8084 H       1  UNL1        0.0637
     47 H          -2.3638   -3.3255    2.5196 H       1  UNL1        0.0618
     48 H          -4.6404   -3.3084    1.6566 H       1  UNL1        0.0624
     49 H          -6.0023    0.4700    0.2150 H       1  UNL1        0.0624
     50 H          -8.3393    0.3769   -0.6331 H       1  UNL1        0.0632
     51 H          -7.9956   -3.7750   -1.2904 H       1  UNL1        0.0632
     52 H          -5.6366   -3.6723   -0.4349 H       1  UNL1        0.0624
     53 H           1.4274   -0.0834    1.3269 H       1  UNL1        0.0638
     54 H           3.7804   -0.3466    1.8465 H       1  UNL1        0.0655
     55 H           5.7250   -0.5749    2.1082 H       1  UNL1        0.0849
     56 H           7.9930   -1.7993    2.0208 H       1  UNL1        0.0271
     57 H           7.4668   -2.3688    0.4201 H       1  UNL1        0.0271
     58 H           6.4677   -2.6963    1.9346 H       1  UNL1        0.0271
     59 H           8.6004    1.5988   -0.0071 H       1  UNL1        0.2952
     60 H           4.7085   -1.3404   -3.2754 H       1  UNL1        0.0279
     61 H           5.9160   -0.3261   -2.3316 H       1  UNL1        0.0279
     62 H           4.7039    0.4312   -3.3790 H       1  UNL1        0.0279
     63 H           1.3177   -0.9067   -3.3622 H       1  UNL1        0.0278
     64 H           2.8865   -0.3110   -3.9341 H       1  UNL1        0.0278
     65 H           1.6522    0.8887   -3.4514 H       1  UNL1        0.0278
@<TRIPOS>BOND
     1     1     2    1
     2     2     3    1
     3     3     4    1
     4     4     5    1
     5     5     6    1
     6     6     7   ar
     7     7     8   ar
     8     8     9   ar
     9     9    10   ar
    10    10    11    1
    11    11    12   ar
    12    12    13   ar
    13    13    14   ar
    14    14    15    1
    15    14    16   ar
    16    16    17   ar
    17    10    18   ar
    18    18    19    1
    19     5    20    1
    20    20    21    2
    21    20    22    2
    22    20    23    1
    23    23    24   ar
    24    24    25   ar
    25    25    26   ar
    26    26    27    1
    27    27    28    1
    28    28    29    1
    29    28    30    1
    30    30    31    2
    31    30    32    1
    32    26    33   ar
    33    33    34    1
    34    33    35   ar
    35    35    36    1
    36    18     6   ar
    37    35    23   ar
    38    17    11   ar
    39     1    37    1
    40     1    38    1
    41     1    39    1
    42     2    40    1
    43     2    41    1
    44     3    42    1
    45     3    43    1
    46     4    44    1
    47     4    45    1
    48     7    46    1
    49     8    47    1
    50     9    48    1
    51    12    49    1
    52    13    50    1
    53    16    51    1
    54    17    52    1
    55    24    53    1
    56    25    54    1
    57    28    55    1
    58    29    56    1
    59    29    57    1
    60    29    58    1
    61    32    59    1
    62    34    60    1
    63    34    61    1
    64    34    62    1
    65    36    63    1
    66    36    64    1
    67    36    65    1
