@<TRIPOS>MOLECULE
*****
 35 38 0 0 0
SMALL
GASTEIGER

@<TRIPOS>ATOM
      1 O           5.9704    0.7374   -1.0703 O.2     1  UNL1       -0.2755
      2 C           4.9024    0.2278   -0.6980 C.2     1  UNL1        0.2175
      3 C           4.6988   -0.0728    0.7463 C.3     1  UNL1        0.0283
      4 C           3.3614    0.3546    1.2014 C.3     1  UNL1       -0.0176
      5 C           2.2930   -0.0252    0.2649 C.ar    1  UNL1       -0.0251
      6 C           0.9769   -0.1839    0.7670 C.ar    1  UNL1       -0.0490
      7 C          -0.0762   -0.5093   -0.0494 C.ar    1  UNL1       -0.0155
      8 C          -1.3867   -0.6841    0.5443 C.ar    1  UNL1        0.0079
      9 C          -1.6121   -1.6002    1.5514 C.ar    1  UNL1        0.0359
     10 N          -2.8487   -1.7839    2.0752 N.ar    1  UNL1       -0.2620
     11 C          -3.9116   -1.0885    1.6445 C.ar    1  UNL1        0.0353
     12 C          -3.7321   -0.1616    0.6400 C.ar    1  UNL1        0.0008
     13 C          -4.8093    0.5610    0.2005 C.ar    1  UNL1       -0.0526
     14 C          -4.6649    1.4971   -0.7869 C.ar    1  UNL1       -0.0611
     15 C          -3.4270    1.7150   -1.3432 C.ar    1  UNL1       -0.0611
     16 C          -2.3206    0.9778   -0.8972 C.ar    1  UNL1       -0.0534
     17 C          -2.4710    0.0299    0.1019 C.ar    1  UNL1       -0.0073
     18 C           0.2031   -0.6774   -1.3912 C.ar    1  UNL1       -0.0522
     19 C           1.4657   -0.5312   -1.9074 C.ar    1  UNL1       -0.0396
     20 C           2.5431   -0.1977   -1.0671 C.ar    1  UNL1        0.0366
     21 N           3.8508   -0.0819   -1.6301 N.am    1  UNL1       -0.2852
     22 H           4.7760   -1.1869    0.9271 H       1  UNL1        0.0362
     23 H           5.4896    0.4610    1.3095 H       1  UNL1        0.0362
     24 H           3.2693    1.4610    1.3549 H       1  UNL1        0.0318
     25 H           3.1091   -0.0846    2.1916 H       1  UNL1        0.0318
     26 H           0.8323   -0.0341    1.8480 H       1  UNL1        0.0627
     27 H          -0.7470   -2.1652    1.9012 H       1  UNL1        0.0836
     28 H          -4.9060   -1.2443    2.0731 H       1  UNL1        0.0836
     29 H          -5.8097    0.4105    0.6245 H       1  UNL1        0.0624
     30 H          -5.5260    2.0856   -1.1497 H       1  UNL1        0.0618
     31 H          -3.2853    2.4468   -2.1222 H       1  UNL1        0.0618
     32 H          -1.3462    1.1603   -1.3260 H       1  UNL1        0.0624
     33 H          -0.5992   -0.9417   -2.0529 H       1  UNL1        0.0624
     34 H           1.6977   -0.6615   -2.9669 H       1  UNL1        0.0636
     35 H           4.0402   -0.2102   -2.6432 H       1  UNL1        0.1548
@<TRIPOS>BOND
     1     1     2    2
     2     2     3    1
     3     3     4    1
     4     4     5    1
     5     5     6   ar
     6     6     7   ar
     7     7     8    1
     8     8     9   ar
     9     9    10   ar
    10    10    11   ar
    11    11    12   ar
    12    12    13   ar
    13    13    14   ar
    14    14    15   ar
    15    15    16   ar
    16    16    17   ar
    17     7    18   ar
    18    18    19   ar
    19    19    20   ar
    20    20    21    1
    21    21     2   am
    22    20     5   ar
    23    17     8   ar
    24    17    12   ar
    25     3    22    1
    26     3    23    1
    27     4    24    1
    28     4    25    1
    29     6    26    1
    30     9    27    1
    31    11    28    1
    32    13    29    1
    33    14    30    1
    34    15    31    1
    35    16    32    1
    36    18    33    1
    37    19    34    1
    38    21    35    1
