@<TRIPOS>MOLECULE
*****
 57 60 0 0 0
SMALL
GASTEIGER

@<TRIPOS>ATOM
      1 C           8.9590    1.0291   -0.7478 C.3     1  UNL1        0.0788
      2 O           8.1201    0.8131    0.3783 O.3     1  UNL1       -0.4951
      3 C           6.8294    0.3519    0.1639 C.ar    1  UNL1        0.1201
      4 C           6.3301    0.0963   -1.0888 C.ar    1  UNL1       -0.0193
      5 C           5.0660   -0.3593   -1.3546 C.ar    1  UNL1       -0.0475
      6 C           4.2238   -0.5789   -0.2592 C.ar    1  UNL1        0.0226
      7 C           2.9061   -1.1128   -0.5091 C.2     1  UNL1        0.1955
      8 O           2.8286   -1.9233   -1.5199 O.2     1  UNL1       -0.2866
      9 C           1.7082   -0.8354    0.2476 C.ar    1  UNL1        0.0520
     10 C           0.6057   -1.7039    0.3667 C.ar    1  UNL1        0.0293
     11 C           0.6573   -3.0637   -0.2680 C.3     1  UNL1       -0.0235
     12 N          -0.3539   -1.1447    1.0968 N.ar    1  UNL1       -0.3242
     13 C          -1.6455   -1.6962    1.4254 C.3     1  UNL1        0.0527
     14 C          -2.7559   -1.2875    0.5604 C.ar    1  UNL1        0.0109
     15 C          -3.5833   -0.2536    1.0271 C.ar    1  UNL1       -0.0123
     16 C          -4.6477    0.2251    0.2831 C.ar    1  UNL1        0.1222
     17 O          -5.4473    1.2460    0.7675 O.3     1  UNL1       -0.4779
     18 C          -6.5433    1.7657    0.0639 C.3     1  UNL1        0.1931
     19 C          -6.2304    2.4080   -1.2384 C.3     1  UNL1       -0.0172
     20 C          -7.6115    0.7301   -0.1480 C.2     1  UNL1        0.3456
     21 O          -8.6467    0.9754   -0.8000 O.2     1  UNL1       -0.2468
     22 O          -7.4840   -0.5435    0.3793 O.3     1  UNL1       -0.4781
     23 C          -4.8561   -0.3660   -0.9439 C.ar    1  UNL1       -0.0172
     24 C          -4.0645   -1.3791   -1.4272 C.ar    1  UNL1       -0.0227
     25 C          -2.9975   -1.8474   -0.6624 C.ar    1  UNL1        0.1285
     26 F          -2.2429   -2.8759   -1.1776 F       1  UNL1       -0.2051
     27 C           0.0944    0.1025    1.4748 C.ar    1  UNL1        0.1418
     28 N          -0.4959    1.0654    2.2031 N.ar    1  UNL1       -0.2373
     29 C           0.0966    2.2465    2.4592 C.ar    1  UNL1        0.0299
     30 C           1.3570    2.4826    1.9569 C.ar    1  UNL1       -0.0429
     31 C           1.9744    1.5038    1.2085 C.ar    1  UNL1       -0.0489
     32 C           1.3610    0.2865    0.9487 C.ar    1  UNL1        0.0300
     33 C           4.7078   -0.3266    1.0232 C.ar    1  UNL1       -0.0475
     34 C           5.9877    0.1312    1.2406 C.ar    1  UNL1       -0.0193
     35 H           8.4002    1.7067   -1.4281 H       1  UNL1        0.0660
     36 H           9.0699    0.0671   -1.2890 H       1  UNL1        0.0660
     37 H           9.9309    1.4612   -0.4436 H       1  UNL1        0.0660
     38 H           6.9967    0.2726   -1.9238 H       1  UNL1        0.0654
     39 H           4.7065   -0.5502   -2.3550 H       1  UNL1        0.0626
     40 H           1.6498   -3.5321   -0.0912 H       1  UNL1        0.0292
     41 H          -0.0895   -3.7146    0.2102 H       1  UNL1        0.0292
     42 H           0.4484   -3.0251   -1.3429 H       1  UNL1        0.0292
     43 H          -1.8373   -1.4500    2.4987 H       1  UNL1        0.0543
     44 H          -1.5479   -2.8217    1.4233 H       1  UNL1        0.0543
     45 H          -3.3910    0.1971    2.0101 H       1  UNL1        0.0658
     46 H          -7.0738    2.5485    0.6846 H       1  UNL1        0.0849
     47 H          -6.8709    2.0037   -2.0294 H       1  UNL1        0.0271
     48 H          -5.1698    2.3065   -1.5621 H       1  UNL1        0.0271
     49 H          -6.3662    3.5324   -1.1642 H       1  UNL1        0.0271
     50 H          -7.9614   -1.3418   -0.0571 H       1  UNL1        0.2952
     51 H          -5.6954   -0.0012   -1.5565 H       1  UNL1        0.0655
     52 H          -4.2628   -1.8241   -2.4089 H       1  UNL1        0.0647
     53 H          -0.3699    3.0292    3.0458 H       1  UNL1        0.0830
     54 H           1.8852    3.4209    2.1308 H       1  UNL1        0.0633
     55 H           2.9450    1.7270    0.8105 H       1  UNL1        0.0625
     56 H           4.0531   -0.4956    1.8882 H       1  UNL1        0.0626
     57 H           6.3438    0.3221    2.2637 H       1  UNL1        0.0654
@<TRIPOS>BOND
     1     1     2    1
     2     2     3    1
     3     3     4   ar
     4     4     5   ar
     5     5     6   ar
     6     6     7    1
     7     7     8    2
     8     7     9    1
     9     9    10   ar
    10    10    11    1
    11    10    12   ar
    12    12    13    1
    13    13    14    1
    14    14    15   ar
    15    15    16   ar
    16    16    17    1
    17    17    18    1
    18    18    19    1
    19    18    20    1
    20    20    21    2
    21    20    22    1
    22    16    23   ar
    23    23    24   ar
    24    24    25   ar
    25    25    26    1
    26    12    27   ar
    27    27    28   ar
    28    28    29   ar
    29    29    30   ar
    30    30    31   ar
    31    31    32   ar
    32     6    33   ar
    33    33    34   ar
    34    34     3   ar
    35    32     9   ar
    36    25    14   ar
    37    32    27   ar
    38     1    35    1
    39     1    36    1
    40     1    37    1
    41     4    38    1
    42     5    39    1
    43    11    40    1
    44    11    41    1
    45    11    42    1
    46    13    43    1
    47    13    44    1
    48    15    45    1
    49    18    46    1
    50    19    47    1
    51    19    48    1
    52    19    49    1
    53    22    50    1
    54    23    51    1
    55    24    52    1
    56    29    53    1
    57    30    54    1
    58    31    55    1
    59    33    56    1
    60    34    57    1
