@<TRIPOS>MOLECULE
*****
 49 52 0 0 0
SMALL
GASTEIGER

@<TRIPOS>ATOM
      1 O           3.5764    1.3237   -0.4941 O.2     1  UNL1       -0.2449
      2 C           4.3468    0.3563   -0.9089 C.2     1  UNL1        0.3401
      3 O           3.5988   -0.5290   -1.5267 O.3     1  UNL1       -0.4482
      4 C           2.6886   -1.2102   -2.0479 C.3     1  UNL1        0.1531
      5 C           1.5041   -1.2041   -0.8541 C.1     1  UNL1       -0.0605
      6 C           0.7538   -1.2041   -0.0937 C.1     1  UNL1       -0.0877
      7 C          -0.2387   -1.2019    0.9268 C.3     1  UNL1        0.0642
      8 S          -0.8221    0.2692    1.6540 S.3     1  UNL1       -0.0528
      9 C          -1.9005    1.3005    0.5740 C.ar    1  UNL1        0.2785
     10 N          -2.5352    1.8889   -0.0507 N.ar    1  UNL1       -0.1006
     11 N          -3.6685    1.9239   -0.5959 N.ar    1  UNL1       -0.1065
     12 C          -4.0874    0.6293   -0.1024 C.ar    1  UNL1        0.2498
     13 C          -5.2434   -0.1156   -0.2683 C.ar    1  UNL1        0.0462
     14 C          -5.3994   -1.4604    0.0307 C.ar    1  UNL1       -0.0488
     15 C          -6.3279   -2.2546    0.1849 C.ar    1  UNL1       -0.0604
     16 C          -7.7747   -1.7150    0.0562 C.ar    1  UNL1       -0.0540
     17 C          -7.6034   -0.3372   -0.2543 C.ar    1  UNL1       -0.0172
     18 C          -8.9652    0.2213   -0.4528 C.ar    1  UNL1       -0.0540
     19 C          -8.9996    1.5495   -0.7959 C.ar    1  UNL1       -0.0612
     20 C          -7.9113    2.3531   -0.9564 C.ar    1  UNL1       -0.0611
     21 C          -6.5700    1.7742   -0.7619 C.ar    1  UNL1       -0.0533
     22 C          -6.6142    0.4360   -0.4112 C.ar    1  UNL1       -0.0056
     23 O          -3.0768    0.2436    0.5869 O.2     1  UNL1       -0.4110
     24 C           5.7375    0.5088   -0.5787 C.ar    1  UNL1        0.0593
     25 C           6.7253   -0.3387   -0.9050 C.ar    1  UNL1       -0.0443
     26 C           8.0940   -0.3129   -0.3673 C.ar    1  UNL1       -0.0188
     27 C           8.2989    0.7177    0.5530 C.ar    1  UNL1        0.1300
     28 O           9.4900    0.8492    1.2149 O.3     1  UNL1       -0.4057
     29 C           9.9416    0.3663    2.4445 C.3     1  UNL1        0.5752
     30 F          11.2992    0.6669    2.6206 F       1  UNL1       -0.1328
     31 F           9.3090    1.0258    3.5555 F       1  UNL1       -0.1328
     32 F           9.6640   -0.9891    2.5704 F       1  UNL1       -0.1328
     33 C           7.3072    1.5508    0.8234 C.ar    1  UNL1       -0.0188
     34 C           5.9951    1.5982    0.3771 C.ar    1  UNL1       -0.0443
     35 H           2.8526   -2.3149   -2.0586 H       1  UNL1        0.0838
     36 H           2.0917   -0.8465   -2.8927 H       1  UNL1        0.0838
     37 H           0.1268   -1.9476    1.7243 H       1  UNL1        0.0515
     38 H          -1.1543   -1.7886    0.5172 H       1  UNL1        0.0515
     39 H          -4.3208   -1.9410    0.0362 H       1  UNL1        0.0625
     40 H          -6.3351   -3.3135    0.4134 H       1  UNL1        0.0618
     41 H          -8.5574   -2.3369    0.1854 H       1  UNL1        0.0624
     42 H          -9.8052   -0.4310   -0.3309 H       1  UNL1        0.0624
     43 H         -10.0065    1.9418   -1.0113 H       1  UNL1        0.0618
     44 H          -7.8743    3.3449   -1.2250 H       1  UNL1        0.0618
     45 H          -5.6759    2.3130   -0.8657 H       1  UNL1        0.0624
     46 H           6.4942   -1.1424   -1.6382 H       1  UNL1        0.0627
     47 H           8.7606   -1.0379   -0.6736 H       1  UNL1        0.0654
     48 H           7.5240    2.3558    1.5326 H       1  UNL1        0.0654
     49 H           5.2878    2.2825    0.5401 H       1  UNL1        0.0627
@<TRIPOS>BOND
     1     1     2    2
     2     2     3    1
     3     3     4    1
     4     4     5    1
     5     5     6    3
     6     6     7    1
     7     7     8    1
     8     8     9    1
     9     9    10   ar
    10    10    11   ar
    11    11    12   ar
    12    12    13    1
    13    13    14   ar
    14    14    15   ar
    15    15    16   ar
    16    16    17   ar
    17    17    18   ar
    18    18    19   ar
    19    19    20   ar
    20    20    21   ar
    21    21    22   ar
    22    12    23   ar
    23     2    24    1
    24    24    25   ar
    25    25    26   ar
    26    26    27   ar
    27    27    28    1
    28    28    29    1
    29    29    30    1
    30    29    31    1
    31    29    32    1
    32    27    33   ar
    33    33    34   ar
    34    23     9   ar
    35    34    24   ar
    36    22    13   ar
    37    22    17   ar
    38     4    35    1
    39     4    36    1
    40     7    37    1
    41     7    38    1
    42    14    39    1
    43    15    40    1
    44    16    41    1
    45    18    42    1
    46    19    43    1
    47    20    44    1
    48    21    45    1
    49    25    46    1
    50    26    47    1
    51    33    48    1
    52    34    49    1
