
     RDKit          3D

 55 57  0  0  0  0  0  0  0  0999 V2000
   -2.7553   -2.7848    1.1538 C   0  0  0  0  0  0  0  0  0  0  0  0
   -2.6218   -1.3018    1.0189 C   0  0  0  0  0  0  0  0  0  0  0  0
   -3.9522   -0.6801    1.4725 C   0  0  0  0  0  0  0  0  0  0  0  0
   -2.2719   -0.8109   -0.3192 C   0  0  0  0  0  0  0  0  0  0  0  0
   -3.1929   -0.9445   -1.3672 C   0  0  0  0  0  0  0  0  0  0  0  0
   -2.9374   -0.5031   -2.6035 N   0  0  0  0  0  0  0  0  0  0  0  0
   -1.7791    0.1098   -2.9656 C   0  0  0  0  0  0  0  0  0  0  0  0
   -1.6202    0.5485   -4.3525 C   0  0  0  0  0  0  0  0  0  0  0  0
   -2.6629    0.3238   -5.2579 C   0  0  0  0  0  0  0  0  0  0  0  0
   -2.6263    0.6902   -6.5772 C   0  0  0  0  0  0  0  0  0  0  0  0
   -3.9861    0.3702   -7.6566 Cl  0  0  0  0  0  0  0  0  0  0  0  0
   -1.4897    1.3191   -7.0378 C   0  0  0  0  0  0  0  0  0  0  0  0
   -0.4299    1.5698   -6.2013 C   0  0  0  0  0  0  0  0  0  0  0  0
   -0.5155    1.1755   -4.8592 C   0  0  0  0  0  0  0  0  0  0  0  0
    0.5456    1.4422   -4.0809 F   0  0  0  0  0  0  0  0  0  0  0  0
   -0.8704    0.2502   -1.9654 C   0  0  0  0  0  0  0  0  0  0  0  0
   -1.0985   -0.2009   -0.6478 C   0  0  0  0  0  0  0  0  0  0  0  0
   -0.0829    0.0656    0.3482 N   0  0  0  0  0  0  0  0  0  0  0  0
    0.6091   -1.0268    0.8856 C   0  0  0  0  0  0  0  0  0  0  0  0
    0.3815   -2.3142    0.3993 C   0  0  0  0  0  0  0  0  0  0  0  0
    1.0327   -3.4047    0.8938 C   0  0  0  0  0  0  0  0  0  0  0  0
    1.9191   -3.2540    1.8741 N   0  0  0  0  0  0  0  0  0  0  0  0
    2.1503   -2.0113    2.3560 C   0  0  0  0  0  0  0  0  0  0  0  0
    1.5282   -0.8614    1.9042 C   0  0  0  0  0  0  0  0  0  0  0  0
    1.8545    0.4141    2.5132 C   0  0  0  0  0  0  0  0  0  0  0  0
    1.2831    1.4766    2.1602 O   0  0  0  0  0  0  0  0  0  0  0  0
    2.8172    0.5375    3.5216 N   0  0  0  0  0  0  0  0  0  0  0  0
    3.1858    1.7875    4.1602 C   0  0  0  0  0  0  0  0  0  0  0  0
    3.7534    2.7468    3.1560 C   0  0  2  0  0  0  0  0  0  0  0  0
    5.0008    2.0822    2.5654 C   0  0  0  0  0  0  0  0  0  0  0  0
    4.1006    3.9322    3.8218 O   0  0  0  0  0  0  0  0  0  0  0  0
   -2.8024   -3.3062    0.1707 H   0  0  0  0  0  0  0  0  0  0  0  0
   -3.7147   -3.0163    1.6534 H   0  0  0  0  0  0  0  0  0  0  0  0
   -1.9737   -3.2240    1.8127 H   0  0  0  0  0  0  0  0  0  0  0  0
   -1.8962   -0.9752    1.7978 H   0  0  0  0  0  0  0  0  0  0  0  0
   -4.7921   -1.1751    0.9049 H   0  0  0  0  0  0  0  0  0  0  0  0
   -4.0974   -0.9494    2.5248 H   0  0  0  0  0  0  0  0  0  0  0  0
   -3.9484    0.4085    1.3325 H   0  0  0  0  0  0  0  0  0  0  0  0
   -4.1331   -1.4299   -1.1188 H   0  0  0  0  0  0  0  0  0  0  0  0
   -3.5379   -0.1734   -4.8543 H   0  0  0  0  0  0  0  0  0  0  0  0
   -1.4888    1.5979   -8.0872 H   0  0  0  0  0  0  0  0  0  0  0  0
    0.4266    2.0572   -6.5991 H   0  0  0  0  0  0  0  0  0  0  0  0
    0.0719    0.7251   -2.1706 H   0  0  0  0  0  0  0  0  0  0  0  0
    0.0396    1.0617    0.5670 H   0  0  0  0  0  0  0  0  0  0  0  0
   -0.3365   -2.4326   -0.3958 H   0  0  0  0  0  0  0  0  0  0  0  0
    0.8240   -4.4042    0.4820 H   0  0  0  0  0  0  0  0  0  0  0  0
    2.8878   -1.9435    3.1628 H   0  0  0  0  0  0  0  0  0  0  0  0
    3.3140   -0.2979    3.8498 H   0  0  0  0  0  0  0  0  0  0  0  0
    2.3078    2.2783    4.6358 H   0  0  0  0  0  0  0  0  0  0  0  0
    3.8808    1.5640    4.9845 H   0  0  0  0  0  0  0  0  0  0  0  0
    2.9970    2.9319    2.3751 H   0  0  0  0  0  0  0  0  0  0  0  0
    5.7785    2.8025    2.3142 H   0  0  0  0  0  0  0  0  0  0  0  0
    4.6361    1.5693    1.6311 H   0  0  0  0  0  0  0  0  0  0  0  0
    5.3573    1.2739    3.2229 H   0  0  0  0  0  0  0  0  0  0  0  0
    4.9308    4.3144    3.4130 H   0  0  0  0  0  0  0  0  0  0  0  0
  1  2  1  0
  2  3  1  0
  2  4  1  0
  4  5  2  0
  5  6  1  0
  6  7  2  0
  7  8  1  0
  8  9  2  0
  9 10  1  0
 10 11  1  0
 10 12  2  0
 12 13  1  0
 13 14  2  0
 14 15  1  0
  7 16  1  0
 16 17  2  0
 17 18  1  0
 18 19  1  0
 19 20  2  0
 20 21  1  0
 21 22  2  0
 22 23  1  0
 23 24  2  0
 24 25  1  0
 25 26  2  0
 25 27  1  0
 27 28  1  0
 28 29  1  0
 29 30  1  0
 29 31  1  0
 17  4  1  0
 24 19  1  0
 14  8  1  0
  1 32  1  0
  1 33  1  0
  1 34  1  0
  2 35  1  0
  3 36  1  0
  3 37  1  0
  3 38  1  0
  5 39  1  0
  9 40  1  0
 12 41  1  0
 13 42  1  0
 16 43  1  0
 18 44  1  0
 20 45  1  0
 21 46  1  0
 23 47  1  0
 27 48  1  0
 28 49  1  0
 28 50  1  0
 29 51  1  6
 30 52  1  0
 30 53  1  0
 30 54  1  0
 31 55  1  0
M  END
$$$$
