@<TRIPOS>MOLECULE
*****
 55 57 0 0 0
SMALL
GASTEIGER

@<TRIPOS>ATOM
      1 C          -2.7553   -2.7848    1.1538 C.3     1  UNL1       -0.0585
      2 C          -2.6218   -1.3018    1.0189 C.3     1  UNL1       -0.0183
      3 C          -3.9522   -0.6801    1.4725 C.3     1  UNL1       -0.0585
      4 C          -2.2719   -0.8109   -0.3192 C.ar    1  UNL1       -0.0056
      5 C          -3.1929   -0.9445   -1.3672 C.ar    1  UNL1        0.0334
      6 N          -2.9374   -0.5031   -2.6035 N.ar    1  UNL1       -0.2545
      7 C          -1.7791    0.1098   -2.9656 C.ar    1  UNL1        0.0755
      8 C          -1.6202    0.5485   -4.3525 C.ar    1  UNL1        0.0369
      9 C          -2.6629    0.3238   -5.2579 C.ar    1  UNL1       -0.0314
     10 C          -2.6263    0.6902   -6.5772 C.ar    1  UNL1        0.0418
     11 CL         -3.9861    0.3702   -7.6566 Cl      1  UNL1       -0.0835
     12 C          -1.4897    1.3191   -7.0378 C.ar    1  UNL1       -0.0406
     13 C          -0.4299    1.5698   -6.2013 C.ar    1  UNL1       -0.0244
     14 C          -0.5155    1.1755   -4.8592 C.ar    1  UNL1        0.1326
     15 F           0.5456    1.4422   -4.0809 F       1  UNL1       -0.2048
     16 C          -0.8704    0.2502   -1.9654 C.ar    1  UNL1       -0.0141
     17 C          -1.0985   -0.2009   -0.6478 C.ar    1  UNL1        0.0383
     18 N          -0.0829    0.0656    0.3482 N.pl3   1  UNL1       -0.3135
     19 C           0.6091   -1.0268    0.8856 C.ar    1  UNL1        0.0465
     20 C           0.3815   -2.3142    0.3993 C.ar    1  UNL1       -0.0217
     21 C           1.0327   -3.4047    0.8938 C.ar    1  UNL1        0.0293
     22 N           1.9191   -3.2540    1.8741 N.ar    1  UNL1       -0.2624
     23 C           2.1503   -2.0113    2.3560 C.ar    1  UNL1        0.0415
     24 C           1.5282   -0.8614    1.9042 C.ar    1  UNL1        0.0758
     25 C           1.8545    0.4141    2.5132 C.2     1  UNL1        0.2474
     26 O           1.2831    1.4766    2.1602 O.2     1  UNL1       -0.2701
     27 N           2.8172    0.5375    3.5216 N.am    1  UNL1       -0.3088
     28 C           3.1858    1.7875    4.1602 C.3     1  UNL1        0.0377
     29 C           3.7534    2.7468    3.1560 C.3     1  UNL1        0.0679
     30 C           5.0008    2.0822    2.5654 C.3     1  UNL1       -0.0375
     31 O           4.1006    3.9322    3.8218 O.3     1  UNL1       -0.3905
     32 H          -2.8024   -3.3062    0.1707 H       1  UNL1        0.0235
     33 H          -3.7147   -3.0163    1.6534 H       1  UNL1        0.0235
     34 H          -1.9737   -3.2240    1.8127 H       1  UNL1        0.0235
     35 H          -1.8962   -0.9752    1.7978 H       1  UNL1        0.0344
     36 H          -4.7921   -1.1751    0.9049 H       1  UNL1        0.0235
     37 H          -4.0974   -0.9494    2.5248 H       1  UNL1        0.0235
     38 H          -3.9484    0.4085    1.3325 H       1  UNL1        0.0235
     39 H          -4.1331   -1.4299   -1.1188 H       1  UNL1        0.0833
     40 H          -3.5379   -0.1734   -4.8543 H       1  UNL1        0.0639
     41 H          -1.4888    1.5979   -8.0872 H       1  UNL1        0.0633
     42 H           0.4266    2.0572   -6.5991 H       1  UNL1        0.0647
     43 H           0.0719    0.7251   -2.1706 H       1  UNL1        0.0658
     44 H           0.0396    1.0617    0.5670 H       1  UNL1        0.1522
     45 H          -0.3365   -2.4326   -0.3958 H       1  UNL1        0.0651
     46 H           0.8240   -4.4042    0.4820 H       1  UNL1        0.0830
     47 H           2.8878   -1.9435    3.1628 H       1  UNL1        0.0838
     48 H           3.3140   -0.2979    3.8498 H       1  UNL1        0.1491
     49 H           2.3078    2.2783    4.6358 H       1  UNL1        0.0487
     50 H           3.8808    1.5640    4.9845 H       1  UNL1        0.0487
     51 H           2.9970    2.9319    2.3751 H       1  UNL1        0.0606
     52 H           5.7785    2.8025    2.3142 H       1  UNL1        0.0255
     53 H           4.6361    1.5693    1.6311 H       1  UNL1        0.0255
     54 H           5.3573    1.2739    3.2229 H       1  UNL1        0.0255
     55 H           4.9308    4.3144    3.4130 H       1  UNL1        0.2098
@<TRIPOS>BOND
     1     1     2    1
     2     2     3    1
     3     2     4    1
     4     4     5   ar
     5     5     6   ar
     6     6     7   ar
     7     7     8    1
     8     8     9   ar
     9     9    10   ar
    10    10    11    1
    11    10    12   ar
    12    12    13   ar
    13    13    14   ar
    14    14    15    1
    15     7    16   ar
    16    16    17   ar
    17    17    18    1
    18    18    19    1
    19    19    20   ar
    20    20    21   ar
    21    21    22   ar
    22    22    23   ar
    23    23    24   ar
    24    24    25    1
    25    25    26    2
    26    25    27   am
    27    27    28    1
    28    28    29    1
    29    29    30    1
    30    29    31    1
    31    17     4   ar
    32    24    19   ar
    33    14     8   ar
    34     1    32    1
    35     1    33    1
    36     1    34    1
    37     2    35    1
    38     3    36    1
    39     3    37    1
    40     3    38    1
    41     5    39    1
    42     9    40    1
    43    12    41    1
    44    13    42    1
    45    16    43    1
    46    18    44    1
    47    20    45    1
    48    21    46    1
    49    23    47    1
    50    27    48    1
    51    28    49    1
    52    28    50    1
    53    29    51    1
    54    30    52    1
    55    30    53    1
    56    30    54    1
    57    31    55    1
