@<TRIPOS>MOLECULE
*****
 45 48 0 0 0
SMALL
GASTEIGER

@<TRIPOS>ATOM
      1 C          -2.5681   -0.3959   -1.8783 C.3     1  UNL1       -0.0274
      2 C          -1.8001   -0.5517   -0.5867 C.3     1  UNL1        0.1037
      3 O          -1.2898    0.6578   -0.1247 O.3     1  UNL1       -0.4725
      4 C           0.0503    0.9225    0.0987 C.ar    1  UNL1        0.2265
      5 N           1.0288    0.0234   -0.1096 N.ar    1  UNL1       -0.2121
      6 C           2.3156    0.2546    0.0971 C.ar    1  UNL1        0.0798
      7 C           3.3551   -0.7491   -0.1409 C.ar    1  UNL1        0.0379
      8 C           4.7108   -0.5884    0.0487 C.ar    1  UNL1        0.0585
      9 N           5.3527   -1.7410   -0.2796 N.ar    1  UNL1       -0.1792
     10 N           4.4315   -2.6056   -0.6655 N.ar    1  UNL1       -0.2738
     11 C           4.7206   -3.9435   -1.0921 C.3     1  UNL1        0.0302
     12 C           3.1960   -2.0410   -0.5964 C.ar    1  UNL1        0.0344
     13 C           2.6816    1.5030    0.5581 C.ar    1  UNL1       -0.0076
     14 C           1.7465    2.5009    0.8044 C.ar    1  UNL1        0.0999
     15 N           1.8280    3.7521    1.2381 N.ar    1  UNL1       -0.1712
     16 N           0.5977    4.2346    1.2797 N.ar    1  UNL1       -0.2732
     17 C           0.3036    5.5868    1.7103 C.3     1  UNL1        0.0302
     18 C          -0.2957    3.3133    0.8774 C.ar    1  UNL1        0.0380
     19 C           0.4169    2.1699    0.5595 C.ar    1  UNL1        0.0812
     20 C          -2.7013   -1.1697    0.4663 C.3     1  UNL1        0.0196
     21 C          -3.9118   -0.3428    0.7541 C.3     1  UNL1        0.0182
     22 N          -4.9930   -0.9666    0.0193 N.am    1  UNL1       -0.3149
     23 C          -4.6174   -2.2421   -0.4529 C.2     1  UNL1        0.2135
     24 O          -5.3273   -2.9936   -1.1685 O.2     1  UNL1       -0.2758
     25 C          -3.2563   -2.4933    0.0587 C.3     1  UNL1        0.0315
     26 H          -2.7462   -1.4091   -2.3026 H       1  UNL1        0.0265
     27 H          -1.9046    0.1285   -2.5943 H       1  UNL1        0.0265
     28 H          -3.5194    0.1310   -1.7335 H       1  UNL1        0.0265
     29 H          -0.9672   -1.2655   -0.7466 H       1  UNL1        0.0734
     30 H           5.1695    0.3235    0.4046 H       1  UNL1        0.0854
     31 H           5.7036   -3.9528   -1.6273 H       1  UNL1        0.0473
     32 H           3.9809   -4.3711   -1.7760 H       1  UNL1        0.0473
     33 H           4.8842   -4.6230   -0.2060 H       1  UNL1        0.0473
     34 H           2.2413   -2.4723   -0.8382 H       1  UNL1        0.0833
     35 H           3.7293    1.7290    0.7392 H       1  UNL1        0.0661
     36 H           0.6598    5.7371    2.7626 H       1  UNL1        0.0473
     37 H           0.8936    6.2786    1.0707 H       1  UNL1        0.0473
     38 H          -0.7524    5.8515    1.5959 H       1  UNL1        0.0473
     39 H          -1.3849    3.4476    0.8147 H       1  UNL1        0.0834
     40 H          -2.1054   -1.3175    1.4013 H       1  UNL1        0.0356
     41 H          -4.1528   -0.3355    1.8393 H       1  UNL1        0.0466
     42 H          -3.7855    0.7288    0.4470 H       1  UNL1        0.0466
     43 H          -5.9319   -0.5074   -0.1308 H       1  UNL1        0.1487
     44 H          -2.6351   -3.0389   -0.6825 H       1  UNL1        0.0363
     45 H          -3.3517   -3.1575    0.9539 H       1  UNL1        0.0363
@<TRIPOS>BOND
     1     1     2    1
     2     2     3    1
     3     3     4    1
     4     4     5   ar
     5     5     6   ar
     6     6     7    1
     7     7     8   ar
     8     8     9   ar
     9     9    10   ar
    10    10    11    1
    11    10    12   ar
    12     6    13   ar
    13    13    14   ar
    14    14    15   ar
    15    15    16   ar
    16    16    17    1
    17    16    18   ar
    18    18    19   ar
    19     2    20    1
    20    20    21    1
    21    21    22    1
    22    22    23   am
    23    23    24    2
    24    23    25    1
    25    19     4   ar
    26    25    20    1
    27    12     7   ar
    28    19    14   ar
    29     1    26    1
    30     1    27    1
    31     1    28    1
    32     2    29    1
    33     8    30    1
    34    11    31    1
    35    11    32    1
    36    11    33    1
    37    12    34    1
    38    13    35    1
    39    17    36    1
    40    17    37    1
    41    17    38    1
    42    18    39    1
    43    20    40    1
    44    21    41    1
    45    21    42    1
    46    22    43    1
    47    25    44    1
    48    25    45    1
