
     RDKit          3D

 45 48  0  0  0  0  0  0  0  0999 V2000
   -2.5681   -0.3959   -1.8783 C   0  0  0  0  0  0  0  0  0  0  0  0
   -1.8001   -0.5517   -0.5867 C   0  0  1  0  0  0  0  0  0  0  0  0
   -1.2898    0.6578   -0.1247 O   0  0  0  0  0  0  0  0  0  0  0  0
    0.0503    0.9225    0.0987 C   0  0  0  0  0  0  0  0  0  0  0  0
    1.0288    0.0234   -0.1096 N   0  0  0  0  0  0  0  0  0  0  0  0
    2.3156    0.2546    0.0971 C   0  0  0  0  0  0  0  0  0  0  0  0
    3.3551   -0.7491   -0.1409 C   0  0  0  0  0  0  0  0  0  0  0  0
    4.7108   -0.5884    0.0487 C   0  0  0  0  0  0  0  0  0  0  0  0
    5.3527   -1.7410   -0.2796 N   0  0  0  0  0  0  0  0  0  0  0  0
    4.4315   -2.6056   -0.6655 N   0  0  0  0  0  0  0  0  0  0  0  0
    4.7206   -3.9435   -1.0921 C   0  0  0  0  0  0  0  0  0  0  0  0
    3.1960   -2.0410   -0.5964 C   0  0  0  0  0  0  0  0  0  0  0  0
    2.6816    1.5030    0.5581 C   0  0  0  0  0  0  0  0  0  0  0  0
    1.7465    2.5009    0.8044 C   0  0  0  0  0  0  0  0  0  0  0  0
    1.8280    3.7521    1.2381 N   0  0  0  0  0  0  0  0  0  0  0  0
    0.5977    4.2346    1.2797 N   0  0  0  0  0  0  0  0  0  0  0  0
    0.3036    5.5868    1.7103 C   0  0  0  0  0  0  0  0  0  0  0  0
   -0.2957    3.3133    0.8774 C   0  0  0  0  0  0  0  0  0  0  0  0
    0.4169    2.1699    0.5595 C   0  0  0  0  0  0  0  0  0  0  0  0
   -2.7013   -1.1697    0.4663 C   0  0  1  0  0  0  0  0  0  0  0  0
   -3.9118   -0.3428    0.7541 C   0  0  0  0  0  0  0  0  0  0  0  0
   -4.9930   -0.9666    0.0193 N   0  0  0  0  0  0  0  0  0  0  0  0
   -4.6174   -2.2421   -0.4529 C   0  0  0  0  0  0  0  0  0  0  0  0
   -5.3273   -2.9936   -1.1685 O   0  0  0  0  0  0  0  0  0  0  0  0
   -3.2563   -2.4933    0.0587 C   0  0  0  0  0  0  0  0  0  0  0  0
   -2.7462   -1.4091   -2.3026 H   0  0  0  0  0  0  0  0  0  0  0  0
   -1.9046    0.1285   -2.5943 H   0  0  0  0  0  0  0  0  0  0  0  0
   -3.5194    0.1310   -1.7335 H   0  0  0  0  0  0  0  0  0  0  0  0
   -0.9672   -1.2655   -0.7466 H   0  0  0  0  0  0  0  0  0  0  0  0
    5.1695    0.3235    0.4046 H   0  0  0  0  0  0  0  0  0  0  0  0
    5.7036   -3.9528   -1.6273 H   0  0  0  0  0  0  0  0  0  0  0  0
    3.9809   -4.3711   -1.7760 H   0  0  0  0  0  0  0  0  0  0  0  0
    4.8842   -4.6230   -0.2060 H   0  0  0  0  0  0  0  0  0  0  0  0
    2.2413   -2.4723   -0.8382 H   0  0  0  0  0  0  0  0  0  0  0  0
    3.7293    1.7290    0.7392 H   0  0  0  0  0  0  0  0  0  0  0  0
    0.6598    5.7371    2.7626 H   0  0  0  0  0  0  0  0  0  0  0  0
    0.8936    6.2786    1.0707 H   0  0  0  0  0  0  0  0  0  0  0  0
   -0.7524    5.8515    1.5959 H   0  0  0  0  0  0  0  0  0  0  0  0
   -1.3849    3.4476    0.8147 H   0  0  0  0  0  0  0  0  0  0  0  0
   -2.1054   -1.3175    1.4013 H   0  0  0  0  0  0  0  0  0  0  0  0
   -4.1528   -0.3355    1.8393 H   0  0  0  0  0  0  0  0  0  0  0  0
   -3.7855    0.7288    0.4470 H   0  0  0  0  0  0  0  0  0  0  0  0
   -5.9319   -0.5074   -0.1308 H   0  0  0  0  0  0  0  0  0  0  0  0
   -2.6351   -3.0389   -0.6825 H   0  0  0  0  0  0  0  0  0  0  0  0
   -3.3517   -3.1575    0.9539 H   0  0  0  0  0  0  0  0  0  0  0  0
  1  2  1  0
  2  3  1  0
  3  4  1  0
  4  5  2  0
  5  6  1  0
  6  7  1  0
  7  8  1  0
  8  9  2  0
  9 10  1  0
 10 11  1  0
 10 12  1  0
  6 13  2  0
 13 14  1  0
 14 15  2  0
 15 16  1  0
 16 17  1  0
 16 18  1  0
 18 19  2  0
  2 20  1  0
 20 21  1  0
 21 22  1  0
 22 23  1  0
 23 24  2  0
 23 25  1  0
 19  4  1  0
 25 20  1  0
 12  7  2  0
 19 14  1  0
  1 26  1  0
  1 27  1  0
  1 28  1  0
  2 29  1  6
  8 30  1  0
 11 31  1  0
 11 32  1  0
 11 33  1  0
 12 34  1  0
 13 35  1  0
 17 36  1  0
 17 37  1  0
 17 38  1  0
 18 39  1  0
 20 40  1  1
 21 41  1  0
 21 42  1  0
 22 43  1  0
 25 44  1  0
 25 45  1  0
M  END
$$$$
