
     RDKit          3D

 20 20  0  0  0  0  0  0  0  0999 V2000
    4.3119    0.6896   -0.5733 O   0  0  0  0  0  0  0  0  0  0  0  0
    3.2750    0.1469    0.1731 C   0  0  0  0  0  0  0  0  0  0  0  0
    3.6873   -0.4354    1.2256 O   0  0  0  0  0  0  0  0  0  0  0  0
    1.8586    0.2512   -0.2367 C   0  0  0  0  0  0  0  0  0  0  0  0
    1.3736    0.8004   -1.2450 O   0  0  0  0  0  0  0  0  0  0  0  0
    0.8982   -0.3905    0.6898 C   0  0  0  0  0  0  0  0  0  0  0  0
   -0.4964   -0.2686    0.2538 C   0  0  0  0  0  0  0  0  0  0  0  0
   -1.2068    0.8257    0.6794 C   0  0  0  0  0  0  0  0  0  0  0  0
   -2.5236    1.0127    0.3128 C   0  0  0  0  0  0  0  0  0  0  0  0
   -3.1510    0.0882   -0.4978 C   0  0  0  0  0  0  0  0  0  0  0  0
   -2.4688   -1.0345   -0.9515 C   0  0  0  0  0  0  0  0  0  0  0  0
   -1.1612   -1.1692   -0.5555 C   0  0  0  0  0  0  0  0  0  0  0  0
    5.0542    1.1586   -0.0788 H   0  0  0  0  0  0  0  0  0  0  0  0
    1.1397   -1.4862    0.7120 H   0  0  0  0  0  0  0  0  0  0  0  0
    1.0731   -0.0581    1.7406 H   0  0  0  0  0  0  0  0  0  0  0  0
   -0.8183    1.6205    1.3209 H   0  0  0  0  0  0  0  0  0  0  0  0
   -3.1132    1.8596    0.6276 H   0  0  0  0  0  0  0  0  0  0  0  0
   -4.1843    0.1790   -0.8205 H   0  0  0  0  0  0  0  0  0  0  0  0
   -2.9608   -1.7643   -1.5902 H   0  0  0  0  0  0  0  0  0  0  0  0
   -0.5873   -2.0254   -0.8819 H   0  0  0  0  0  0  0  0  0  0  0  0
  1  2  1  0
  2  3  2  0
  2  4  1  0
  4  5  2  0
  4  6  1  0
  6  7  1  0
  7  8  2  0
  8  9  1  0
  9 10  2  0
 10 11  1  0
 11 12  2  0
 12  7  1  0
  1 13  1  0
  6 14  1  0
  6 15  1  0
  8 16  1  0
  9 17  1  0
 10 18  1  0
 11 19  1  0
 12 20  1  0
M  END
$$$$
