@<TRIPOS>MOLECULE
*****
 20 20 0 0 0
SMALL
GASTEIGER

@<TRIPOS>ATOM
      1 O           4.3119    0.6896   -0.5733 O.3     1  UNL1       -0.4751
      2 C           3.2750    0.1469    0.1731 C.2     1  UNL1        0.3730
      3 O           3.6873   -0.4354    1.2256 O.2     1  UNL1       -0.2419
      4 C           1.8586    0.2512   -0.2367 C.2     1  UNL1        0.2433
      5 O           1.3736    0.8004   -1.2450 O.2     1  UNL1       -0.2848
      6 C           0.8982   -0.3905    0.6898 C.3     1  UNL1        0.0422
      7 C          -0.4964   -0.2686    0.2538 C.ar    1  UNL1       -0.0397
      8 C          -1.2068    0.8257    0.6794 C.ar    1  UNL1       -0.0582
      9 C          -2.5236    1.0127    0.3128 C.ar    1  UNL1       -0.0615
     10 C          -3.1510    0.0882   -0.4978 C.ar    1  UNL1       -0.0617
     11 C          -2.4688   -1.0345   -0.9515 C.ar    1  UNL1       -0.0615
     12 C          -1.1612   -1.1692   -0.5555 C.ar    1  UNL1       -0.0582
     13 H           5.0542    1.1586   -0.0788 H       1  UNL1        0.2955
     14 H           1.1397   -1.4862    0.7120 H       1  UNL1        0.0396
     15 H           1.0731   -0.0581    1.7406 H       1  UNL1        0.0396
     16 H          -0.8183    1.6205    1.3209 H       1  UNL1        0.0620
     17 H          -3.1132    1.8596    0.6276 H       1  UNL1        0.0618
     18 H          -4.1843    0.1790   -0.8205 H       1  UNL1        0.0618
     19 H          -2.9608   -1.7643   -1.5902 H       1  UNL1        0.0618
     20 H          -0.5873   -2.0254   -0.8819 H       1  UNL1        0.0620
@<TRIPOS>BOND
     1     1     2    1
     2     2     3    2
     3     2     4    1
     4     4     5    2
     5     4     6    1
     6     6     7    1
     7     7     8   ar
     8     8     9   ar
     9     9    10   ar
    10    10    11   ar
    11    11    12   ar
    12    12     7   ar
    13     1    13    1
    14     6    14    1
    15     6    15    1
    16     8    16    1
    17     9    17    1
    18    10    18    1
    19    11    19    1
    20    12    20    1
