@<TRIPOS>MOLECULE
*****
 30 31 0 0 0
SMALL
GASTEIGER

@<TRIPOS>ATOM
      1 O           4.2044    1.8599    0.4614 O.3     1  UNL1       -0.4806
      2 C           4.3848    0.4829    0.3252 C.2     1  UNL1        0.3050
      3 O           4.9398    0.2036   -0.7679 O.2     1  UNL1       -0.2510
      4 C           4.1491   -0.7894    1.0263 C.3     1  UNL1        0.0492
      5 C           3.3597   -1.7034    0.1106 C.3     1  UNL1       -0.0113
      6 C           2.0353   -1.0743   -0.2394 C.ar    1  UNL1       -0.0091
      7 C           1.7998   -0.2570   -1.3411 C.ar    1  UNL1       -0.0509
      8 C           0.5414    0.2100   -1.4809 C.ar    1  UNL1       -0.0467
      9 C          -0.4131   -0.1356   -0.5556 C.ar    1  UNL1        0.0198
     10 S           0.4546   -1.1489    0.5576 S.2     1  UNL1       -0.0932
     11 C          -1.8149    0.2145   -0.4478 C.ar    1  UNL1       -0.0049
     12 C          -2.5438   -0.2505    0.6202 C.ar    1  UNL1        0.0238
     13 C          -3.8632    0.1270    0.6419 C.ar    1  UNL1        0.2737
     14 C          -4.4779    0.9217   -0.3209 C.ar    1  UNL1        0.0156
     15 C          -3.7151    1.3735   -1.3851 C.ar    1  UNL1       -0.0548
     16 C          -2.4039    1.0012   -1.4094 C.ar    1  UNL1       -0.0531
     17 N          -4.7062   -0.2967    1.7046 N.pl3   1  UNL1        0.0796
     18 O          -4.4333   -1.0753    2.7983 O.co2   1  UNL1       -0.5760
     19 O          -5.9001   -0.0140    1.8236 O.2     1  UNL1        0.0414
     20 H           3.5728    2.2949   -0.2390 H       1  UNL1        0.2951
     21 H           5.1073   -1.3288    1.2221 H       1  UNL1        0.0381
     22 H           3.6564   -0.6386    1.9849 H       1  UNL1        0.0381
     23 H           3.1581   -2.6753    0.6167 H       1  UNL1        0.0323
     24 H           3.8753   -1.8451   -0.8357 H       1  UNL1        0.0323
     25 H           2.5785   -0.0097   -2.0540 H       1  UNL1        0.0626
     26 H           0.1949    0.8616   -2.2910 H       1  UNL1        0.0629
     27 H          -2.1532   -0.8734    1.4180 H       1  UNL1        0.0691
     28 H          -5.5215    1.1863   -0.2516 H       1  UNL1        0.0685
     29 H          -4.2079    1.9921   -2.1337 H       1  UNL1        0.0620
     30 H          -1.8580    1.3868   -2.2725 H       1  UNL1        0.0624
@<TRIPOS>UNITY_ATOM_ATTR
17 1
charge 1
18 1
charge -1
@<TRIPOS>BOND
     1     1     2    1
     2     2     3    2
     3     2     4    1
     4     4     5    1
     5     5     6    1
     6     6     7   ar
     7     7     8   ar
     8     8     9   ar
     9     9    10   ar
    10     9    11    1
    11    11    12   ar
    12    12    13   ar
    13    13    14   ar
    14    14    15   ar
    15    15    16   ar
    16    13    17    1
    17    17    18    1
    18    17    19    2
    19    10     6   ar
    20    16    11   ar
    21     1    20    1
    22     4    21    1
    23     4    22    1
    24     5    23    1
    25     5    24    1
    26     7    25    1
    27     8    26    1
    28    12    27    1
    29    14    28    1
    30    15    29    1
    31    16    30    1
