
     RDKit          3D

 72 74  0  0  0  0  0  0  0  0999 V2000
    6.6647    1.5786    1.4600 C   0  0  0  0  0  0  0  0  0  0  0  0
    7.1856    0.5834    0.4761 C   0  0  0  0  0  0  0  0  0  0  0  0
    8.5011    0.7638    0.0440 C   0  0  0  0  0  0  0  0  0  0  0  0
    9.0322   -0.1149   -0.8592 C   0  0  0  0  0  0  0  0  0  0  0  0
   10.4267   -0.0066   -1.3829 C   0  0  0  0  0  0  0  0  0  0  0  0
   10.4504    0.8276   -2.4900 F   0  0  0  0  0  0  0  0  0  0  0  0
   10.9334   -1.2521   -1.7084 F   0  0  0  0  0  0  0  0  0  0  0  0
   11.2372    0.5388   -0.4272 F   0  0  0  0  0  0  0  0  0  0  0  0
    8.2200   -1.1457   -1.2966 C   0  0  0  0  0  0  0  0  0  0  0  0
    6.9684   -1.2941   -0.8677 N   0  0  0  0  0  0  0  0  0  0  0  0
    6.4051   -0.4487    0.0240 C   0  0  0  0  0  0  0  0  0  0  0  0
    5.0187   -0.6177    0.4958 C   0  0  0  0  0  0  0  0  0  0  0  0
    4.0778    0.3826   -0.1425 C   0  0  0  0  0  0  0  0  0  0  0  0
    2.6428    0.1947    0.3624 C   0  0  0  0  0  0  0  0  0  0  0  0
    1.7132    1.1725   -0.2636 C   0  0  0  0  0  0  0  0  0  0  0  0
    0.3100    0.7388   -0.4590 C   0  0  0  0  0  0  0  0  0  0  0  0
    0.0644   -0.6661   -0.4622 N   0  0  0  0  0  0  0  0  0  0  0  0
   -1.6500   -1.0085   -0.4265 S   0  0  0  0  0  6  0  0  0  0  0  0
   -2.2114   -0.5347   -1.7049 O   0  0  0  0  0  0  0  0  0  0  0  0
   -1.7341   -2.5297   -0.4218 O   0  0  0  0  0  0  0  0  0  0  0  0
   -2.3969   -0.3898    1.0079 C   0  0  0  0  0  0  0  0  0  0  0  0
   -3.8999   -0.6319    1.1267 C   0  0  2  0  0  0  0  0  0  0  0  0
   -4.0948   -2.1514    1.1103 C   0  0  0  0  0  0  0  0  0  0  0  0
   -4.6697    0.0362    0.0730 C   0  0  0  0  0  0  0  0  0  0  0  0
   -6.1481   -0.1232    0.1857 C   0  0  2  0  0  0  0  0  0  0  0  0
   -6.7258   -1.4845    0.1206 C   0  0  0  0  0  0  0  0  0  0  0  0
   -6.8384    0.6869   -0.8976 C   0  0  0  0  0  0  0  0  0  0  0  0
   -6.6204    0.3928   -2.1946 N   0  0  0  0  0  0  0  0  0  0  0  0
   -7.2106    1.0827   -3.1754 C   0  0  0  0  0  0  0  0  0  0  0  0
   -8.0587    2.1150   -2.8571 C   0  0  0  0  0  0  0  0  0  0  0  0
   -8.6900    2.8564   -3.8035 F   0  0  0  0  0  0  0  0  0  0  0  0
   -8.2830    2.4174   -1.5368 C   0  0  0  0  0  0  0  0  0  0  0  0
   -7.6602    1.6870   -0.5986 N   0  0  0  0  0  0  0  0  0  0  0  0
   -4.2942   -0.1451    2.4186 N   0  0  0  0  0  0  0  0  0  0  0  0
   -4.8537   -0.9651    3.3212 O   0  0  0  0  0  0  0  0  0  0  0  0
   -4.0932    1.2081    2.7472 C   0  0  0  0  0  0  0  0  0  0  0  0
   -4.4182    1.6969    3.8665 O   0  0  0  0  0  0  0  0  0  0  0  0
    0.7557   -1.3284    0.5957 C   0  0  0  0  0  0  0  0  0  0  0  0
    2.2463   -1.2372    0.2383 C   0  0  0  0  0  0  0  0  0  0  0  0
    6.3863    2.4902    0.8861 H   0  0  0  0  0  0  0  0  0  0  0  0
    5.8341    1.1244    1.9993 H   0  0  0  0  0  0  0  0  0  0  0  0
    7.4808    1.8979    2.1437 H   0  0  0  0  0  0  0  0  0  0  0  0
    9.0953    1.5816    0.4118 H   0  0  0  0  0  0  0  0  0  0  0  0
    8.6469   -1.8353   -2.0090 H   0  0  0  0  0  0  0  0  0  0  0  0
    4.6864   -1.6372    0.1290 H   0  0  0  0  0  0  0  0  0  0  0  0
    4.9329   -0.6219    1.5954 H   0  0  0  0  0  0  0  0  0  0  0  0
    4.0985    0.2697   -1.2421 H   0  0  0  0  0  0  0  0  0  0  0  0
    4.4035    1.4008    0.0971 H   0  0  0  0  0  0  0  0  0  0  0  0
    2.7003    0.4597    1.4607 H   0  0  0  0  0  0  0  0  0  0  0  0
    1.7739    2.1403    0.3079 H   0  0  0  0  0  0  0  0  0  0  0  0
    2.1415    1.4145   -1.2762 H   0  0  0  0  0  0  0  0  0  0  0  0
   -0.3022    1.2485    0.3351 H   0  0  0  0  0  0  0  0  0  0  0  0
   -0.0781    1.1439   -1.4222 H   0  0  0  0  0  0  0  0  0  0  0  0
   -1.9441   -0.8865    1.8914 H   0  0  0  0  0  0  0  0  0  0  0  0
   -2.1532    0.6902    1.1118 H   0  0  0  0  0  0  0  0  0  0  0  0
   -3.2000   -2.5375    1.7204 H   0  0  0  0  0  0  0  0  0  0  0  0
   -4.9607   -2.5001    1.6532 H   0  0  0  0  0  0  0  0  0  0  0  0
   -3.9685   -2.6002    0.1297 H   0  0  0  0  0  0  0  0  0  0  0  0
   -4.4832    1.1428    0.1559 H   0  0  0  0  0  0  0  0  0  0  0  0
   -4.4160   -0.3116   -0.9647 H   0  0  0  0  0  0  0  0  0  0  0  0
   -6.5179    0.3935    1.1454 H   0  0  0  0  0  0  0  0  0  0  0  0
   -7.7123   -1.4105   -0.4693 H   0  0  0  0  0  0  0  0  0  0  0  0
   -6.1681   -2.2610   -0.3823 H   0  0  0  0  0  0  0  0  0  0  0  0
   -7.0740   -1.7863    1.1365 H   0  0  0  0  0  0  0  0  0  0  0  0
   -7.0497    0.8641   -4.2144 H   0  0  0  0  0  0  0  0  0  0  0  0
   -8.9542    3.2349   -1.2421 H   0  0  0  0  0  0  0  0  0  0  0  0
   -4.1811   -1.1342    4.0377 H   0  0  0  0  0  0  0  0  0  0  0  0
   -3.6465    1.8705    2.0299 H   0  0  0  0  0  0  0  0  0  0  0  0
    0.5230   -2.4101    0.5960 H   0  0  0  0  0  0  0  0  0  0  0  0
    0.6357   -0.8723    1.5915 H   0  0  0  0  0  0  0  0  0  0  0  0
    2.3309   -1.5384   -0.8249 H   0  0  0  0  0  0  0  0  0  0  0  0
    2.8374   -1.9092    0.8961 H   0  0  0  0  0  0  0  0  0  0  0  0
  1  2  1  0
  2  3  2  0
  3  4  1  0
  4  5  1  0
  5  6  1  0
  5  7  1  0
  5  8  1  0
  4  9  2  0
  9 10  1  0
 10 11  2  0
 11 12  1  0
 12 13  1  0
 13 14  1  0
 14 15  1  0
 15 16  1  0
 16 17  1  0
 17 18  1  0
 18 19  2  0
 18 20  2  0
 18 21  1  0
 21 22  1  0
 22 23  1  0
 22 24  1  0
 24 25  1  0
 25 26  1  0
 25 27  1  0
 27 28  2  0
 28 29  1  0
 29 30  2  0
 30 31  1  0
 30 32  1  0
 32 33  2  0
 22 34  1  1
 34 35  1  0
 34 36  1  0
 36 37  2  0
 17 38  1  0
 38 39  1  0
 11  2  1  0
 39 14  1  0
 33 27  1  0
  1 40  1  0
  1 41  1  0
  1 42  1  0
  3 43  1  0
  9 44  1  0
 12 45  1  0
 12 46  1  0
 13 47  1  0
 13 48  1  0
 14 49  1  0
 15 50  1  0
 15 51  1  0
 16 52  1  0
 16 53  1  0
 21 54  1  0
 21 55  1  0
 23 56  1  0
 23 57  1  0
 23 58  1  0
 24 59  1  0
 24 60  1  0
 25 61  1  1
 26 62  1  0
 26 63  1  0
 26 64  1  0
 29 65  1  0
 32 66  1  0
 35 67  1  0
 36 68  1  0
 38 69  1  0
 38 70  1  0
 39 71  1  0
 39 72  1  0
M  END
$$$$
