@<TRIPOS>MOLECULE
*****
 72 74 0 0 0
SMALL
GASTEIGER

@<TRIPOS>ATOM
      1 C           6.6647    1.5786    1.4600 C.3     1  UNL1       -0.0380
      2 C           7.1856    0.5834    0.4761 C.ar    1  UNL1       -0.0286
      3 C           8.5011    0.7638    0.0440 C.ar    1  UNL1       -0.0440
      4 C           9.0322   -0.1149   -0.8592 C.ar    1  UNL1        0.0731
      5 C          10.4267   -0.0066   -1.3829 C.3     1  UNL1        0.4188
      6 F          10.4504    0.8276   -2.4900 F       1  UNL1       -0.1658
      7 F          10.9334   -1.2521   -1.7084 F       1  UNL1       -0.1658
      8 F          11.2372    0.5388   -0.4272 F       1  UNL1       -0.1658
      9 C           8.2200   -1.1457   -1.2966 C.ar    1  UNL1        0.0395
     10 N           6.9684   -1.2941   -0.8677 N.ar    1  UNL1       -0.2591
     11 C           6.4051   -0.4487    0.0240 C.ar    1  UNL1        0.0442
     12 C           5.0187   -0.6177    0.4958 C.3     1  UNL1       -0.0099
     13 C           4.0778    0.3826   -0.1425 C.3     1  UNL1       -0.0447
     14 C           2.6428    0.1947    0.3624 C.3     1  UNL1       -0.0383
     15 C           1.7132    1.1725   -0.2636 C.3     1  UNL1       -0.0357
     16 C           0.3100    0.7388   -0.4590 C.3     1  UNL1        0.0204
     17 N           0.0644   -0.6661   -0.4622 N.3     1  UNL1       -0.1810
     18 S          -1.6500   -1.0085   -0.4265 S.O2    1  UNL1        0.0339
     19 O          -2.2114   -0.5347   -1.7049 O.2     1  UNL1       -0.1580
     20 O          -1.7341   -2.5297   -0.4218 O.2     1  UNL1       -0.1580
     21 C          -2.3969   -0.3898    1.0079 C.3     1  UNL1        0.1053
     22 C          -3.8999   -0.6319    1.1267 C.3     1  UNL1        0.0821
     23 C          -4.0948   -2.1514    1.1103 C.3     1  UNL1       -0.0396
     24 C          -4.6697    0.0362    0.0730 C.3     1  UNL1       -0.0183
     25 C          -6.1481   -0.1232    0.1857 C.3     1  UNL1        0.0182
     26 C          -6.7258   -1.4845    0.1206 C.3     1  UNL1       -0.0554
     27 C          -6.8384    0.6869   -0.8976 C.ar    1  UNL1        0.1320
     28 N          -6.6204    0.3928   -2.1946 N.ar    1  UNL1       -0.2372
     29 C          -7.2106    1.0827   -3.1754 C.ar    1  UNL1        0.0663
     30 C          -8.0587    2.1150   -2.8571 C.ar    1  UNL1        0.1594
     31 F          -8.6900    2.8564   -3.8035 F       1  UNL1       -0.2023
     32 C          -8.2830    2.4174   -1.5368 C.ar    1  UNL1        0.0663
     33 N          -7.6602    1.6870   -0.5986 N.ar    1  UNL1       -0.2372
     34 N          -4.2942   -0.1451    2.4186 N.am    1  UNL1       -0.1788
     35 O          -4.8537   -0.9651    3.3212 O.3     1  UNL1       -0.2921
     36 C          -4.0932    1.2081    2.7472 C.2     1  UNL1        0.2256
     37 O          -4.4182    1.6969    3.8665 O.2     1  UNL1       -0.2772
     38 C           0.7557   -1.3284    0.5957 C.3     1  UNL1        0.0204
     39 C           2.2463   -1.2372    0.2383 C.3     1  UNL1       -0.0357
     40 H           6.3863    2.4902    0.8861 H       1  UNL1        0.0278
     41 H           5.8341    1.1244    1.9993 H       1  UNL1        0.0278
     42 H           7.4808    1.8979    2.1437 H       1  UNL1        0.0278
     43 H           9.0953    1.5816    0.4118 H       1  UNL1        0.0627
     44 H           8.6469   -1.8353   -2.0090 H       1  UNL1        0.0835
     45 H           4.6864   -1.6372    0.1290 H       1  UNL1        0.0328
     46 H           4.9329   -0.6219    1.5954 H       1  UNL1        0.0328
     47 H           4.0985    0.2697   -1.2421 H       1  UNL1        0.0272
     48 H           4.4035    1.4008    0.0971 H       1  UNL1        0.0272
     49 H           2.7003    0.4597    1.4607 H       1  UNL1        0.0302
     50 H           1.7739    2.1403    0.3079 H       1  UNL1        0.0281
     51 H           2.1415    1.4145   -1.2762 H       1  UNL1        0.0281
     52 H          -0.3022    1.2485    0.3351 H       1  UNL1        0.0444
     53 H          -0.0781    1.1439   -1.4222 H       1  UNL1        0.0444
     54 H          -1.9441   -0.8865    1.8914 H       1  UNL1        0.0538
     55 H          -2.1532    0.6902    1.1118 H       1  UNL1        0.0538
     56 H          -3.2000   -2.5375    1.7204 H       1  UNL1        0.0252
     57 H          -4.9607   -2.5001    1.6532 H       1  UNL1        0.0252
     58 H          -3.9685   -2.6002    0.1297 H       1  UNL1        0.0252
     59 H          -4.4832    1.1428    0.1559 H       1  UNL1        0.0294
     60 H          -4.4160   -0.3116   -0.9647 H       1  UNL1        0.0294
     61 H          -6.5179    0.3935    1.1454 H       1  UNL1        0.0377
     62 H          -7.7123   -1.4105   -0.4693 H       1  UNL1        0.0236
     63 H          -6.1681   -2.2610   -0.3823 H       1  UNL1        0.0236
     64 H          -7.0740   -1.7863    1.1365 H       1  UNL1        0.0236
     65 H          -7.0497    0.8641   -4.2144 H       1  UNL1        0.0860
     66 H          -8.9542    3.2349   -1.2421 H       1  UNL1        0.0860
     67 H          -4.1811   -1.1342    4.0377 H       1  UNL1        0.2417
     68 H          -3.6465    1.8705    2.0299 H       1  UNL1        0.1274
     69 H           0.5230   -2.4101    0.5960 H       1  UNL1        0.0444
     70 H           0.6357   -0.8723    1.5915 H       1  UNL1        0.0444
     71 H           2.3309   -1.5384   -0.8249 H       1  UNL1        0.0281
     72 H           2.8374   -1.9092    0.8961 H       1  UNL1        0.0281
@<TRIPOS>BOND
     1     1     2    1
     2     2     3   ar
     3     3     4   ar
     4     4     5    1
     5     5     6    1
     6     5     7    1
     7     5     8    1
     8     4     9   ar
     9     9    10   ar
    10    10    11   ar
    11    11    12    1
    12    12    13    1
    13    13    14    1
    14    14    15    1
    15    15    16    1
    16    16    17    1
    17    17    18    1
    18    18    19    2
    19    18    20    2
    20    18    21    1
    21    21    22    1
    22    22    23    1
    23    22    24    1
    24    24    25    1
    25    25    26    1
    26    25    27    1
    27    27    28   ar
    28    28    29   ar
    29    29    30   ar
    30    30    31    1
    31    30    32   ar
    32    32    33   ar
    33    22    34    1
    34    34    35    1
    35    34    36   am
    36    36    37    2
    37    17    38    1
    38    38    39    1
    39    11     2   ar
    40    39    14    1
    41    33    27   ar
    42     1    40    1
    43     1    41    1
    44     1    42    1
    45     3    43    1
    46     9    44    1
    47    12    45    1
    48    12    46    1
    49    13    47    1
    50    13    48    1
    51    14    49    1
    52    15    50    1
    53    15    51    1
    54    16    52    1
    55    16    53    1
    56    21    54    1
    57    21    55    1
    58    23    56    1
    59    23    57    1
    60    23    58    1
    61    24    59    1
    62    24    60    1
    63    25    61    1
    64    26    62    1
    65    26    63    1
    66    26    64    1
    67    29    65    1
    68    32    66    1
    69    35    67    1
    70    36    68    1
    71    38    69    1
    72    38    70    1
    73    39    71    1
    74    39    72    1
