@<TRIPOS>MOLECULE
*****
 52 57 0 0 0
SMALL
GASTEIGER

@<TRIPOS>ATOM
      1 C           4.4585    1.1136    2.7403 C.3     1  UNL1       -0.0361
      2 C           3.7796    0.5241    1.5782 C.ar    1  UNL1       -0.0041
      3 C           2.4714    0.8753    1.3287 C.ar    1  UNL1       -0.0324
      4 C           1.7534    0.3815    0.2731 C.ar    1  UNL1        0.0545
      5 N           0.4027    0.7210   -0.0233 N.am    1  UNL1       -0.2529
      6 C          -0.4308    1.6309    0.6834 C.2     1  UNL1        0.2553
      7 O          -0.1487    2.3091    1.7202 O.2     1  UNL1       -0.2695
      8 C          -1.7566    1.7375    0.0727 C.ar    1  UNL1        0.0834
      9 C          -2.9915    2.3529    0.1569 C.ar    1  UNL1        0.0785
     10 C          -3.4328    3.3403    1.1786 C.3     1  UNL1        0.0039
     11 C          -4.0788    2.8455    2.4271 C.3     1  UNL1       -0.0441
     12 C          -4.8636    3.6214    1.3863 C.3     1  UNL1       -0.0441
     13 N          -3.6948    1.8519   -0.8952 N.ar    1  UNL1       -0.1751
     14 N          -2.9398    0.9979   -1.5637 N.ar    1  UNL1       -0.2682
     15 C          -3.3919    0.2822   -2.7489 C.3     1  UNL1        0.0306
     16 C          -1.7284    0.8939   -1.0002 C.ar    1  UNL1        0.0765
     17 C          -0.4153    0.2113   -1.1107 C.3     1  UNL1        0.0988
     18 C          -0.7032   -1.2322   -0.7583 C.ar    1  UNL1       -0.0207
     19 C          -0.6218   -2.2175   -1.7104 C.ar    1  UNL1       -0.0550
     20 C          -0.8926   -3.5145   -1.3412 C.ar    1  UNL1       -0.0431
     21 C          -1.2426   -3.8727   -0.0580 C.ar    1  UNL1        0.0410
     22 CL         -1.5865   -5.5178    0.4119 Cl      1  UNL1       -0.0835
     23 C          -1.3155   -2.8601    0.8745 C.ar    1  UNL1       -0.0431
     24 C          -1.0516   -1.5804    0.5245 C.ar    1  UNL1       -0.0550
     25 C           2.4178   -0.5093   -0.5537 C.ar    1  UNL1        0.0344
     26 N           3.7030   -0.8720   -0.3322 N.ar    1  UNL1       -0.2823
     27 C           4.5364   -1.7122   -0.9982 C.ar    1  UNL1        0.1688
     28 C           4.1741   -2.4746   -2.2177 C.3     1  UNL1        0.1499
     29 F           3.6516   -3.7090   -1.8455 F       1  UNL1       -0.2407
     30 N           5.6918   -1.6924   -0.3363 N.ar    1  UNL1       -0.1310
     31 N           5.6104   -0.8790    0.7075 N.ar    1  UNL1       -0.1291
     32 C           4.3646   -0.3644    0.7109 C.ar    1  UNL1        0.1642
     33 H           4.0640    2.1438    2.8641 H       1  UNL1        0.0279
     34 H           5.5525    1.2185    2.6030 H       1  UNL1        0.0279
     35 H           4.2292    0.4766    3.6437 H       1  UNL1        0.0279
     36 H           1.9980    1.5688    1.9969 H       1  UNL1        0.0640
     37 H          -2.7535    4.2242    1.3458 H       1  UNL1        0.0365
     38 H          -3.8601    3.3565    3.4001 H       1  UNL1        0.0272
     39 H          -4.3223    1.7812    2.5202 H       1  UNL1        0.0272
     40 H          -5.5625    3.0314    0.7411 H       1  UNL1        0.0272
     41 H          -5.1904    4.6523    1.6638 H       1  UNL1        0.0272
     42 H          -3.2426    0.8729   -3.6765 H       1  UNL1        0.0473
     43 H          -2.8113   -0.6601   -2.8918 H       1  UNL1        0.0473
     44 H          -4.4702    0.0273   -2.6659 H       1  UNL1        0.0473
     45 H           0.0498    0.2851   -2.0899 H       1  UNL1        0.0620
     46 H          -0.3458   -1.9392   -2.7246 H       1  UNL1        0.0621
     47 H          -0.8353   -4.3100   -2.0737 H       1  UNL1        0.0632
     48 H          -1.5834   -3.0812    1.8889 H       1  UNL1        0.0632
     49 H          -1.1093   -0.7732    1.2655 H       1  UNL1        0.0621
     50 H           1.9427   -0.9465   -1.4043 H       1  UNL1        0.0833
     51 H           5.0884   -2.6344   -2.8494 H       1  UNL1        0.0697
     52 H           3.4338   -1.9762   -2.8383 H       1  UNL1        0.0697
@<TRIPOS>BOND
     1     1     2    1
     2     2     3   ar
     3     3     4   ar
     4     4     5    1
     5     5     6   am
     6     6     7    2
     7     6     8    1
     8     8     9   ar
     9     9    10    1
    10    10    11    1
    11    11    12    1
    12     9    13   ar
    13    13    14   ar
    14    14    15    1
    15    14    16   ar
    16    16    17    1
    17    17    18    1
    18    18    19   ar
    19    19    20   ar
    20    20    21   ar
    21    21    22    1
    22    21    23   ar
    23    23    24   ar
    24     4    25   ar
    25    25    26   ar
    26    26    27   ar
    27    27    28    1
    28    28    29    1
    29    27    30   ar
    30    30    31   ar
    31    31    32   ar
    32    32     2   ar
    33    17     5    1
    34    24    18   ar
    35    32    26   ar
    36    16     8   ar
    37    12    10    1
    38     1    33    1
    39     1    34    1
    40     1    35    1
    41     3    36    1
    42    10    37    1
    43    11    38    1
    44    11    39    1
    45    12    40    1
    46    12    41    1
    47    15    42    1
    48    15    43    1
    49    15    44    1
    50    17    45    1
    51    19    46    1
    52    20    47    1
    53    23    48    1
    54    24    49    1
    55    25    50    1
    56    28    51    1
    57    28    52    1
