@<TRIPOS>MOLECULE
*****
 51 54 0 0 0
SMALL
GASTEIGER

@<TRIPOS>ATOM
      1 C          -0.7154   -0.9095    0.3476 C.3     1  UNL1       -0.0224
      2 C          -1.4933   -2.1625    0.4235 C.3     1  UNL1       -0.0462
      3 C          -2.9253   -1.7072    0.5145 C.3     1  UNL1       -0.0229
      4 C          -2.9026   -0.1852    0.1964 C.3     1  UNL1        0.0751
      5 O          -3.9877    0.0616   -0.6359 O.3     1  UNL1       -0.3877
      6 C          -2.9752    0.5518    1.4846 C.3     1  UNL1       -0.0260
      7 C          -2.9877    2.0409    1.4218 C.3     1  UNL1       -0.0626
      8 C          -1.5895   -0.0076   -0.4993 C.3     1  UNL1        0.0209
      9 C          -1.6679   -0.5686   -1.9288 C.3     1  UNL1       -0.0439
     10 C          -2.5501    0.3499   -2.7794 C.3     1  UNL1       -0.0644
     11 C          -0.9949    1.3183   -0.5171 C.2     1  UNL1       -0.0746
     12 C           0.3386    1.4258   -0.3451 C.2     1  UNL1       -0.0613
     13 C           1.2875    0.3043   -0.1359 C.2     1  UNL1       -0.0408
     14 C           2.5667    0.5520    0.0878 C.2     1  UNL1       -0.0402
     15 C           3.0633    1.9284    0.1336 C.3     1  UNL1       -0.0202
     16 C           4.5384    2.0011    0.3507 C.3     1  UNL1        0.0139
     17 C           5.2361    0.8641   -0.2450 C.2     1  UNL1        0.1567
     18 O           6.2245    0.9620   -1.0525 O.2     1  UNL1       -0.2927
     19 C           4.7600   -0.4821    0.1167 C.2     1  UNL1       -0.0158
     20 C           3.4470   -0.6002    0.2724 C.2     1  UNL1       -0.0406
     21 C           2.9073   -1.9164    0.6327 C.3     1  UNL1       -0.0268
     22 C           1.4252   -1.9161    0.8245 C.3     1  UNL1       -0.0419
     23 C           0.6794   -1.0659   -0.2018 C.3     1  UNL1       -0.0116
     24 H          -0.6190   -0.4932    1.3658 H       1  UNL1        0.0316
     25 H          -1.2128   -2.8183    1.2827 H       1  UNL1        0.0269
     26 H          -1.4173   -2.7940   -0.5097 H       1  UNL1        0.0269
     27 H          -3.2579   -1.8388    1.5635 H       1  UNL1        0.0293
     28 H          -3.5814   -2.2316   -0.2107 H       1  UNL1        0.0293
     29 H          -4.7055   -0.5821   -0.4357 H       1  UNL1        0.2102
     30 H          -2.2166    0.2167    2.2496 H       1  UNL1        0.0290
     31 H          -3.9533    0.2672    2.0169 H       1  UNL1        0.0290
     32 H          -3.5918    2.4718    2.2919 H       1  UNL1        0.0231
     33 H          -1.9909    2.4953    1.5746 H       1  UNL1        0.0231
     34 H          -3.4464    2.3641    0.4678 H       1  UNL1        0.0231
     35 H          -0.6846   -0.6349   -2.4081 H       1  UNL1        0.0272
     36 H          -2.2039   -1.5306   -1.8645 H       1  UNL1        0.0272
     37 H          -2.1119    0.4304   -3.8074 H       1  UNL1        0.0230
     38 H          -3.5583   -0.0853   -2.9282 H       1  UNL1        0.0230
     39 H          -2.7009    1.3280   -2.3031 H       1  UNL1        0.0230
     40 H          -1.4209    2.2772   -0.6669 H       1  UNL1        0.0579
     41 H           0.8321    2.4144   -0.3522 H       1  UNL1        0.0618
     42 H           2.4850    2.5925    0.8034 H       1  UNL1        0.0317
     43 H           2.8623    2.3482   -0.8900 H       1  UNL1        0.0317
     44 H           4.9151    2.9172   -0.1872 H       1  UNL1        0.0348
     45 H           4.8175    2.1868    1.4113 H       1  UNL1        0.0348
     46 H           5.4839   -1.3050    0.2364 H       1  UNL1        0.0655
     47 H           3.2227   -2.6821   -0.1246 H       1  UNL1        0.0313
     48 H           3.3484   -2.2642    1.6052 H       1  UNL1        0.0313
     49 H           1.0766   -2.9664    0.7500 H       1  UNL1        0.0274
     50 H           1.2049   -1.4746    1.8193 H       1  UNL1        0.0274
     51 H           0.7406   -1.4481   -1.2157 H       1  UNL1        0.0352
@<TRIPOS>BOND
     1     1     2    1
     2     2     3    1
     3     3     4    1
     4     4     5    1
     5     4     6    1
     6     6     7    1
     7     4     8    1
     8     8     9    1
     9     9    10    1
    10     8    11    1
    11    11    12    2
    12    12    13    1
    13    13    14    2
    14    14    15    1
    15    15    16    1
    16    16    17    1
    17    17    18    2
    18    17    19    1
    19    19    20    2
    20    20    21    1
    21    21    22    1
    22    22    23    1
    23     8     1    1
    24    23    13    1
    25    23     1    1
    26    20    14    1
    27     1    24    1
    28     2    25    1
    29     2    26    1
    30     3    27    1
    31     3    28    1
    32     5    29    1
    33     6    30    1
    34     6    31    1
    35     7    32    1
    36     7    33    1
    37     7    34    1
    38     9    35    1
    39     9    36    1
    40    10    37    1
    41    10    38    1
    42    10    39    1
    43    11    40    1
    44    12    41    1
    45    15    42    1
    46    15    43    1
    47    16    44    1
    48    16    45    1
    49    19    46    1
    50    21    47    1
    51    21    48    1
    52    22    49    1
    53    22    50    1
    54    23    51    1
