
     RDKit          3D

 60 63  0  0  0  0  0  0  0  0999 V2000
   -1.5323   -0.9469   -0.2157 C   0  0  2  0  0  0  0  0  0  0  0  0
   -2.5222   -1.5452   -1.1308 C   0  0  0  0  0  0  0  0  0  0  0  0
   -3.7063   -1.6503   -0.1554 C   0  0  0  0  0  0  0  0  0  0  0  0
   -3.6588   -0.3152    0.5614 C   0  0  1  0  0  0  0  0  0  0  0  0
   -4.6097    0.5221   -0.0737 O   0  0  0  0  0  0  0  0  0  0  0  0
   -5.9599    0.2570   -0.1582 C   0  0  0  0  0  0  0  0  0  0  0  0
   -6.8856    1.2065   -0.8519 C   0  0  0  0  0  0  0  0  0  0  0  0
   -6.4350   -0.7831    0.3442 O   0  0  0  0  0  0  0  0  0  0  0  0
   -4.0349   -0.4468    1.9653 C   0  0  0  0  0  0  0  0  0  0  0  0
   -4.3591   -0.5614    3.1047 C   0  0  0  0  0  0  0  0  0  0  0  0
   -2.3003    0.2499    0.3628 C   0  0  2  0  0  0  0  0  0  0  0  0
   -2.3341    1.4255   -0.5491 C   0  0  0  0  0  0  0  0  0  0  0  0
   -1.5441    0.5600    1.6274 C   0  0  0  0  0  0  0  0  0  0  0  0
   -0.1344    0.9209    1.3166 C   0  0  0  0  0  0  0  0  0  0  0  0
    0.5803   -0.0838    0.4425 C   0  0  2  0  0  0  0  0  0  0  0  0
    1.9223    0.4429    0.0478 C   0  0  1  0  0  0  0  0  0  0  0  0
    2.9009    0.3516    1.1704 C   0  0  0  0  0  0  0  0  0  0  0  0
    3.8060   -0.8603    1.0973 C   0  0  0  0  0  0  0  0  0  0  0  0
    4.6017   -0.7069   -0.1868 C   0  0  2  0  0  0  0  0  0  0  0  0
    5.4204    0.4418   -0.1670 O   0  0  0  0  0  0  0  0  0  0  0  0
    6.8083    0.3599   -0.2022 C   0  0  0  0  0  0  0  0  0  0  0  0
    7.6416    1.5822   -0.1802 C   0  0  0  0  0  0  0  0  0  0  0  0
    7.2893   -0.7823   -0.2521 O   0  0  0  0  0  0  0  0  0  0  0  0
    3.6873   -0.7572   -1.3373 C   0  0  0  0  0  0  0  0  0  0  0  0
    2.4858   -0.2168   -1.1630 C   0  0  0  0  0  0  0  0  0  0  0  0
    1.5275   -0.2554   -2.3292 C   0  0  0  0  0  0  0  0  0  0  0  0
    0.3990   -1.1668   -1.8266 C   0  0  0  0  0  0  0  0  0  0  0  0
   -0.2969   -0.3702   -0.7728 C   0  0  1  0  0  0  0  0  0  0  0  0
   -1.3706   -1.6432    0.6294 H   0  0  0  0  0  0  0  0  0  0  0  0
   -2.8410   -0.9215   -1.9694 H   0  0  0  0  0  0  0  0  0  0  0  0
   -2.2137   -2.5645   -1.4643 H   0  0  0  0  0  0  0  0  0  0  0  0
   -4.6318   -1.8517   -0.6904 H   0  0  0  0  0  0  0  0  0  0  0  0
   -3.4160   -2.4088    0.6031 H   0  0  0  0  0  0  0  0  0  0  0  0
   -7.5442    1.7464   -0.1625 H   0  0  0  0  0  0  0  0  0  0  0  0
   -6.3002    1.8874   -1.4965 H   0  0  0  0  0  0  0  0  0  0  0  0
   -7.4857    0.5875   -1.5810 H   0  0  0  0  0  0  0  0  0  0  0  0
   -4.6440   -0.6727    4.1182 H   0  0  0  0  0  0  0  0  0  0  0  0
   -3.2872    1.9812   -0.3068 H   0  0  0  0  0  0  0  0  0  0  0  0
   -1.5406    2.1818   -0.3824 H   0  0  0  0  0  0  0  0  0  0  0  0
   -2.3994    1.2151   -1.6195 H   0  0  0  0  0  0  0  0  0  0  0  0
   -2.0262    1.4122    2.1076 H   0  0  0  0  0  0  0  0  0  0  0  0
   -1.6046   -0.3198    2.2830 H   0  0  0  0  0  0  0  0  0  0  0  0
   -0.0172    1.9555    0.9580 H   0  0  0  0  0  0  0  0  0  0  0  0
    0.4305    0.9009    2.2942 H   0  0  0  0  0  0  0  0  0  0  0  0
    0.6326   -1.0333    1.0149 H   0  0  0  0  0  0  0  0  0  0  0  0
    1.8012    1.5223   -0.2316 H   0  0  0  0  0  0  0  0  0  0  0  0
    2.4026    0.3894    2.1721 H   0  0  0  0  0  0  0  0  0  0  0  0
    3.5720    1.2356    1.1351 H   0  0  0  0  0  0  0  0  0  0  0  0
    4.5296   -0.8006    1.9126 H   0  0  0  0  0  0  0  0  0  0  0  0
    3.2710   -1.8094    1.0589 H   0  0  0  0  0  0  0  0  0  0  0  0
    5.2954   -1.5939   -0.2331 H   0  0  0  0  0  0  0  0  0  0  0  0
    8.1903    1.5780    0.8060 H   0  0  0  0  0  0  0  0  0  0  0  0
    8.3978    1.5488   -1.0001 H   0  0  0  0  0  0  0  0  0  0  0  0
    6.9871    2.4622   -0.2431 H   0  0  0  0  0  0  0  0  0  0  0  0
    3.9275   -1.1988   -2.2990 H   0  0  0  0  0  0  0  0  0  0  0  0
    1.9987   -0.6222   -3.2405 H   0  0  0  0  0  0  0  0  0  0  0  0
    1.0981    0.7768   -2.4116 H   0  0  0  0  0  0  0  0  0  0  0  0
    0.8438   -2.0850   -1.3843 H   0  0  0  0  0  0  0  0  0  0  0  0
   -0.3311   -1.3768   -2.6110 H   0  0  0  0  0  0  0  0  0  0  0  0
   -0.4817    0.6494   -1.2143 H   0  0  0  0  0  0  0  0  0  0  0  0
  1  2  1  0
  2  3  1  0
  3  4  1  0
  4  5  1  0
  5  6  1  0
  6  7  1  0
  6  8  2  0
  4  9  1  1
  9 10  3  0
  4 11  1  0
 11 12  1  6
 11 13  1  0
 13 14  1  0
 14 15  1  0
 15 16  1  0
 16 17  1  0
 17 18  1  0
 18 19  1  0
 19 20  1  0
 20 21  1  0
 21 22  1  0
 21 23  2  0
 19 24  1  0
 24 25  2  0
 25 26  1  0
 26 27  1  0
 27 28  1  0
 11  1  1  0
 28 15  1  0
 28  1  1  0
 25 16  1  0
  1 29  1  1
  2 30  1  0
  2 31  1  0
  3 32  1  0
  3 33  1  0
  7 34  1  0
  7 35  1  0
  7 36  1  0
 10 37  1  0
 12 38  1  0
 12 39  1  0
 12 40  1  0
 13 41  1  0
 13 42  1  0
 14 43  1  0
 14 44  1  0
 15 45  1  1
 16 46  1  6
 17 47  1  0
 17 48  1  0
 18 49  1  0
 18 50  1  0
 19 51  1  6
 22 52  1  0
 22 53  1  0
 22 54  1  0
 24 55  1  0
 26 56  1  0
 26 57  1  0
 27 58  1  0
 27 59  1  0
 28 60  1  6
M  END
$$$$
