@<TRIPOS>MOLECULE
*****
 60 63 0 0 0
SMALL
GASTEIGER

@<TRIPOS>ATOM
      1 C          -1.5323   -0.9469   -0.2157 C.3     1  UNL1       -0.0278
      2 C          -2.5222   -1.5452   -1.1308 C.3     1  UNL1       -0.0447
      3 C          -3.7063   -1.6503   -0.1554 C.3     1  UNL1       -0.0005
      4 C          -3.6588   -0.3152    0.5614 C.3     1  UNL1        0.1784
      5 O          -4.6097    0.5221   -0.0737 O.3     1  UNL1       -0.4447
      6 C          -5.9599    0.2570   -0.1582 C.2     1  UNL1        0.3054
      7 C          -6.8856    1.2065   -0.8519 C.3     1  UNL1        0.0333
      8 O          -6.4350   -0.7831    0.3442 O.2     1  UNL1       -0.2511
      9 C          -4.0349   -0.4468    1.9653 C.1     1  UNL1       -0.0576
     10 C          -4.3591   -0.5614    3.1047 C.1     1  UNL1       -0.1152
     11 C          -2.3003    0.2499    0.3628 C.3     1  UNL1        0.0223
     12 C          -2.3341    1.4255   -0.5491 C.3     1  UNL1       -0.0547
     13 C          -1.5441    0.5600    1.6274 C.3     1  UNL1       -0.0425
     14 C          -0.1344    0.9209    1.3166 C.3     1  UNL1       -0.0487
     15 C           0.5803   -0.0838    0.4425 C.3     1  UNL1       -0.0314
     16 C           1.9223    0.4429    0.0478 C.3     1  UNL1       -0.0166
     17 C           2.9009    0.3516    1.1704 C.3     1  UNL1       -0.0426
     18 C           3.8060   -0.8603    1.0973 C.3     1  UNL1       -0.0114
     19 C           4.6017   -0.7069   -0.1868 C.3     1  UNL1        0.1215
     20 O           5.4204    0.4418   -0.1670 O.3     1  UNL1       -0.4574
     21 C           6.8083    0.3599   -0.2022 C.2     1  UNL1        0.3045
     22 C           7.6416    1.5822   -0.1802 C.3     1  UNL1        0.0333
     23 O           7.2893   -0.7823   -0.2521 O.2     1  UNL1       -0.2511
     24 C           3.6873   -0.7572   -1.3373 C.2     1  UNL1       -0.0445
     25 C           2.4858   -0.2168   -1.1630 C.2     1  UNL1       -0.0667
     26 C           1.5275   -0.2554   -2.3292 C.3     1  UNL1       -0.0311
     27 C           0.3990   -1.1668   -1.8266 C.3     1  UNL1       -0.0460
     28 C          -0.2969   -0.3702   -0.7728 C.3     1  UNL1       -0.0339
     29 H          -1.3706   -1.6432    0.6294 H       1  UNL1        0.0310
     30 H          -2.8410   -0.9215   -1.9694 H       1  UNL1        0.0270
     31 H          -2.2137   -2.5645   -1.4643 H       1  UNL1        0.0270
     32 H          -4.6318   -1.8517   -0.6904 H       1  UNL1        0.0314
     33 H          -3.4160   -2.4088    0.6031 H       1  UNL1        0.0314
     34 H          -7.5442    1.7464   -0.1625 H       1  UNL1        0.0342
     35 H          -6.3002    1.8874   -1.4965 H       1  UNL1        0.0342
     36 H          -7.4857    0.5875   -1.5810 H       1  UNL1        0.0342
     37 H          -4.6440   -0.6727    4.1182 H       1  UNL1        0.1229
     38 H          -3.2872    1.9812   -0.3068 H       1  UNL1        0.0237
     39 H          -1.5406    2.1818   -0.3824 H       1  UNL1        0.0237
     40 H          -2.3994    1.2151   -1.6195 H       1  UNL1        0.0237
     41 H          -2.0262    1.4122    2.1076 H       1  UNL1        0.0272
     42 H          -1.6046   -0.3198    2.2830 H       1  UNL1        0.0272
     43 H          -0.0172    1.9555    0.9580 H       1  UNL1        0.0268
     44 H           0.4305    0.9009    2.2942 H       1  UNL1        0.0268
     45 H           0.6326   -1.0333    1.0149 H       1  UNL1        0.0309
     46 H           1.8012    1.5223   -0.2316 H       1  UNL1        0.0348
     47 H           2.4026    0.3894    2.1721 H       1  UNL1        0.0272
     48 H           3.5720    1.2356    1.1351 H       1  UNL1        0.0272
     49 H           4.5296   -0.8006    1.9126 H       1  UNL1        0.0304
     50 H           3.2710   -1.8094    1.0589 H       1  UNL1        0.0304
     51 H           5.2954   -1.5939   -0.2331 H       1  UNL1        0.0779
     52 H           8.1903    1.5780    0.8060 H       1  UNL1        0.0342
     53 H           8.3978    1.5488   -1.0001 H       1  UNL1        0.0342
     54 H           6.9871    2.4622   -0.2431 H       1  UNL1        0.0342
     55 H           3.9275   -1.1988   -2.2990 H       1  UNL1        0.0608
     56 H           1.9987   -0.6222   -3.2405 H       1  UNL1        0.0310
     57 H           1.0981    0.7768   -2.4116 H       1  UNL1        0.0310
     58 H           0.8438   -2.0850   -1.3843 H       1  UNL1        0.0271
     59 H          -0.3311   -1.3768   -2.6110 H       1  UNL1        0.0271
     60 H          -0.4817    0.6494   -1.2143 H       1  UNL1        0.0307
@<TRIPOS>BOND
     1     1     2    1
     2     2     3    1
     3     3     4    1
     4     4     5    1
     5     5     6    1
     6     6     7    1
     7     6     8    2
     8     4     9    1
     9     9    10    3
    10     4    11    1
    11    11    12    1
    12    11    13    1
    13    13    14    1
    14    14    15    1
    15    15    16    1
    16    16    17    1
    17    17    18    1
    18    18    19    1
    19    19    20    1
    20    20    21    1
    21    21    22    1
    22    21    23    2
    23    19    24    1
    24    24    25    2
    25    25    26    1
    26    26    27    1
    27    27    28    1
    28    11     1    1
    29    28    15    1
    30    28     1    1
    31    25    16    1
    32     1    29    1
    33     2    30    1
    34     2    31    1
    35     3    32    1
    36     3    33    1
    37     7    34    1
    38     7    35    1
    39     7    36    1
    40    10    37    1
    41    12    38    1
    42    12    39    1
    43    12    40    1
    44    13    41    1
    45    13    42    1
    46    14    43    1
    47    14    44    1
    48    15    45    1
    49    16    46    1
    50    17    47    1
    51    17    48    1
    52    18    49    1
    53    18    50    1
    54    19    51    1
    55    22    52    1
    56    22    53    1
    57    22    54    1
    58    24    55    1
    59    26    56    1
    60    26    57    1
    61    27    58    1
    62    27    59    1
    63    28    60    1
