@<TRIPOS>MOLECULE
*****
 68 72 0 0 0
SMALL
GASTEIGER

@<TRIPOS>ATOM
      1 C           8.9431   -2.6206   -1.0513 C.3     1  UNL1        0.0790
      2 O           8.4645   -1.3702   -0.6355 O.3     1  UNL1       -0.4915
      3 C           7.1174   -1.0994   -0.3997 C.ar    1  UNL1        0.1615
      4 C           6.1293   -2.0163   -0.5438 C.ar    1  UNL1       -0.0156
      5 C           4.7971   -1.6897   -0.2951 C.ar    1  UNL1       -0.0474
      6 C           4.4228   -0.4327    0.1046 C.ar    1  UNL1        0.0212
      7 C           3.0513   -0.0297    0.4019 C.ar    1  UNL1        0.1427
      8 C           2.0100   -0.9128    0.3178 C.ar    1  UNL1        0.0236
      9 C           0.6840   -0.5382    0.6045 C.ar    1  UNL1        0.1350
     10 C           0.4827    0.7711    0.9768 C.ar    1  UNL1        0.0815
     11 C           1.5482    1.6179    1.0476 C.ar    1  UNL1        0.3441
     12 O           1.4052    2.8361    1.3873 O.2     1  UNL1       -0.2447
     13 O           2.7787    1.2142    0.7669 O.2     1  UNL1       -0.4218
     14 C          -0.8919    1.2241    1.2864 C.3     1  UNL1        0.0164
     15 C          -1.8005    0.3996    0.4018 C.3     1  UNL1        0.1244
     16 O          -1.2354    0.4858   -0.8953 O.3     1  UNL1       -0.3832
     17 C          -3.1889    0.9466    0.2764 C.3     1  UNL1        0.0921
     18 C          -3.8120    1.3619    1.5680 C.3     1  UNL1       -0.0470
     19 C          -3.1095    2.1615   -0.5906 C.2     1  UNL1        0.1673
     20 O          -2.0403    2.7402   -0.9023 O.2     1  UNL1       -0.2919
     21 C          -4.3673    2.6905   -1.0951 C.2     1  UNL1       -0.0218
     22 C          -5.3774    1.8563   -1.2467 C.2     1  UNL1       -0.0723
     23 C          -5.3479    0.4233   -0.9487 C.3     1  UNL1        0.0133
     24 C          -6.4997    0.0549   -0.0487 C.3     1  UNL1       -0.0537
     25 C          -5.6674   -0.2766   -2.2907 C.3     1  UNL1       -0.0537
     26 C          -4.0136   -0.0513   -0.5229 C.3     1  UNL1        0.0898
     27 O          -3.2598   -0.1809   -1.7294 O.3     1  UNL1       -0.3867
     28 C          -3.9894   -1.4251    0.0906 C.3     1  UNL1       -0.0185
     29 C          -2.5787   -1.9414   -0.0319 C.3     1  UNL1       -0.0077
     30 C          -1.6809   -1.0314    0.7824 C.3     1  UNL1        0.1377
     31 C          -1.9593   -1.3399    2.2329 C.3     1  UNL1       -0.0221
     32 O          -0.3565   -1.4485    0.5135 O.3     1  UNL1       -0.4824
     33 C           5.4514    0.4963    0.2464 C.ar    1  UNL1       -0.0056
     34 C           6.7809    0.2046    0.0088 C.ar    1  UNL1        0.1622
     35 O           7.7956    1.0958    0.1429 O.3     1  UNL1       -0.4914
     36 C           7.7655    2.4470    0.5010 C.3     1  UNL1        0.0790
     37 H          10.0266   -2.5555   -1.2789 H       1  UNL1        0.0660
     38 H           8.4432   -2.9632   -1.9859 H       1  UNL1        0.0660
     39 H           8.8094   -3.4335   -0.3100 H       1  UNL1        0.0660
     40 H           6.3685   -3.0054   -0.8525 H       1  UNL1        0.0655
     41 H           4.0233   -2.4385   -0.4216 H       1  UNL1        0.0626
     42 H           2.2015   -1.9260    0.0238 H       1  UNL1        0.0691
     43 H          -1.0496    1.0066    2.3639 H       1  UNL1        0.0346
     44 H          -0.9683    2.2999    1.1419 H       1  UNL1        0.0346
     45 H          -0.4460    1.0448   -0.9421 H       1  UNL1        0.2104
     46 H          -3.0007    1.4491    2.3266 H       1  UNL1        0.0241
     47 H          -4.2158    2.3947    1.4821 H       1  UNL1        0.0241
     48 H          -4.6418    0.7294    1.9145 H       1  UNL1        0.0241
     49 H          -4.5080    3.7339   -1.3494 H       1  UNL1        0.0649
     50 H          -6.3335    2.2502   -1.6296 H       1  UNL1        0.0579
     51 H          -6.4924   -0.9646    0.3276 H       1  UNL1        0.0239
     52 H          -7.4291    0.1178   -0.7011 H       1  UNL1        0.0239
     53 H          -6.7036    0.7883    0.7527 H       1  UNL1        0.0239
     54 H          -6.7649   -0.0693   -2.4465 H       1  UNL1        0.0239
     55 H          -5.1603    0.2070   -3.1336 H       1  UNL1        0.0239
     56 H          -5.5684   -1.3621   -2.2273 H       1  UNL1        0.0239
     57 H          -3.5885   -0.9147   -2.2831 H       1  UNL1        0.2102
     58 H          -4.6091   -2.0697   -0.5725 H       1  UNL1        0.0295
     59 H          -4.3744   -1.4606    1.1056 H       1  UNL1        0.0295
     60 H          -2.2544   -1.8753   -1.0829 H       1  UNL1        0.0305
     61 H          -2.4589   -2.9669    0.3707 H       1  UNL1        0.0305
     62 H          -2.8938   -0.9029    2.5929 H       1  UNL1        0.0269
     63 H          -1.1339   -1.1298    2.9154 H       1  UNL1        0.0269
     64 H          -2.1246   -2.4514    2.2840 H       1  UNL1        0.0269
     65 H           5.1658    1.4899    0.5595 H       1  UNL1        0.0662
     66 H           8.7734    2.9117    0.3645 H       1  UNL1        0.0660
     67 H           6.9675    2.9612   -0.0790 H       1  UNL1        0.0660
     68 H           7.4896    2.4819    1.5848 H       1  UNL1        0.0660
@<TRIPOS>BOND
     1     1     2    1
     2     2     3    1
     3     3     4   ar
     4     4     5   ar
     5     5     6   ar
     6     6     7    1
     7     7     8   ar
     8     8     9   ar
     9     9    10   ar
    10    10    11   ar
    11    11    12    2
    12    11    13   ar
    13    10    14    1
    14    14    15    1
    15    15    16    1
    16    15    17    1
    17    17    18    1
    18    17    19    1
    19    19    20    2
    20    19    21    1
    21    21    22    2
    22    22    23    1
    23    23    24    1
    24    23    25    1
    25    23    26    1
    26    26    27    1
    27    26    28    1
    28    28    29    1
    29    29    30    1
    30    30    31    1
    31    30    32    1
    32     6    33   ar
    33    33    34   ar
    34    34    35    1
    35    35    36    1
    36    34     3   ar
    37    13     7   ar
    38    30    15    1
    39    32     9    1
    40    26    17    1
    41     1    37    1
    42     1    38    1
    43     1    39    1
    44     4    40    1
    45     5    41    1
    46     8    42    1
    47    14    43    1
    48    14    44    1
    49    16    45    1
    50    18    46    1
    51    18    47    1
    52    18    48    1
    53    21    49    1
    54    22    50    1
    55    24    51    1
    56    24    52    1
    57    24    53    1
    58    25    54    1
    59    25    55    1
    60    25    56    1
    61    27    57    1
    62    28    58    1
    63    28    59    1
    64    29    60    1
    65    29    61    1
    66    31    62    1
    67    31    63    1
    68    31    64    1
    69    33    65    1
    70    36    66    1
    71    36    67    1
    72    36    68    1
