
     RDKit          3D

 68 72  0  0  0  0  0  0  0  0999 V2000
    8.9431   -2.6206   -1.0513 C   0  0  0  0  0  0  0  0  0  0  0  0
    8.4645   -1.3702   -0.6355 O   0  0  0  0  0  0  0  0  0  0  0  0
    7.1174   -1.0994   -0.3997 C   0  0  0  0  0  0  0  0  0  0  0  0
    6.1293   -2.0163   -0.5438 C   0  0  0  0  0  0  0  0  0  0  0  0
    4.7971   -1.6897   -0.2951 C   0  0  0  0  0  0  0  0  0  0  0  0
    4.4228   -0.4327    0.1046 C   0  0  0  0  0  0  0  0  0  0  0  0
    3.0513   -0.0297    0.4019 C   0  0  0  0  0  0  0  0  0  0  0  0
    2.0100   -0.9128    0.3178 C   0  0  0  0  0  0  0  0  0  0  0  0
    0.6840   -0.5382    0.6045 C   0  0  0  0  0  0  0  0  0  0  0  0
    0.4827    0.7711    0.9768 C   0  0  0  0  0  0  0  0  0  0  0  0
    1.5482    1.6179    1.0476 C   0  0  0  0  0  0  0  0  0  0  0  0
    1.4052    2.8361    1.3873 O   0  0  0  0  0  0  0  0  0  0  0  0
    2.7787    1.2142    0.7669 O   0  0  0  0  0  0  0  0  0  0  0  0
   -0.8919    1.2241    1.2864 C   0  0  0  0  0  0  0  0  0  0  0  0
   -1.8005    0.3996    0.4018 C   0  0  2  0  0  0  0  0  0  0  0  0
   -1.2354    0.4858   -0.8953 O   0  0  0  0  0  0  0  0  0  0  0  0
   -3.1889    0.9466    0.2764 C   0  0  1  0  0  0  0  0  0  0  0  0
   -3.8120    1.3619    1.5680 C   0  0  0  0  0  0  0  0  0  0  0  0
   -3.1095    2.1615   -0.5906 C   0  0  0  0  0  0  0  0  0  0  0  0
   -2.0403    2.7402   -0.9023 O   0  0  0  0  0  0  0  0  0  0  0  0
   -4.3673    2.6905   -1.0951 C   0  0  0  0  0  0  0  0  0  0  0  0
   -5.3774    1.8563   -1.2467 C   0  0  0  0  0  0  0  0  0  0  0  0
   -5.3479    0.4233   -0.9487 C   0  0  0  0  0  0  0  0  0  0  0  0
   -6.4997    0.0549   -0.0487 C   0  0  0  0  0  0  0  0  0  0  0  0
   -5.6674   -0.2766   -2.2907 C   0  0  0  0  0  0  0  0  0  0  0  0
   -4.0136   -0.0513   -0.5229 C   0  0  1  0  0  0  0  0  0  0  0  0
   -3.2598   -0.1809   -1.7294 O   0  0  0  0  0  0  0  0  0  0  0  0
   -3.9894   -1.4251    0.0906 C   0  0  0  0  0  0  0  0  0  0  0  0
   -2.5787   -1.9414   -0.0319 C   0  0  0  0  0  0  0  0  0  0  0  0
   -1.6809   -1.0314    0.7824 C   0  0  2  0  0  0  0  0  0  0  0  0
   -1.9593   -1.3399    2.2329 C   0  0  0  0  0  0  0  0  0  0  0  0
   -0.3565   -1.4485    0.5135 O   0  0  0  0  0  0  0  0  0  0  0  0
    5.4514    0.4963    0.2464 C   0  0  0  0  0  0  0  0  0  0  0  0
    6.7809    0.2046    0.0088 C   0  0  0  0  0  0  0  0  0  0  0  0
    7.7956    1.0958    0.1429 O   0  0  0  0  0  0  0  0  0  0  0  0
    7.7655    2.4470    0.5010 C   0  0  0  0  0  0  0  0  0  0  0  0
   10.0266   -2.5555   -1.2789 H   0  0  0  0  0  0  0  0  0  0  0  0
    8.4432   -2.9632   -1.9859 H   0  0  0  0  0  0  0  0  0  0  0  0
    8.8094   -3.4335   -0.3100 H   0  0  0  0  0  0  0  0  0  0  0  0
    6.3685   -3.0054   -0.8525 H   0  0  0  0  0  0  0  0  0  0  0  0
    4.0233   -2.4385   -0.4216 H   0  0  0  0  0  0  0  0  0  0  0  0
    2.2015   -1.9260    0.0238 H   0  0  0  0  0  0  0  0  0  0  0  0
   -1.0496    1.0066    2.3639 H   0  0  0  0  0  0  0  0  0  0  0  0
   -0.9683    2.2999    1.1419 H   0  0  0  0  0  0  0  0  0  0  0  0
   -0.4460    1.0448   -0.9421 H   0  0  0  0  0  0  0  0  0  0  0  0
   -3.0007    1.4491    2.3266 H   0  0  0  0  0  0  0  0  0  0  0  0
   -4.2158    2.3947    1.4821 H   0  0  0  0  0  0  0  0  0  0  0  0
   -4.6418    0.7294    1.9145 H   0  0  0  0  0  0  0  0  0  0  0  0
   -4.5080    3.7339   -1.3494 H   0  0  0  0  0  0  0  0  0  0  0  0
   -6.3335    2.2502   -1.6296 H   0  0  0  0  0  0  0  0  0  0  0  0
   -6.4924   -0.9646    0.3276 H   0  0  0  0  0  0  0  0  0  0  0  0
   -7.4291    0.1178   -0.7011 H   0  0  0  0  0  0  0  0  0  0  0  0
   -6.7036    0.7883    0.7527 H   0  0  0  0  0  0  0  0  0  0  0  0
   -6.7649   -0.0693   -2.4465 H   0  0  0  0  0  0  0  0  0  0  0  0
   -5.1603    0.2070   -3.1336 H   0  0  0  0  0  0  0  0  0  0  0  0
   -5.5684   -1.3621   -2.2273 H   0  0  0  0  0  0  0  0  0  0  0  0
   -3.5885   -0.9147   -2.2831 H   0  0  0  0  0  0  0  0  0  0  0  0
   -4.6091   -2.0697   -0.5725 H   0  0  0  0  0  0  0  0  0  0  0  0
   -4.3744   -1.4606    1.1056 H   0  0  0  0  0  0  0  0  0  0  0  0
   -2.2544   -1.8753   -1.0829 H   0  0  0  0  0  0  0  0  0  0  0  0
   -2.4589   -2.9669    0.3707 H   0  0  0  0  0  0  0  0  0  0  0  0
   -2.8938   -0.9029    2.5929 H   0  0  0  0  0  0  0  0  0  0  0  0
   -1.1339   -1.1298    2.9154 H   0  0  0  0  0  0  0  0  0  0  0  0
   -2.1246   -2.4514    2.2840 H   0  0  0  0  0  0  0  0  0  0  0  0
    5.1658    1.4899    0.5595 H   0  0  0  0  0  0  0  0  0  0  0  0
    8.7734    2.9117    0.3645 H   0  0  0  0  0  0  0  0  0  0  0  0
    6.9675    2.9612   -0.0790 H   0  0  0  0  0  0  0  0  0  0  0  0
    7.4896    2.4819    1.5848 H   0  0  0  0  0  0  0  0  0  0  0  0
  1  2  1  0
  2  3  1  0
  3  4  2  0
  4  5  1  0
  5  6  2  0
  6  7  1  0
  7  8  2  0
  8  9  1  0
  9 10  2  0
 10 11  1  0
 11 12  2  0
 11 13  1  0
 10 14  1  0
 14 15  1  0
 15 16  1  6
 15 17  1  0
 17 18  1  1
 17 19  1  0
 19 20  2  0
 19 21  1  0
 21 22  2  0
 22 23  1  0
 23 24  1  0
 23 25  1  0
 23 26  1  0
 26 27  1  6
 26 28  1  0
 28 29  1  0
 29 30  1  0
 30 31  1  1
 30 32  1  0
  6 33  1  0
 33 34  2  0
 34 35  1  0
 35 36  1  0
 34  3  1  0
 13  7  1  0
 30 15  1  0
 32  9  1  0
 26 17  1  0
  1 37  1  0
  1 38  1  0
  1 39  1  0
  4 40  1  0
  5 41  1  0
  8 42  1  0
 14 43  1  0
 14 44  1  0
 16 45  1  0
 18 46  1  0
 18 47  1  0
 18 48  1  0
 21 49  1  0
 22 50  1  0
 24 51  1  0
 24 52  1  0
 24 53  1  0
 25 54  1  0
 25 55  1  0
 25 56  1  0
 27 57  1  0
 28 58  1  0
 28 59  1  0
 29 60  1  0
 29 61  1  0
 31 62  1  0
 31 63  1  0
 31 64  1  0
 33 65  1  0
 36 66  1  0
 36 67  1  0
 36 68  1  0
M  END
$$$$
