
     RDKit          3D

 56 60  0  0  0  0  0  0  0  0999 V2000
    6.4890   -3.7067   -0.4380 N   0  0  0  0  0  0  0  0  0  0  0  0
    5.0539   -4.5838   -0.1361 S   0  0  0  0  0  6  0  0  0  0  0  0
    4.8654   -5.5716   -1.2555 O   0  0  0  0  0  0  0  0  0  0  0  0
    5.1727   -5.4198    1.1323 O   0  0  0  0  0  0  0  0  0  0  0  0
    3.6375   -3.5681   -0.0377 C   0  0  0  0  0  0  0  0  0  0  0  0
    2.9026   -3.2610   -1.1615 C   0  0  0  0  0  0  0  0  0  0  0  0
    1.7963   -2.4775   -1.0865 C   0  0  0  0  0  0  0  0  0  0  0  0
    1.3258   -1.9355    0.1000 C   0  0  0  0  0  0  0  0  0  0  0  0
    0.1122   -1.0889    0.1682 C   0  0  0  0  0  0  0  0  0  0  0  0
    0.3690    0.3529    0.1353 C   0  0  0  0  0  0  0  0  0  0  0  0
    1.5134    1.0286   -0.2329 C   0  0  0  0  0  0  0  0  0  0  0  0
    1.3093    2.3283   -0.1084 N   0  0  0  0  0  0  0  0  0  0  0  0
    2.2362    3.4101   -0.3937 C   0  0  0  0  0  0  0  0  0  0  0  0
    2.1683    4.6122   -0.5508 N   0  0  0  0  0  0  0  0  0  0  0  0
    3.1485    5.4380   -0.8198 C   0  0  0  0  0  0  0  0  0  0  0  0
    2.9992    6.9260   -1.0082 C   0  0  0  0  0  0  0  0  0  0  0  0
    1.8693    7.4225   -0.9000 O   0  0  0  0  0  0  0  0  0  0  0  0
    4.0782    7.7121   -1.2897 O   0  0  0  0  0  0  0  0  0  0  0  0
    4.4042    4.8323   -0.9321 C   0  0  0  0  0  0  0  0  0  0  0  0
    3.9867    3.0865   -0.6228 S   0  0  0  0  0  0  0  0  0  0  0  0
    0.1064    2.5112    0.3164 N   0  0  0  0  0  0  0  0  0  0  0  0
   -0.5504    1.3420    0.4944 C   0  0  0  0  0  0  0  0  0  0  0  0
   -1.9103    1.1403    0.9659 C   0  0  0  0  0  0  0  0  0  0  0  0
   -2.3491    1.8019    2.0876 C   0  0  0  0  0  0  0  0  0  0  0  0
   -3.6375    1.6572    2.5813 C   0  0  0  0  0  0  0  0  0  0  0  0
   -4.5105    0.8185    1.9205 C   0  0  0  0  0  0  0  0  0  0  0  0
   -4.0668    0.1592    0.7990 C   0  0  0  0  0  0  0  0  0  0  0  0
   -5.0020   -0.7179    0.1051 C   0  0  0  0  0  0  0  0  0  0  0  0
   -4.5265   -1.8390   -0.5563 C   0  0  0  0  0  0  0  0  0  0  0  0
   -5.4465   -2.6397   -1.2146 C   0  0  0  0  0  0  0  0  0  0  0  0
   -6.7915   -2.3412   -1.2183 C   0  0  0  0  0  0  0  0  0  0  0  0
   -7.2650   -1.2216   -0.5575 C   0  0  0  0  0  0  0  0  0  0  0  0
   -6.3496   -0.4363    0.0902 C   0  0  0  0  0  0  0  0  0  0  0  0
   -2.7716    0.3121    0.3135 C   0  0  0  0  0  0  0  0  0  0  0  0
    2.0725   -2.2492    1.2299 C   0  0  0  0  0  0  0  0  0  0  0  0
    3.1976   -3.0429    1.1676 C   0  0  0  0  0  0  0  0  0  0  0  0
    7.2104   -4.2785   -0.9120 H   0  0  0  0  0  0  0  0  0  0  0  0
    6.8309   -3.1457    0.3725 H   0  0  0  0  0  0  0  0  0  0  0  0
    3.2585   -3.6800   -2.1000 H   0  0  0  0  0  0  0  0  0  0  0  0
    1.2386   -2.2526   -1.9815 H   0  0  0  0  0  0  0  0  0  0  0  0
   -0.4532   -1.3302   -0.7839 H   0  0  0  0  0  0  0  0  0  0  0  0
   -0.4673   -1.4161    1.0584 H   0  0  0  0  0  0  0  0  0  0  0  0
    2.4556    0.5942   -0.5778 H   0  0  0  0  0  0  0  0  0  0  0  0
    4.0528    8.7081   -1.0663 H   0  0  0  0  0  0  0  0  0  0  0  0
    5.4048    5.2292   -1.1451 H   0  0  0  0  0  0  0  0  0  0  0  0
   -1.6996    2.4735    2.6436 H   0  0  0  0  0  0  0  0  0  0  0  0
   -3.9422    2.1953    3.4703 H   0  0  0  0  0  0  0  0  0  0  0  0
   -5.5228    0.6951    2.2987 H   0  0  0  0  0  0  0  0  0  0  0  0
   -3.4628   -2.0914   -0.5643 H   0  0  0  0  0  0  0  0  0  0  0  0
   -5.0609   -3.5141   -1.7298 H   0  0  0  0  0  0  0  0  0  0  0  0
   -7.4513   -3.0093   -1.7535 H   0  0  0  0  0  0  0  0  0  0  0  0
   -8.3255   -1.0218   -0.5858 H   0  0  0  0  0  0  0  0  0  0  0  0
   -6.6872    0.4369    0.6102 H   0  0  0  0  0  0  0  0  0  0  0  0
   -2.5345   -0.2512   -0.5738 H   0  0  0  0  0  0  0  0  0  0  0  0
    1.7384   -1.8448    2.1794 H   0  0  0  0  0  0  0  0  0  0  0  0
    3.7803   -3.2880    2.0542 H   0  0  0  0  0  0  0  0  0  0  0  0
  1  2  1  0
  2  3  2  0
  2  4  2  0
  2  5  1  0
  5  6  2  0
  6  7  1  0
  7  8  2  0
  8  9  1  0
  9 10  1  0
 10 11  2  0
 11 12  1  0
 12 13  1  0
 13 14  2  0
 14 15  1  0
 15 16  1  0
 16 17  2  0
 16 18  1  0
 15 19  2  0
 19 20  1  0
 12 21  1  0
 21 22  2  0
 22 23  1  0
 23 24  2  0
 24 25  1  0
 25 26  2  0
 26 27  1  0
 27 28  1  0
 28 29  2  0
 29 30  1  0
 30 31  2  0
 31 32  1  0
 32 33  2  0
 27 34  2  0
  8 35  1  0
 35 36  2  0
 36  5  1  0
 22 10  1  0
 34 23  1  0
 20 13  1  0
 33 28  1  0
  1 37  1  0
  1 38  1  0
  6 39  1  0
  7 40  1  0
  9 41  1  0
  9 42  1  0
 11 43  1  0
 18 44  1  0
 19 45  1  0
 24 46  1  0
 25 47  1  0
 26 48  1  0
 29 49  1  0
 30 50  1  0
 31 51  1  0
 32 52  1  0
 33 53  1  0
 34 54  1  0
 35 55  1  0
 36 56  1  0
M  END
$$$$
