@<TRIPOS>MOLECULE
*****
 56 60 0 0 0
SMALL
GASTEIGER

@<TRIPOS>ATOM
      1 N1          6.4890   -3.7067   -0.4380 N.3     1  <1>        -0.2035
      2 S1          5.0539   -4.5838   -0.1361 S.O2    1  <1>         0.0559
      3 O1          4.8654   -5.5716   -1.2555 O.2     1  <1>        -0.1533
      4 O2          5.1727   -5.4198    1.1323 O.2     1  <1>        -0.1533
      5 C1          3.6375   -3.5681   -0.0377 C.ar    1  <1>         0.1050
      6 C2          2.9026   -3.2610   -1.1615 C.ar    1  <1>        -0.0351
      7 C3          1.7963   -2.4775   -1.0865 C.ar    1  <1>        -0.0564
      8 C4          1.3258   -1.9355    0.1000 C.ar    1  <1>        -0.0428
      9 C5          0.1122   -1.0889    0.1682 C.3     1  <1>         0.0011
     10 C6          0.3690    0.3529    0.1353 C.ar    1  <1>         0.0027
     11 C7          1.5134    1.0286   -0.2329 C.ar    1  <1>         0.0375
     12 N2          1.3093    2.3283   -0.1084 N.ar    1  <1>        -0.2149
     13 C8          2.2362    3.4101   -0.3937 C.ar    1  <1>         0.1944
     14 N3          2.1683    4.6122   -0.5508 N.ar    1  <1>        -0.2145
     15 C9          3.1485    5.4380   -0.8198 C.ar    1  <1>         0.1568
     16 C10         2.9992    6.9260   -1.0082 C.2     1  <1>         0.3559
     17 O3          1.8693    7.4225   -0.9000 O.2     1  <1>        -0.2434
     18 O4          4.0782    7.7121   -1.2897 O.3     1  <1>        -0.4761
     19 C11         4.4042    4.8323   -0.9321 C.ar    1  <1>         0.0116
     20 S2          3.9867    3.0865   -0.6228 S.2     1  <1>        -0.0555
     21 N4          0.1064    2.5112    0.3164 N.ar    1  <1>        -0.1643
     22 C12        -0.5504    1.3420    0.4944 C.ar    1  <1>         0.0967
     23 C13        -1.9103    1.1403    0.9659 C.ar    1  <1>         0.0030
     24 C14        -2.3491    1.8019    2.0876 C.ar    1  <1>        -0.0525
     25 C15        -3.6375    1.6572    2.5813 C.ar    1  <1>        -0.0606
     26 C16        -4.5105    0.8185    1.9205 C.ar    1  <1>        -0.0540
     27 C17        -4.0668    0.1592    0.7990 C.ar    1  <1>        -0.0173
     28 C18        -5.0020   -0.7179    0.1051 C.ar    1  <1>        -0.0179
     29 C19        -4.5265   -1.8390   -0.5563 C.ar    1  <1>        -0.0540
     30 C20        -5.4465   -2.6397   -1.2146 C.ar    1  <1>        -0.0612
     31 C21        -6.7915   -2.3412   -1.2183 C.ar    1  <1>        -0.0617
     32 C22        -7.2650   -1.2216   -0.5575 C.ar    1  <1>        -0.0612
     33 C23        -6.3496   -0.4363    0.0902 C.ar    1  <1>        -0.0540
     34 C24        -2.7716    0.3121    0.3135 C.ar    1  <1>        -0.0448
     35 C25         2.0725   -2.2492    1.2299 C.ar    1  <1>        -0.0564
     36 C26         3.1976   -3.0429    1.1676 C.ar    1  <1>        -0.0351
     37 H1          7.2104   -4.2785   -0.9120 H       1  <1>         0.1442
     38 H2          6.8309   -3.1457    0.3725 H       1  <1>         0.1442
     39 H3          3.2585   -3.6800   -2.1000 H       1  <1>         0.0637
     40 H4          1.2386   -2.2526   -1.9815 H       1  <1>         0.0621
     41 H5         -0.4532   -1.3302   -0.7839 H       1  <1>         0.0363
     42 H6         -0.4673   -1.4161    1.0584 H       1  <1>         0.0363
     43 H7          2.4556    0.5942   -0.5778 H       1  <1>         0.0834
     44 H8          4.0528    8.7081   -1.0663 H       1  <1>         0.2955
     45 H9          5.4048    5.2292   -1.1451 H       1  <1>         0.0718
     46 H10        -1.6996    2.4735    2.6436 H       1  <1>         0.0624
     47 H11        -3.9422    2.1953    3.4703 H       1  <1>         0.0618
     48 H12        -5.5228    0.6951    2.2987 H       1  <1>         0.0624
     49 H13        -3.4628   -2.0914   -0.5643 H       1  <1>         0.0624
     50 H14        -5.0609   -3.5141   -1.7298 H       1  <1>         0.0618
     51 H15        -7.4513   -3.0093   -1.7535 H       1  <1>         0.0618
     52 H16        -8.3255   -1.0218   -0.5858 H       1  <1>         0.0618
     53 H17        -6.6872    0.4369    0.6102 H       1  <1>         0.0624
     54 H18        -2.5345   -0.2512   -0.5738 H       1  <1>         0.0630
     55 H19         1.7384   -1.8448    2.1794 H       1  <1>         0.0621
     56 H20         3.7803   -3.2880    2.0542 H       1  <1>         0.0637
@<TRIPOS>BOND
     1     1     2    1
     2     2     3    2
     3     2     4    2
     4     2     5    1
     5     5     6   ar
     6     6     7   ar
     7     7     8   ar
     8     8     9    1
     9     9    10    1
    10    10    11   ar
    11    11    12   ar
    12    12    13    1
    13    13    14   ar
    14    14    15   ar
    15    15    16    1
    16    16    17    2
    17    16    18    1
    18    15    19   ar
    19    19    20   ar
    20    12    21   ar
    21    21    22   ar
    22    22    23    1
    23    23    24   ar
    24    24    25   ar
    25    25    26   ar
    26    26    27   ar
    27    27    28    1
    28    28    29   ar
    29    29    30   ar
    30    30    31   ar
    31    31    32   ar
    32    32    33   ar
    33    27    34   ar
    34     8    35   ar
    35    35    36   ar
    36    36     5   ar
    37    22    10   ar
    38    34    23   ar
    39    20    13   ar
    40    33    28   ar
    41     1    37    1
    42     1    38    1
    43     6    39    1
    44     7    40    1
    45     9    41    1
    46     9    42    1
    47    11    43    1
    48    18    44    1
    49    19    45    1
    50    24    46    1
    51    25    47    1
    52    26    48    1
    53    29    49    1
    54    30    50    1
    55    31    51    1
    56    32    52    1
    57    33    53    1
    58    34    54    1
    59    35    55    1
    60    36    56    1
