@<TRIPOS>MOLECULE
*****
 48 50 0 0 0
SMALL
GASTEIGER

@<TRIPOS>ATOM
      1 C          -4.9457   -1.6564   -0.0594 C.3     1  UNL1       -0.0416
      2 C          -3.7522   -2.4447    0.4202 C.3     1  UNL1        0.0449
      3 O          -2.8228   -1.7105    1.1129 O.3     1  UNL1       -0.3783
      4 C          -2.2763   -0.6654    0.3712 C.3     1  UNL1        0.0656
      5 C          -1.2819    0.0358    1.2699 C.3     1  UNL1        0.0498
      6 N          -0.6391    1.1537    0.6060 N.ar    1  UNL1       -0.3095
      7 C           0.4996    1.1403   -0.1195 C.ar    1  UNL1        0.1993
      8 N           0.7903    2.3742   -0.5843 N.ar    1  UNL1       -0.2143
      9 C          -0.1700    3.2273   -0.1627 C.ar    1  UNL1        0.0909
     10 C          -0.4350    4.5784   -0.2985 C.ar    1  UNL1       -0.0342
     11 C          -1.5118    5.2058    0.2487 C.ar    1  UNL1       -0.0596
     12 C          -2.3726    4.4287    0.9750 C.ar    1  UNL1       -0.0597
     13 C          -2.1662    3.0679    1.1505 C.ar    1  UNL1       -0.0360
     14 C          -1.0583    2.4472    0.5819 C.ar    1  UNL1        0.0701
     15 N           1.3276   -0.0106   -0.3890 N.pl3   1  UNL1       -0.2997
     16 C           1.1519   -0.8777   -1.5344 C.3     1  UNL1        0.0160
     17 C           2.4381   -1.2098   -2.2274 C.3     1  UNL1       -0.0243
     18 C           3.0417   -2.4266   -1.5666 C.3     1  UNL1        0.0001
     19 N           3.6552   -2.1406   -0.3014 N.3     1  UNL1       -0.3038
     20 C           4.8658   -1.3846   -0.4043 C.3     1  UNL1       -0.0127
     21 C           2.7504   -1.7025    0.7086 C.3     1  UNL1        0.0144
     22 C           2.3752   -0.2467    0.5903 C.3     1  UNL1        0.0276
     23 H          -5.5181   -1.2670    0.8025 H       1  UNL1        0.0252
     24 H          -4.7279   -0.8857   -0.7985 H       1  UNL1        0.0252
     25 H          -5.6156   -2.4029   -0.5641 H       1  UNL1        0.0252
     26 H          -4.1533   -3.2049    1.1228 H       1  UNL1        0.0557
     27 H          -3.3157   -3.0331   -0.4172 H       1  UNL1        0.0557
     28 H          -1.8251   -0.9828   -0.5741 H       1  UNL1        0.0577
     29 H          -3.1272    0.0051    0.0990 H       1  UNL1        0.0577
     30 H          -1.7534    0.3860    2.1868 H       1  UNL1        0.0515
     31 H          -0.5209   -0.7307    1.5481 H       1  UNL1        0.0515
     32 H           0.2750    5.1582   -0.8838 H       1  UNL1        0.0639
     33 H          -1.6999    6.2753    0.1273 H       1  UNL1        0.0618
     34 H          -3.2524    4.8777    1.4365 H       1  UNL1        0.0618
     35 H          -2.8244    2.4278    1.7163 H       1  UNL1        0.0639
     36 H           0.4285   -0.4698   -2.2680 H       1  UNL1        0.0465
     37 H           0.7123   -1.8423   -1.1603 H       1  UNL1        0.0465
     38 H           3.1643   -0.3977   -2.2804 H       1  UNL1        0.0293
     39 H           2.1995   -1.5141   -3.2734 H       1  UNL1        0.0293
     40 H           3.8364   -2.8459   -2.2201 H       1  UNL1        0.0427
     41 H           2.2860   -3.2183   -1.4327 H       1  UNL1        0.0427
     42 H           4.8228   -0.5243   -1.0992 H       1  UNL1        0.0391
     43 H           5.6215   -2.0776   -0.8659 H       1  UNL1        0.0391
     44 H           5.2411   -1.1493    0.5954 H       1  UNL1        0.0391
     45 H           3.2340   -1.8558    1.7035 H       1  UNL1        0.0442
     46 H           1.8546   -2.3321    0.6807 H       1  UNL1        0.0442
     47 H           1.9434    0.0462    1.5768 H       1  UNL1        0.0477
     48 H           3.2507    0.3751    0.3589 H       1  UNL1        0.0477
@<TRIPOS>BOND
     1     1     2    1
     2     2     3    1
     3     3     4    1
     4     4     5    1
     5     5     6    1
     6     6     7   ar
     7     7     8   ar
     8     8     9   ar
     9     9    10   ar
    10    10    11   ar
    11    11    12   ar
    12    12    13   ar
    13    13    14   ar
    14     7    15    1
    15    15    16    1
    16    16    17    1
    17    17    18    1
    18    18    19    1
    19    19    20    1
    20    19    21    1
    21    21    22    1
    22    14     6   ar
    23    22    15    1
    24    14     9   ar
    25     1    23    1
    26     1    24    1
    27     1    25    1
    28     2    26    1
    29     2    27    1
    30     4    28    1
    31     4    29    1
    32     5    30    1
    33     5    31    1
    34    10    32    1
    35    11    33    1
    36    12    34    1
    37    13    35    1
    38    16    36    1
    39    16    37    1
    40    17    38    1
    41    17    39    1
    42    18    40    1
    43    18    41    1
    44    20    42    1
    45    20    43    1
    46    20    44    1
    47    21    45    1
    48    21    46    1
    49    22    47    1
    50    22    48    1
