
     RDKit          3D

 61 68  0  0  0  0  0  0  0  0999 V2000
   -4.5377    2.2198   -0.9367 C   0  0  0  0  0  0  0  0  0  0  0  0
   -4.0970    0.8393   -0.8759 N   0  0  0  0  0  0  0  0  0  0  0  0
   -3.1223    0.7133    0.1893 C   0  0  2  0  0  0  0  0  0  0  0  0
   -1.9200    1.6172   -0.0739 C   0  0  0  0  0  0  0  0  0  0  0  0
   -1.0953    1.5890    1.1964 C   0  0  1  0  0  0  0  0  0  0  0  0
   -1.2665    0.4801    1.9423 O   0  0  0  0  0  0  0  0  0  0  0  0
   -1.4841   -0.7273    1.2770 C   0  0  1  0  0  0  0  0  0  0  0  0
   -1.9306   -1.6692    2.4068 C   0  0  0  0  0  0  0  0  0  0  0  0
   -2.5585   -0.6979    0.2553 C   0  0  2  0  0  0  0  0  0  0  0  0
   -2.1306   -0.9906   -1.0423 O   0  0  0  0  0  0  0  0  0  0  0  0
   -2.8956   -1.9718   -1.6559 C   0  0  0  0  0  0  0  0  0  0  0  0
   -0.2324   -1.2479    0.7277 N   0  0  0  0  0  0  0  0  0  0  0  0
    0.0649   -2.5592    0.4975 C   0  0  0  0  0  0  0  0  0  0  0  0
   -0.6992   -3.6989    0.6347 C   0  0  0  0  0  0  0  0  0  0  0  0
   -0.1028   -4.9193    0.2983 C   0  0  0  0  0  0  0  0  0  0  0  0
    1.1851   -5.0313   -0.1550 C   0  0  0  0  0  0  0  0  0  0  0  0
    1.9231   -3.8737   -0.2830 C   0  0  0  0  0  0  0  0  0  0  0  0
    1.3631   -2.6656    0.0398 C   0  0  0  0  0  0  0  0  0  0  0  0
    1.8871   -1.4113   -0.0246 C   0  0  0  0  0  0  0  0  0  0  0  0
    3.1283   -0.8981   -0.4134 C   0  0  0  0  0  0  0  0  0  0  0  0
    3.3825    0.4606   -0.3856 C   0  0  0  0  0  0  0  0  0  0  0  0
    2.3693    1.3160    0.0392 C   0  0  0  0  0  0  0  0  0  0  0  0
    2.2528    2.6610    0.1680 C   0  0  0  0  0  0  0  0  0  0  0  0
    3.0992    3.7176   -0.0485 C   0  0  0  0  0  0  0  0  0  0  0  0
    2.6218    5.0064    0.1980 C   0  0  0  0  0  0  0  0  0  0  0  0
    1.3468    5.2447    0.6449 C   0  0  0  0  0  0  0  0  0  0  0  0
    0.4940    4.1891    0.8636 C   0  0  0  0  0  0  0  0  0  0  0  0
    0.9683    2.9065    0.6186 C   0  0  0  0  0  0  0  0  0  0  0  0
    0.2959    1.7719    0.7715 N   0  0  0  0  0  0  0  0  0  0  0  0
    1.1332    0.7835    0.4255 C   0  0  0  0  0  0  0  0  0  0  0  0
    0.8918   -0.5783    0.3970 C   0  0  0  0  0  0  0  0  0  0  0  0
    4.7311    0.6879   -0.8331 C   0  0  0  0  0  0  0  0  0  0  0  0
    5.3561    1.7603   -0.9578 O   0  0  0  0  0  0  0  0  0  0  0  0
    5.2852   -0.6119   -1.1359 N   0  0  0  0  0  0  0  0  0  0  0  0
    4.3083   -1.6269   -0.8875 C   0  0  0  0  0  0  0  0  0  0  0  0
   -4.7560    2.6326    0.0703 H   0  0  0  0  0  0  0  0  0  0  0  0
   -5.5316    2.1954   -1.4670 H   0  0  0  0  0  0  0  0  0  0  0  0
   -3.8856    2.8634   -1.5383 H   0  0  0  0  0  0  0  0  0  0  0  0
   -3.5491    0.6841   -1.7754 H   0  0  0  0  0  0  0  0  0  0  0  0
   -3.5656    0.9834    1.1535 H   0  0  0  0  0  0  0  0  0  0  0  0
   -2.2016    2.6203   -0.3877 H   0  0  0  0  0  0  0  0  0  0  0  0
   -1.3211    1.0955   -0.8573 H   0  0  0  0  0  0  0  0  0  0  0  0
   -1.3971    2.4704    1.7949 H   0  0  0  0  0  0  0  0  0  0  0  0
   -2.1507   -1.0703    3.3533 H   0  0  0  0  0  0  0  0  0  0  0  0
   -2.8704   -2.1757    2.2069 H   0  0  0  0  0  0  0  0  0  0  0  0
   -1.1362   -2.3543    2.7313 H   0  0  0  0  0  0  0  0  0  0  0  0
   -3.4232   -1.3701    0.4477 H   0  0  0  0  0  0  0  0  0  0  0  0
   -3.9637   -1.6785   -1.7418 H   0  0  0  0  0  0  0  0  0  0  0  0
   -2.5196   -2.0695   -2.6905 H   0  0  0  0  0  0  0  0  0  0  0  0
   -2.8438   -2.9490   -1.1472 H   0  0  0  0  0  0  0  0  0  0  0  0
   -1.7093   -3.6690    0.9585 H   0  0  0  0  0  0  0  0  0  0  0  0
   -0.7148   -5.8133    0.4112 H   0  0  0  0  0  0  0  0  0  0  0  0
    1.6245   -5.9922   -0.4093 H   0  0  0  0  0  0  0  0  0  0  0  0
    2.9519   -3.9820   -0.6477 H   0  0  0  0  0  0  0  0  0  0  0  0
    4.1103    3.6116   -0.3970 H   0  0  0  0  0  0  0  0  0  0  0  0
    3.3119    5.8363    0.0194 H   0  0  0  0  0  0  0  0  0  0  0  0
    0.9713    6.2455    0.8379 H   0  0  0  0  0  0  0  0  0  0  0  0
   -0.5327    4.3383    1.2207 H   0  0  0  0  0  0  0  0  0  0  0  0
    6.2539   -0.7465   -1.4807 H   0  0  0  0  0  0  0  0  0  0  0  0
    4.1325   -2.1715   -1.8373 H   0  0  0  0  0  0  0  0  0  0  0  0
    4.7005   -2.3195   -0.0920 H   0  0  0  0  0  0  0  0  0  0  0  0
  1  2  1  0
  2  3  1  0
  3  4  1  0
  4  5  1  0
  5  6  1  0
  6  7  1  0
  7  8  1  1
  7  9  1  0
  9 10  1  0
 10 11  1  0
  7 12  1  0
 12 13  1  0
 13 14  2  0
 14 15  1  0
 15 16  2  0
 16 17  1  0
 17 18  2  0
 18 19  1  0
 19 20  2  0
 20 21  1  0
 21 22  2  0
 22 23  1  0
 23 24  2  0
 24 25  1  0
 25 26  2  0
 26 27  1  0
 27 28  2  0
 28 29  1  0
 29 30  1  0
 30 31  2  0
 21 32  1  0
 32 33  2  0
 32 34  1  0
 34 35  1  0
  9  3  1  0
 31 12  1  0
 29  5  1  0
 18 13  1  0
 31 19  1  0
 35 20  1  0
 30 22  1  0
 28 23  1  0
  1 36  1  0
  1 37  1  0
  1 38  1  0
  2 39  1  0
  3 40  1  1
  4 41  1  0
  4 42  1  0
  5 43  1  1
  8 44  1  0
  8 45  1  0
  8 46  1  0
  9 47  1  1
 11 48  1  0
 11 49  1  0
 11 50  1  0
 14 51  1  0
 15 52  1  0
 16 53  1  0
 17 54  1  0
 24 55  1  0
 25 56  1  0
 26 57  1  0
 27 58  1  0
 34 59  1  0
 35 60  1  0
 35 61  1  0
M  END
$$$$
