@<TRIPOS>MOLECULE
*****
 61 68 0 0 0
SMALL
GASTEIGER

@<TRIPOS>ATOM
      1 C          -4.5377    2.2198   -0.9367 C.3     1  UNL1       -0.0155
      2 N          -4.0970    0.8393   -0.8759 N.3     1  UNL1       -0.3136
      3 C          -3.1223    0.7133    0.1893 C.3     1  UNL1        0.0423
      4 C          -1.9200    1.6172   -0.0739 C.3     1  UNL1        0.0107
      5 C          -1.0953    1.5890    1.1964 C.3     1  UNL1        0.1402
      6 O          -1.2665    0.4801    1.9423 O.3     1  UNL1       -0.3282
      7 C          -1.4841   -0.7273    1.2770 C.3     1  UNL1        0.1741
      8 C          -1.9306   -1.6692    2.4068 C.3     1  UNL1       -0.0136
      9 C          -2.5585   -0.6979    0.2553 C.3     1  UNL1        0.1214
     10 O          -2.1306   -0.9906   -1.0423 O.3     1  UNL1       -0.3735
     11 C          -2.8956   -1.9718   -1.6559 C.3     1  UNL1        0.0371
     12 N          -0.2324   -1.2479    0.7277 N.ar    1  UNL1       -0.3070
     13 C           0.0649   -2.5592    0.4975 C.ar    1  UNL1        0.0527
     14 C          -0.6992   -3.6989    0.6347 C.ar    1  UNL1       -0.0375
     15 C          -0.1028   -4.9193    0.2983 C.ar    1  UNL1       -0.0598
     16 C           1.1851   -5.0313   -0.1550 C.ar    1  UNL1       -0.0611
     17 C           1.9231   -3.8737   -0.2830 C.ar    1  UNL1       -0.0520
     18 C           1.3631   -2.6656    0.0398 C.ar    1  UNL1        0.0081
     19 C           1.8871   -1.4113   -0.0246 C.ar    1  UNL1        0.0151
     20 C           3.1283   -0.8981   -0.4134 C.ar    1  UNL1       -0.0078
     21 C           3.3825    0.4606   -0.3856 C.ar    1  UNL1        0.0518
     22 C           2.3693    1.3160    0.0392 C.ar    1  UNL1        0.0221
     23 C           2.2528    2.6610    0.1680 C.ar    1  UNL1        0.0085
     24 C           3.0992    3.7176   -0.0485 C.ar    1  UNL1       -0.0520
     25 C           2.6218    5.0064    0.1980 C.ar    1  UNL1       -0.0611
     26 C           1.3468    5.2447    0.6449 C.ar    1  UNL1       -0.0598
     27 C           0.4940    4.1891    0.8636 C.ar    1  UNL1       -0.0375
     28 C           0.9683    2.9065    0.6186 C.ar    1  UNL1        0.0524
     29 N           0.2959    1.7719    0.7715 N.ar    1  UNL1       -0.3115
     30 C           1.1332    0.7835    0.4255 C.ar    1  UNL1        0.0774
     31 C           0.8918   -0.5783    0.3970 C.ar    1  UNL1        0.0772
     32 C           4.7311    0.6879   -0.8331 C.2     1  UNL1        0.2453
     33 O           5.3561    1.7603   -0.9578 O.2     1  UNL1       -0.2702
     34 N           5.2852   -0.6119   -1.1359 N.am    1  UNL1       -0.3072
     35 C           4.3083   -1.6269   -0.8875 C.3     1  UNL1        0.0385
     36 H          -4.7560    2.6326    0.0703 H       1  UNL1        0.0388
     37 H          -5.5316    2.1954   -1.4670 H       1  UNL1        0.0388
     38 H          -3.8856    2.8634   -1.5383 H       1  UNL1        0.0388
     39 H          -3.5491    0.6841   -1.7754 H       1  UNL1        0.1220
     40 H          -3.5656    0.9834    1.1535 H       1  UNL1        0.0489
     41 H          -2.2016    2.6203   -0.3877 H       1  UNL1        0.0325
     42 H          -1.3211    1.0955   -0.8573 H       1  UNL1        0.0325
     43 H          -1.3971    2.4704    1.7949 H       1  UNL1        0.0839
     44 H          -2.1507   -1.0703    3.3533 H       1  UNL1        0.0277
     45 H          -2.8704   -2.1757    2.2069 H       1  UNL1        0.0277
     46 H          -1.1362   -2.3543    2.7313 H       1  UNL1        0.0277
     47 H          -3.4232   -1.3701    0.4477 H       1  UNL1        0.0660
     48 H          -3.9637   -1.6785   -1.7418 H       1  UNL1        0.0524
     49 H          -2.5196   -2.0695   -2.6905 H       1  UNL1        0.0524
     50 H          -2.8438   -2.9490   -1.1472 H       1  UNL1        0.0524
     51 H          -1.7093   -3.6690    0.9585 H       1  UNL1        0.0638
     52 H          -0.7148   -5.8133    0.4112 H       1  UNL1        0.0618
     53 H           1.6245   -5.9922   -0.4093 H       1  UNL1        0.0618
     54 H           2.9519   -3.9820   -0.6477 H       1  UNL1        0.0624
     55 H           4.1103    3.6116   -0.3970 H       1  UNL1        0.0624
     56 H           3.3119    5.8363    0.0194 H       1  UNL1        0.0618
     57 H           0.9713    6.2455    0.8379 H       1  UNL1        0.0618
     58 H          -0.5327    4.3383    1.2207 H       1  UNL1        0.0638
     59 H           6.2539   -0.7465   -1.4807 H       1  UNL1        0.1493
     60 H           4.1325   -2.1715   -1.8373 H       1  UNL1        0.0512
     61 H           4.7005   -2.3195   -0.0920 H       1  UNL1        0.0512
@<TRIPOS>BOND
     1     1     2    1
     2     2     3    1
     3     3     4    1
     4     4     5    1
     5     5     6    1
     6     6     7    1
     7     7     8    1
     8     7     9    1
     9     9    10    1
    10    10    11    1
    11     7    12    1
    12    12    13   ar
    13    13    14   ar
    14    14    15   ar
    15    15    16   ar
    16    16    17   ar
    17    17    18   ar
    18    18    19   ar
    19    19    20   ar
    20    20    21   ar
    21    21    22   ar
    22    22    23   ar
    23    23    24   ar
    24    24    25   ar
    25    25    26   ar
    26    26    27   ar
    27    27    28   ar
    28    28    29   ar
    29    29    30   ar
    30    30    31   ar
    31    21    32    1
    32    32    33    2
    33    32    34   am
    34    34    35    1
    35     9     3    1
    36    31    12   ar
    37    29     5    1
    38    18    13   ar
    39    31    19   ar
    40    35    20    1
    41    30    22   ar
    42    28    23   ar
    43     1    36    1
    44     1    37    1
    45     1    38    1
    46     2    39    1
    47     3    40    1
    48     4    41    1
    49     4    42    1
    50     5    43    1
    51     8    44    1
    52     8    45    1
    53     8    46    1
    54     9    47    1
    55    11    48    1
    56    11    49    1
    57    11    50    1
    58    14    51    1
    59    15    52    1
    60    16    53    1
    61    17    54    1
    62    24    55    1
    63    25    56    1
    64    26    57    1
    65    27    58    1
    66    34    59    1
    67    35    60    1
    68    35    61    1
