
     RDKit          3D

 60 63  0  0  0  0  0  0  0  0999 V2000
    8.8555   -1.2396   -1.8628 C   0  0  0  0  0  0  0  0  0  0  0  0
    7.7983   -0.6441   -0.9726 C   0  0  2  0  0  0  0  0  0  0  0  0
    7.6281    0.7844   -1.3006 C   0  0  0  0  0  0  0  0  0  0  0  0
    6.5447    1.3313   -1.5906 O   0  0  0  0  0  0  0  0  0  0  0  0
    8.7744    1.5749   -1.2816 O   0  0  0  0  0  0  0  0  0  0  0  0
    8.2182   -0.6995    0.5046 C   0  0  0  0  0  0  0  0  0  0  0  0
    7.2803    0.2307    1.2246 C   0  0  0  0  0  0  0  0  0  0  0  0
    5.8798   -0.0389    0.8152 C   0  0  0  0  0  0  0  0  0  0  0  0
    4.8243    0.5128    1.5551 C   0  0  0  0  0  0  0  0  0  0  0  0
    3.5122    0.2872    1.2080 C   0  0  0  0  0  0  0  0  0  0  0  0
    3.1616   -0.4870    0.1220 C   0  0  0  0  0  0  0  0  0  0  0  0
    1.9025   -0.7603   -0.2949 O   0  0  0  0  0  0  0  0  0  0  0  0
    0.6470   -0.4245    0.1075 C   0  0  0  0  0  0  0  0  0  0  0  0
    0.2558    1.0224    0.0695 C   0  0  0  0  0  0  0  0  0  0  0  0
   -1.1817    1.1394    0.5521 C   0  0  0  0  0  0  0  0  0  0  0  0
   -2.0642    0.4101   -0.2539 O   0  0  0  0  0  0  0  0  0  0  0  0
   -3.4046    0.4029    0.0346 C   0  0  0  0  0  0  0  0  0  0  0  0
   -3.9090    1.1023    1.1077 C   0  0  0  0  0  0  0  0  0  0  0  0
   -5.2808    1.0528    1.3449 C   0  0  0  0  0  0  0  0  0  0  0  0
   -6.0952    0.3203    0.5197 C   0  0  0  0  0  0  0  0  0  0  0  0
   -7.5545    0.2707    0.7745 C   0  0  0  0  0  0  0  0  0  0  0  0
   -8.0546   -1.1529    0.9375 C   0  0  0  0  0  0  0  0  0  0  0  0
   -8.9598   -1.4411   -0.2194 C   0  0  0  0  0  0  0  0  0  0  0  0
   -9.4947   -0.0724   -0.5870 C   0  0  0  0  0  0  0  0  0  0  0  0
   -8.2416    0.7904   -0.4715 C   0  0  0  0  0  0  0  0  0  0  0  0
   -5.5665   -0.3715   -0.5482 C   0  0  0  0  0  0  0  0  0  0  0  0
   -4.2175   -0.3456   -0.8129 C   0  0  0  0  0  0  0  0  0  0  0  0
   -3.5315   -1.2265   -2.1764 Cl  0  0  0  0  0  0  0  0  0  0  0  0
    4.2364   -1.0297   -0.6043 C   0  0  0  0  0  0  0  0  0  0  0  0
    5.5317   -0.8089   -0.2638 C   0  0  0  0  0  0  0  0  0  0  0  0
    6.5883   -1.3707   -1.0163 O   0  0  0  0  0  0  0  0  0  0  0  0
    8.3643   -1.5382   -2.8189 H   0  0  0  0  0  0  0  0  0  0  0  0
    9.3414   -2.0908   -1.3728 H   0  0  0  0  0  0  0  0  0  0  0  0
    9.6274   -0.4861   -2.1226 H   0  0  0  0  0  0  0  0  0  0  0  0
    8.8829    2.4375   -1.7622 H   0  0  0  0  0  0  0  0  0  0  0  0
    9.2734   -0.4283    0.6185 H   0  0  0  0  0  0  0  0  0  0  0  0
    8.0977   -1.7390    0.8189 H   0  0  0  0  0  0  0  0  0  0  0  0
    7.3995   -0.0019    2.3236 H   0  0  0  0  0  0  0  0  0  0  0  0
    7.5631    1.2896    1.0818 H   0  0  0  0  0  0  0  0  0  0  0  0
    5.0952    1.1328    2.4232 H   0  0  0  0  0  0  0  0  0  0  0  0
    2.7084    0.7170    1.8078 H   0  0  0  0  0  0  0  0  0  0  0  0
   -0.0785   -1.0279   -0.5324 H   0  0  0  0  0  0  0  0  0  0  0  0
    0.3905   -0.7824    1.1531 H   0  0  0  0  0  0  0  0  0  0  0  0
    0.8570    1.5895    0.7867 H   0  0  0  0  0  0  0  0  0  0  0  0
    0.3367    1.4031   -0.9702 H   0  0  0  0  0  0  0  0  0  0  0  0
   -1.2361    0.9159    1.6192 H   0  0  0  0  0  0  0  0  0  0  0  0
   -1.4566    2.2256    0.4420 H   0  0  0  0  0  0  0  0  0  0  0  0
   -3.2295    1.6637    1.7280 H   0  0  0  0  0  0  0  0  0  0  0  0
   -5.6458    1.6136    2.1962 H   0  0  0  0  0  0  0  0  0  0  0  0
   -7.7838    0.8894    1.6588 H   0  0  0  0  0  0  0  0  0  0  0  0
   -8.6798   -1.1718    1.8780 H   0  0  0  0  0  0  0  0  0  0  0  0
   -7.2560   -1.8821    1.0853 H   0  0  0  0  0  0  0  0  0  0  0  0
   -9.7672   -2.1495    0.0599 H   0  0  0  0  0  0  0  0  0  0  0  0
   -8.4540   -1.8642   -1.0940 H   0  0  0  0  0  0  0  0  0  0  0  0
   -9.8596   -0.0477   -1.6336 H   0  0  0  0  0  0  0  0  0  0  0  0
  -10.2477    0.2580    0.1455 H   0  0  0  0  0  0  0  0  0  0  0  0
   -8.4899    1.8676   -0.3757 H   0  0  0  0  0  0  0  0  0  0  0  0
   -7.6045    0.6845   -1.3723 H   0  0  0  0  0  0  0  0  0  0  0  0
   -6.2373   -0.9525   -1.1967 H   0  0  0  0  0  0  0  0  0  0  0  0
    4.0058   -1.6448   -1.4653 H   0  0  0  0  0  0  0  0  0  0  0  0
  2  1  1  6
  2  3  1  0
  3  4  2  0
  3  5  1  0
  2  6  1  0
  6  7  1  0
  7  8  1  0
  8  9  2  0
  9 10  1  0
 10 11  2  0
 11 12  1  0
 12 13  1  0
 13 14  1  0
 14 15  1  0
 15 16  1  0
 16 17  1  0
 17 18  2  0
 18 19  1  0
 19 20  2  0
 20 21  1  0
 21 22  1  0
 22 23  1  0
 23 24  1  0
 24 25  1  0
 20 26  1  0
 26 27  2  0
 27 28  1  0
 11 29  1  0
 29 30  2  0
 30 31  1  0
 31  2  1  0
 30  8  1  0
 27 17  1  0
 25 21  1  0
  1 32  1  0
  1 33  1  0
  1 34  1  0
  5 35  1  0
  6 36  1  0
  6 37  1  0
  7 38  1  0
  7 39  1  0
  9 40  1  0
 10 41  1  0
 13 42  1  0
 13 43  1  0
 14 44  1  0
 14 45  1  0
 15 46  1  0
 15 47  1  0
 18 48  1  0
 19 49  1  0
 21 50  1  0
 22 51  1  0
 22 52  1  0
 23 53  1  0
 23 54  1  0
 24 55  1  0
 24 56  1  0
 25 57  1  0
 25 58  1  0
 26 59  1  0
 29 60  1  0
M  END
$$$$
