@<TRIPOS>MOLECULE
*****
 60 63 0 0 0
SMALL
GASTEIGER

@<TRIPOS>ATOM
      1 C           8.8555   -1.2396   -1.8628 C.3     1  UNL1       -0.0143
      2 C           7.7983   -0.6441   -0.9726 C.3     1  UNL1        0.2034
      3 C           7.6281    0.7844   -1.3006 C.2     1  UNL1        0.3488
      4 O           6.5447    1.3313   -1.5906 O.2     1  UNL1       -0.2465
      5 O           8.7744    1.5749   -1.2816 O.3     1  UNL1       -0.4779
      6 C           8.2182   -0.6995    0.5046 C.3     1  UNL1        0.0015
      7 C           7.2803    0.2307    1.2246 C.3     1  UNL1       -0.0201
      8 C           5.8798   -0.0389    0.8152 C.ar    1  UNL1       -0.0053
      9 C           4.8243    0.5128    1.5551 C.ar    1  UNL1       -0.0517
     10 C           3.5122    0.2872    1.2080 C.ar    1  UNL1       -0.0195
     11 C           3.1616   -0.4870    0.1220 C.ar    1  UNL1        0.1240
     12 O           1.9025   -0.7603   -0.2949 O.3     1  UNL1       -0.4917
     13 C           0.6470   -0.4245    0.1075 C.3     1  UNL1        0.0927
     14 C           0.2558    1.0224    0.0695 C.3     1  UNL1        0.0157
     15 C          -1.1817    1.1394    0.5521 C.3     1  UNL1        0.0927
     16 O          -2.0642    0.4101   -0.2539 O.3     1  UNL1       -0.4904
     17 C          -3.4046    0.4029    0.0346 C.ar    1  UNL1        0.1387
     18 C          -3.9090    1.1023    1.1077 C.ar    1  UNL1       -0.0182
     19 C          -5.2808    1.0528    1.3449 C.ar    1  UNL1       -0.0548
     20 C          -6.0952    0.3203    0.5197 C.ar    1  UNL1       -0.0427
     21 C          -7.5545    0.2707    0.7745 C.3     1  UNL1       -0.0158
     22 C          -8.0546   -1.1529    0.9375 C.3     1  UNL1       -0.0462
     23 C          -8.9598   -1.4411   -0.2194 C.3     1  UNL1       -0.0525
     24 C          -9.4947   -0.0724   -0.5870 C.3     1  UNL1       -0.0525
     25 C          -8.2416    0.7904   -0.4715 C.3     1  UNL1       -0.0462
     26 C          -5.5665   -0.3715   -0.5482 C.ar    1  UNL1       -0.0364
     27 C          -4.2175   -0.3456   -0.8129 C.ar    1  UNL1        0.0828
     28 CL         -3.5315   -1.2265   -2.1764 Cl      1  UNL1       -0.0797
     29 C           4.2364   -1.0297   -0.6043 C.ar    1  UNL1        0.0221
     30 C           5.5317   -0.8089   -0.2638 C.ar    1  UNL1        0.1287
     31 O           6.5883   -1.3707   -1.0163 O.3     1  UNL1       -0.4744
     32 H           8.3643   -1.5382   -2.8189 H       1  UNL1        0.0274
     33 H           9.3414   -2.0908   -1.3728 H       1  UNL1        0.0274
     34 H           9.6274   -0.4861   -2.1226 H       1  UNL1        0.0274
     35 H           8.8829    2.4375   -1.7622 H       1  UNL1        0.2952
     36 H           9.2734   -0.4283    0.6185 H       1  UNL1        0.0312
     37 H           8.0977   -1.7390    0.8189 H       1  UNL1        0.0312
     38 H           7.3995   -0.0019    2.3236 H       1  UNL1        0.0316
     39 H           7.5631    1.2896    1.0818 H       1  UNL1        0.0316
     40 H           5.0952    1.1328    2.4232 H       1  UNL1        0.0623
     41 H           2.7084    0.7170    1.8078 H       1  UNL1        0.0654
     42 H          -0.0785   -1.0279   -0.5324 H       1  UNL1        0.0697
     43 H           0.3905   -0.7824    1.1531 H       1  UNL1        0.0697
     44 H           0.8570    1.5895    0.7867 H       1  UNL1        0.0331
     45 H           0.3367    1.4031   -0.9702 H       1  UNL1        0.0331
     46 H          -1.2361    0.9159    1.6192 H       1  UNL1        0.0697
     47 H          -1.4566    2.2256    0.4420 H       1  UNL1        0.0697
     48 H          -3.2295    1.6637    1.7280 H       1  UNL1        0.0655
     49 H          -5.6458    1.6136    2.1962 H       1  UNL1        0.0622
     50 H          -7.7838    0.8894    1.6588 H       1  UNL1        0.0349
     51 H          -8.6798   -1.1718    1.8780 H       1  UNL1        0.0271
     52 H          -7.2560   -1.8821    1.0853 H       1  UNL1        0.0271
     53 H          -9.7672   -2.1495    0.0599 H       1  UNL1        0.0265
     54 H          -8.4540   -1.8642   -1.0940 H       1  UNL1        0.0265
     55 H          -9.8596   -0.0477   -1.6336 H       1  UNL1        0.0265
     56 H         -10.2477    0.2580    0.1455 H       1  UNL1        0.0265
     57 H          -8.4899    1.8676   -0.3757 H       1  UNL1        0.0271
     58 H          -7.6045    0.6845   -1.3723 H       1  UNL1        0.0271
     59 H          -6.2373   -0.9525   -1.1967 H       1  UNL1        0.0636
     60 H           4.0058   -1.6448   -1.4653 H       1  UNL1        0.0691
@<TRIPOS>BOND
     1     2     1    1
     2     2     3    1
     3     3     4    2
     4     3     5    1
     5     2     6    1
     6     6     7    1
     7     7     8    1
     8     8     9   ar
     9     9    10   ar
    10    10    11   ar
    11    11    12    1
    12    12    13    1
    13    13    14    1
    14    14    15    1
    15    15    16    1
    16    16    17    1
    17    17    18   ar
    18    18    19   ar
    19    19    20   ar
    20    20    21    1
    21    21    22    1
    22    22    23    1
    23    23    24    1
    24    24    25    1
    25    20    26   ar
    26    26    27   ar
    27    27    28    1
    28    11    29   ar
    29    29    30   ar
    30    30    31    1
    31    31     2    1
    32    30     8   ar
    33    27    17   ar
    34    25    21    1
    35     1    32    1
    36     1    33    1
    37     1    34    1
    38     5    35    1
    39     6    36    1
    40     6    37    1
    41     7    38    1
    42     7    39    1
    43     9    40    1
    44    10    41    1
    45    13    42    1
    46    13    43    1
    47    14    44    1
    48    14    45    1
    49    15    46    1
    50    15    47    1
    51    18    48    1
    52    19    49    1
    53    21    50    1
    54    22    51    1
    55    22    52    1
    56    23    53    1
    57    23    54    1
    58    24    55    1
    59    24    56    1
    60    25    57    1
    61    25    58    1
    62    26    59    1
    63    29    60    1
