@<TRIPOS>MOLECULE
*****
 57 60 0 0 0
SMALL
GASTEIGER

@<TRIPOS>ATOM
      1 C          -7.8412    0.4106   -0.0719 C.3     1  UNL1        0.0368
      2 O          -6.4692    0.2428   -0.3686 O.3     1  UNL1       -0.3796
      3 C          -5.9018   -0.6491    0.5510 C.3     1  UNL1        0.0635
      4 C          -5.0462   -1.7059   -0.0948 C.3     1  UNL1        0.0100
      5 C          -3.8175   -0.9255    0.3186 C.3     1  UNL1        0.1933
      6 C          -4.6789   -0.0933    1.2350 C.3     1  UNL1        0.0100
      7 C          -3.3093   -0.1624   -0.8508 C.2     1  UNL1        0.3074
      8 N          -4.1113   -0.0059   -2.0377 N.pl3   1  UNL1       -0.2488
      9 N          -2.1461    0.3432   -0.7630 N.2     1  UNL1       -0.0727
     10 C          -1.2356    0.2743    0.3390 C.3     1  UNL1        0.1959
     11 C          -1.6297    1.1258    1.5268 C.3     1  UNL1       -0.0112
     12 C           0.0372    0.8966   -0.1782 C.ar    1  UNL1        0.0420
     13 C           1.2330    0.2485   -0.2430 C.ar    1  UNL1       -0.0301
     14 C           2.3250    0.9308   -0.7350 C.ar    1  UNL1        0.0343
     15 N           3.6004    0.2566   -0.8100 N.am    1  UNL1       -0.2802
     16 C           4.4874    0.3025    0.2591 C.2     1  UNL1        0.2668
     17 O           4.0518    0.9734    1.2901 O.2     1  UNL1       -0.2682
     18 C           5.8036   -0.2845    0.3920 C.ar    1  UNL1        0.1286
     19 N           6.2711   -0.5225    1.6720 N.ar    1  UNL1       -0.2486
     20 C           7.4823   -1.0380    1.8844 C.ar    1  UNL1        0.0467
     21 C           8.3208   -1.3555    0.8287 C.ar    1  UNL1        0.0593
     22 CL          9.9034   -2.0326    1.1746 Cl      1  UNL1       -0.0820
     23 C           7.9064   -1.1384   -0.4600 C.ar    1  UNL1       -0.0368
     24 C           6.6214   -0.5920   -0.6409 C.ar    1  UNL1       -0.0186
     25 C           6.2491   -0.3307   -2.0465 C.3     1  UNL1       -0.0375
     26 C           2.2337    2.2281   -1.1539 C.ar    1  UNL1       -0.0377
     27 C           1.0215    2.9158   -1.0986 C.ar    1  UNL1       -0.0243
     28 C          -0.0655    2.2066   -0.5986 C.ar    1  UNL1        0.1311
     29 F          -1.2619    2.8761   -0.5409 F       1  UNL1       -0.2050
     30 C          -1.0060   -1.1277    0.8226 C.3     1  UNL1        0.1183
     31 S          -2.5783   -1.8803    1.1098 S.O2    1  UNL1       -0.0094
     32 O          -2.8358   -1.9406    2.5939 O.2     1  UNL1       -0.1731
     33 O          -2.5560   -3.3051    0.6296 O.2     1  UNL1       -0.1731
     34 H          -7.9884    0.8096    0.9334 H       1  UNL1        0.0524
     35 H          -8.3019    1.0700   -0.8175 H       1  UNL1        0.0524
     36 H          -8.2777   -0.6246   -0.1494 H       1  UNL1        0.0524
     37 H          -6.6239   -1.0322    1.3046 H       1  UNL1        0.0597
     38 H          -5.1755   -2.6752    0.4293 H       1  UNL1        0.0317
     39 H          -5.1808   -1.7968   -1.1754 H       1  UNL1        0.0317
     40 H          -4.5940   -0.3409    2.3093 H       1  UNL1        0.0317
     41 H          -4.5190    0.9908    1.0213 H       1  UNL1        0.0317
     42 H          -4.5648    0.8733   -2.2371 H       1  UNL1        0.2881
     43 H          -4.1942   -0.8227   -2.6600 H       1  UNL1        0.2881
     44 H          -0.7004    1.5470    2.0076 H       1  UNL1        0.0279
     45 H          -2.0606    0.4642    2.3066 H       1  UNL1        0.0279
     46 H          -2.3380    1.9224    1.2834 H       1  UNL1        0.0279
     47 H           1.3060   -0.7589    0.0832 H       1  UNL1        0.0641
     48 H           3.8233   -0.2773   -1.6537 H       1  UNL1        0.1552
     49 H           7.8616   -1.2308    2.8884 H       1  UNL1        0.0844
     50 H           8.5401   -1.3767   -1.3067 H       1  UNL1        0.0636
     51 H           5.7163   -1.1681   -2.5068 H       1  UNL1        0.0278
     52 H           5.8000    0.6541   -2.1547 H       1  UNL1        0.0278
     53 H           7.2050   -0.2608   -2.6665 H       1  UNL1        0.0278
     54 H           3.1208    2.7151   -1.5308 H       1  UNL1        0.0637
     55 H           0.9540    3.9418   -1.4310 H       1  UNL1        0.0647
     56 H          -0.3937   -1.0656    1.7434 H       1  UNL1        0.0550
     57 H          -0.4720   -1.7192    0.0443 H       1  UNL1        0.0550
@<TRIPOS>BOND
     1     1     2    1
     2     2     3    1
     3     3     4    1
     4     5     4    1
     5     5     6    1
     6     5     7    1
     7     7     8    1
     8     7     9    2
     9     9    10    1
    10    10    11    1
    11    10    12    1
    12    12    13   ar
    13    13    14   ar
    14    14    15    1
    15    15    16   am
    16    16    17    2
    17    16    18    1
    18    18    19   ar
    19    19    20   ar
    20    20    21   ar
    21    21    22    1
    22    21    23   ar
    23    23    24   ar
    24    24    25    1
    25    14    26   ar
    26    26    27   ar
    27    27    28   ar
    28    28    29    1
    29    10    30    1
    30    30    31    1
    31    31    32    2
    32    31    33    2
    33     6     3    1
    34    28    12   ar
    35    31     5    1
    36    24    18   ar
    37     1    34    1
    38     1    35    1
    39     1    36    1
    40     3    37    1
    41     4    38    1
    42     4    39    1
    43     6    40    1
    44     6    41    1
    45     8    42    1
    46     8    43    1
    47    11    44    1
    48    11    45    1
    49    11    46    1
    50    13    47    1
    51    15    48    1
    52    20    49    1
    53    23    50    1
    54    25    51    1
    55    25    52    1
    56    25    53    1
    57    26    54    1
    58    27    55    1
    59    30    56    1
    60    30    57    1
