@<TRIPOS>MOLECULE
*****
 34 35 0 0 0
SMALL
GASTEIGER

@<TRIPOS>ATOM
      1 S          -1.0395    0.1941   -0.9122 S.2     1  UNL1       -0.0186
      2 C          -1.1428   -0.8173    0.3738 C.2     1  UNL1        0.1346
      3 N          -0.0207   -1.5080    0.8960 N.am    1  UNL1       -0.3260
      4 C           1.3289   -1.3744    0.3456 C.3     1  UNL1        0.0147
      5 C           1.8248   -0.0030    0.6357 C.3     1  UNL1       -0.0121
      6 C           3.1749    0.2754    0.1393 C.ar    1  UNL1       -0.0459
      7 C           4.3426    0.0748    0.8322 C.ar    1  UNL1       -0.0585
      8 C           5.5841    0.3597    0.2989 C.ar    1  UNL1       -0.0615
      9 C           5.6961    0.8674   -0.9785 C.ar    1  UNL1       -0.0617
     10 C           4.5349    1.0770   -1.6933 C.ar    1  UNL1       -0.0615
     11 C           3.3036    0.7868   -1.1448 C.ar    1  UNL1       -0.0585
     12 N          -2.4148   -0.9970    0.9621 N.am    1  UNL1       -0.2946
     13 C          -3.5695   -0.3213    0.4710 C.ar    1  UNL1        0.0697
     14 C          -3.9745    0.8992    0.9619 C.ar    1  UNL1        0.0635
     15 CL         -3.0126    1.6189    2.2413 Cl      1  UNL1       -0.0816
     16 C          -5.0957    1.5143    0.4536 C.ar    1  UNL1       -0.0415
     17 C          -5.8500    0.9442   -0.5532 C.ar    1  UNL1       -0.0589
     18 C          -5.4150   -0.2790   -1.0211 C.ar    1  UNL1       -0.0415
     19 C          -4.3081   -0.9083   -0.5341 C.ar    1  UNL1        0.0635
     20 CL         -3.7825   -2.4687   -1.1559 Cl      1  UNL1       -0.0816
     21 H          -0.1848   -2.1452    1.7217 H       1  UNL1        0.1477
     22 H           1.9568   -2.1822    0.7187 H       1  UNL1        0.0465
     23 H           1.2068   -1.5492   -0.7523 H       1  UNL1        0.0465
     24 H           1.8269    0.2093    1.7285 H       1  UNL1        0.0328
     25 H           1.1462    0.7523    0.1965 H       1  UNL1        0.0328
     26 H           4.2574   -0.3228    1.8324 H       1  UNL1        0.0620
     27 H           6.5011    0.2038    0.8389 H       1  UNL1        0.0618
     28 H           6.6663    1.1013   -1.4239 H       1  UNL1        0.0618
     29 H           4.6575    1.4819   -2.7060 H       1  UNL1        0.0618
     30 H           2.4228    0.9638   -1.7333 H       1  UNL1        0.0620
     31 H          -2.5078   -1.6388    1.7737 H       1  UNL1        0.1539
     32 H          -5.4162    2.4848    0.8453 H       1  UNL1        0.0633
     33 H          -6.7080    1.4679   -0.9062 H       1  UNL1        0.0618
     34 H          -5.9892   -0.7615   -1.8203 H       1  UNL1        0.0633
@<TRIPOS>BOND
     1     1     2    2
     2     2     3    1
     3     3     4    1
     4     4     5    1
     5     5     6    1
     6     6     7   ar
     7     7     8   ar
     8     8     9   ar
     9     9    10   ar
    10    10    11   ar
    11     2    12    1
    12    12    13    1
    13    13    14   ar
    14    14    15    1
    15    14    16   ar
    16    16    17   ar
    17    17    18   ar
    18    18    19   ar
    19    19    20    1
    20    11     6   ar
    21    19    13   ar
    22     3    21    1
    23     4    22    1
    24     4    23    1
    25     5    24    1
    26     5    25    1
    27     7    26    1
    28     8    27    1
    29     9    28    1
    30    10    29    1
    31    11    30    1
    32    12    31    1
    33    16    32    1
    34    17    33    1
    35    18    34    1
