
     RDKit          3D

 34 35  0  0  0  0  0  0  0  0999 V2000
   -1.0395    0.1941   -0.9122 S   0  0  0  0  0  0  0  0  0  0  0  0
   -1.1428   -0.8173    0.3738 C   0  0  0  0  0  0  0  0  0  0  0  0
   -0.0207   -1.5080    0.8960 N   0  0  0  0  0  0  0  0  0  0  0  0
    1.3289   -1.3744    0.3456 C   0  0  0  0  0  0  0  0  0  0  0  0
    1.8248   -0.0030    0.6357 C   0  0  0  0  0  0  0  0  0  0  0  0
    3.1749    0.2754    0.1393 C   0  0  0  0  0  0  0  0  0  0  0  0
    4.3426    0.0748    0.8322 C   0  0  0  0  0  0  0  0  0  0  0  0
    5.5841    0.3597    0.2989 C   0  0  0  0  0  0  0  0  0  0  0  0
    5.6961    0.8674   -0.9785 C   0  0  0  0  0  0  0  0  0  0  0  0
    4.5349    1.0770   -1.6933 C   0  0  0  0  0  0  0  0  0  0  0  0
    3.3036    0.7868   -1.1448 C   0  0  0  0  0  0  0  0  0  0  0  0
   -2.4148   -0.9970    0.9621 N   0  0  0  0  0  0  0  0  0  0  0  0
   -3.5695   -0.3213    0.4710 C   0  0  0  0  0  0  0  0  0  0  0  0
   -3.9745    0.8992    0.9619 C   0  0  0  0  0  0  0  0  0  0  0  0
   -3.0126    1.6189    2.2413 Cl  0  0  0  0  0  0  0  0  0  0  0  0
   -5.0957    1.5143    0.4536 C   0  0  0  0  0  0  0  0  0  0  0  0
   -5.8500    0.9442   -0.5532 C   0  0  0  0  0  0  0  0  0  0  0  0
   -5.4150   -0.2790   -1.0211 C   0  0  0  0  0  0  0  0  0  0  0  0
   -4.3081   -0.9083   -0.5341 C   0  0  0  0  0  0  0  0  0  0  0  0
   -3.7825   -2.4687   -1.1559 Cl  0  0  0  0  0  0  0  0  0  0  0  0
   -0.1848   -2.1452    1.7217 H   0  0  0  0  0  0  0  0  0  0  0  0
    1.9568   -2.1822    0.7187 H   0  0  0  0  0  0  0  0  0  0  0  0
    1.2068   -1.5492   -0.7523 H   0  0  0  0  0  0  0  0  0  0  0  0
    1.8269    0.2093    1.7285 H   0  0  0  0  0  0  0  0  0  0  0  0
    1.1462    0.7523    0.1965 H   0  0  0  0  0  0  0  0  0  0  0  0
    4.2574   -0.3228    1.8324 H   0  0  0  0  0  0  0  0  0  0  0  0
    6.5011    0.2038    0.8389 H   0  0  0  0  0  0  0  0  0  0  0  0
    6.6663    1.1013   -1.4239 H   0  0  0  0  0  0  0  0  0  0  0  0
    4.6575    1.4819   -2.7060 H   0  0  0  0  0  0  0  0  0  0  0  0
    2.4228    0.9638   -1.7333 H   0  0  0  0  0  0  0  0  0  0  0  0
   -2.5078   -1.6388    1.7737 H   0  0  0  0  0  0  0  0  0  0  0  0
   -5.4162    2.4848    0.8453 H   0  0  0  0  0  0  0  0  0  0  0  0
   -6.7080    1.4679   -0.9062 H   0  0  0  0  0  0  0  0  0  0  0  0
   -5.9892   -0.7615   -1.8203 H   0  0  0  0  0  0  0  0  0  0  0  0
  1  2  2  0
  2  3  1  0
  3  4  1  0
  4  5  1  0
  5  6  1  0
  6  7  2  0
  7  8  1  0
  8  9  2  0
  9 10  1  0
 10 11  2  0
  2 12  1  0
 12 13  1  0
 13 14  2  0
 14 15  1  0
 14 16  1  0
 16 17  2  0
 17 18  1  0
 18 19  2  0
 19 20  1  0
 11  6  1  0
 19 13  1  0
  3 21  1  0
  4 22  1  0
  4 23  1  0
  5 24  1  0
  5 25  1  0
  7 26  1  0
  8 27  1  0
  9 28  1  0
 10 29  1  0
 11 30  1  0
 12 31  1  0
 16 32  1  0
 17 33  1  0
 18 34  1  0
M  END
$$$$
