@<TRIPOS>MOLECULE
*****
 31 32 0 0 0
SMALL
GASTEIGER

@<TRIPOS>ATOM
      1 C          -0.7417    0.8583   -0.2271 C.3     1  UNL1        0.0255
      2 C           0.6928    0.7793   -0.1430 C.3     1  UNL1       -0.0394
      3 C           1.3782   -0.1519    0.7623 C.3     1  UNL1       -0.0516
      4 C           2.8816   -0.0258    0.6764 C.3     1  UNL1       -0.0466
      5 C           3.4370   -0.2773   -0.6957 C.3     1  UNL1        0.0028
      6 C           4.9341   -0.1252   -0.6278 C.2     1  UNL1        0.1203
      7 O           6.1300   -0.1454   -0.5763 O.2     1  UNL1       -0.3010
      8 S          -1.6114    1.3189    1.3178 S.3     1  UNL1       -0.1536
      9 C          -3.2744    1.0464    0.5661 C.3     1  UNL1        0.0143
     10 C          -2.9608    0.2886   -0.6853 C.3     1  UNL1        0.0529
     11 N          -3.7706   -0.9464   -0.6322 N.am    1  UNL1       -0.2940
     12 C          -3.2221   -1.6162    0.5271 C.2     1  UNL1        0.3002
     13 O          -3.9525   -2.3830    1.2429 O.2     1  UNL1       -0.2528
     14 N          -1.8498   -1.2012    0.5753 N.am    1  UNL1       -0.2937
     15 C          -1.5740   -0.3188   -0.5613 C.3     1  UNL1        0.0555
     16 H          -1.0210    1.6503   -0.9526 H       1  UNL1        0.0431
     17 H           1.0821    0.6130   -1.1761 H       1  UNL1        0.0276
     18 H           1.0679    1.8185    0.0968 H       1  UNL1        0.0276
     19 H           1.1410   -0.0498    1.8347 H       1  UNL1        0.0266
     20 H           1.1549   -1.2077    0.5097 H       1  UNL1        0.0266
     21 H           3.0944    1.0603    0.9046 H       1  UNL1        0.0269
     22 H           3.3959   -0.6573    1.4278 H       1  UNL1        0.0269
     23 H           3.0595    0.3752   -1.4785 H       1  UNL1        0.0339
     24 H           3.2321   -1.3220   -0.9589 H       1  UNL1        0.0339
     25 H           5.1918    0.9199   -0.5902 H       1  UNL1        0.1026
     26 H          -3.9534    0.5249    1.2610 H       1  UNL1        0.0395
     27 H          -3.6079    2.0710    0.2848 H       1  UNL1        0.0395
     28 H          -3.1135    0.8282   -1.6289 H       1  UNL1        0.0525
     29 H          -4.5498   -1.2452   -1.2837 H       1  UNL1        0.1506
     30 H          -1.3484   -1.6240    1.4154 H       1  UNL1        0.1506
     31 H          -1.3219   -0.8557   -1.4638 H       1  UNL1        0.0528
@<TRIPOS>BOND
     1     1     2    1
     2     2     3    1
     3     3     4    1
     4     4     5    1
     5     5     6    1
     6     6     7    2
     7     1     8    1
     8     8     9    1
     9     9    10    1
    10    10    11    1
    11    11    12   am
    12    12    13    2
    13    12    14   am
    14    14    15    1
    15    15     1    1
    16    15    10    1
    17     1    16    1
    18     2    17    1
    19     2    18    1
    20     3    19    1
    21     3    20    1
    22     4    21    1
    23     4    22    1
    24     5    23    1
    25     5    24    1
    26     6    25    1
    27     9    26    1
    28     9    27    1
    29    10    28    1
    30    11    29    1
    31    14    30    1
    32    15    31    1
