@<TRIPOS>MOLECULE
*****
 41 44 0 0 0
SMALL
GASTEIGER

@<TRIPOS>ATOM
      1 N           2.4892   -3.9588   -0.7261 N.1     1  UNL1       -0.1892
      2 C           2.8709   -2.8853   -0.4619 C.1     1  UNL1        0.1208
      3 C           3.3391   -1.5502   -0.1354 C.ar    1  UNL1        0.1618
      4 C           4.6212   -1.2133    0.2486 C.ar    1  UNL1        0.0659
      5 N           4.6763    0.1080    0.4621 N.ar    1  UNL1       -0.2333
      6 C           3.4411    0.6135    0.2174 C.ar    1  UNL1        0.1555
      7 C           2.9152    1.8940    0.2732 C.ar    1  UNL1       -0.0153
      8 C           1.5903    2.0655   -0.0455 C.ar    1  UNL1       -0.0290
      9 C           0.7728    1.0097   -0.4169 C.ar    1  UNL1        0.1103
     10 C          -0.6198    1.2734   -0.7400 C.ar    1  UNL1        0.0968
     11 C          -1.6807    0.7646   -0.0123 C.ar    1  UNL1        0.0982
     12 C          -1.6475   -0.1024    1.1626 C.ar    1  UNL1        0.0030
     13 C          -1.0602    0.2375    2.3552 C.ar    1  UNL1       -0.0525
     14 C          -1.0742   -0.6478    3.4312 C.ar    1  UNL1       -0.0606
     15 C          -1.6861   -1.9034    3.3239 C.ar    1  UNL1       -0.0501
     16 C          -2.2748   -2.2406    2.1248 C.ar    1  UNL1        0.0554
     17 C          -2.9293   -3.5683    2.0007 C.3     1  UNL1        0.4174
     18 F          -3.8360   -3.5098    0.9329 F       1  UNL1       -0.1659
     19 F          -2.0674   -4.5900    1.7473 F       1  UNL1       -0.1659
     20 F          -3.7133   -3.7715    3.1315 F       1  UNL1       -0.1659
     21 C          -2.2457   -1.3460    1.0781 C.ar    1  UNL1       -0.0409
     22 N          -2.7897    1.2306   -0.6168 N.ar    1  UNL1       -0.2351
     23 C          -2.4635    1.9937   -1.6709 C.ar    1  UNL1        0.0973
     24 N          -1.1354    2.0129   -1.7370 N.ar    1  UNL1       -0.3229
     25 C          -0.3583    2.7327   -2.7510 C.3     1  UNL1        0.0852
     26 C          -0.1251    1.7943   -3.9428 C.3     1  UNL1        0.2569
     27 F           0.5611    0.6751   -3.5769 F       1  UNL1       -0.2073
     28 F           0.5047    2.4320   -4.9724 F       1  UNL1       -0.2073
     29 N           1.3451   -0.2033   -0.4505 N.ar    1  UNL1       -0.1623
     30 N           2.6360   -0.3984   -0.1443 N.ar    1  UNL1       -0.2023
     31 H           5.4166   -1.9695    0.3412 H       1  UNL1        0.0859
     32 H           3.5871    2.6886    0.5673 H       1  UNL1        0.0655
     33 H           1.1670    3.0607   -0.0060 H       1  UNL1        0.0641
     34 H          -0.5894    1.2077    2.4332 H       1  UNL1        0.0624
     35 H          -0.5985   -0.3430    4.3580 H       1  UNL1        0.0618
     36 H          -1.6821   -2.5703    4.1754 H       1  UNL1        0.0623
     37 H          -2.7118   -1.6395    0.1622 H       1  UNL1        0.0630
     38 H          -3.1704    2.5032   -2.3461 H       1  UNL1        0.1029
     39 H          -0.9555    3.5923   -3.1306 H       1  UNL1        0.0548
     40 H           0.6153    3.0278   -2.3399 H       1  UNL1        0.0548
     41 H          -1.1343    1.4939   -4.3037 H       1  UNL1        0.1037
@<TRIPOS>BOND
     1     1     2    3
     2     2     3    1
     3     3     4   ar
     4     4     5   ar
     5     5     6   ar
     6     6     7   ar
     7     7     8   ar
     8     8     9   ar
     9     9    10    1
    10    10    11   ar
    11    11    12    1
    12    12    13   ar
    13    13    14   ar
    14    14    15   ar
    15    15    16   ar
    16    16    17    1
    17    17    18    1
    18    17    19    1
    19    17    20    1
    20    16    21   ar
    21    11    22   ar
    22    22    23   ar
    23    23    24   ar
    24    24    25    1
    25    25    26    1
    26    26    27    1
    27    26    28    1
    28     9    29   ar
    29    29    30   ar
    30    30     3   ar
    31    30     6   ar
    32    24    10   ar
    33    21    12   ar
    34     4    31    1
    35     7    32    1
    36     8    33    1
    37    13    34    1
    38    14    35    1
    39    15    36    1
    40    21    37    1
    41    23    38    1
    42    25    39    1
    43    25    40    1
    44    26    41    1
