
     RDKit          3D

 41 44  0  0  0  0  0  0  0  0999 V2000
    2.4892   -3.9588   -0.7261 N   0  0  0  0  0  0  0  0  0  0  0  0
    2.8709   -2.8853   -0.4619 C   0  0  0  0  0  0  0  0  0  0  0  0
    3.3391   -1.5502   -0.1354 C   0  0  0  0  0  0  0  0  0  0  0  0
    4.6212   -1.2133    0.2486 C   0  0  0  0  0  0  0  0  0  0  0  0
    4.6763    0.1080    0.4621 N   0  0  0  0  0  0  0  0  0  0  0  0
    3.4411    0.6135    0.2174 C   0  0  0  0  0  0  0  0  0  0  0  0
    2.9152    1.8940    0.2732 C   0  0  0  0  0  0  0  0  0  0  0  0
    1.5903    2.0655   -0.0455 C   0  0  0  0  0  0  0  0  0  0  0  0
    0.7728    1.0097   -0.4169 C   0  0  0  0  0  0  0  0  0  0  0  0
   -0.6198    1.2734   -0.7400 C   0  0  0  0  0  0  0  0  0  0  0  0
   -1.6807    0.7646   -0.0123 C   0  0  0  0  0  0  0  0  0  0  0  0
   -1.6475   -0.1024    1.1626 C   0  0  0  0  0  0  0  0  0  0  0  0
   -1.0602    0.2375    2.3552 C   0  0  0  0  0  0  0  0  0  0  0  0
   -1.0742   -0.6478    3.4312 C   0  0  0  0  0  0  0  0  0  0  0  0
   -1.6861   -1.9034    3.3239 C   0  0  0  0  0  0  0  0  0  0  0  0
   -2.2748   -2.2406    2.1248 C   0  0  0  0  0  0  0  0  0  0  0  0
   -2.9293   -3.5683    2.0007 C   0  0  0  0  0  0  0  0  0  0  0  0
   -3.8360   -3.5098    0.9329 F   0  0  0  0  0  0  0  0  0  0  0  0
   -2.0674   -4.5900    1.7473 F   0  0  0  0  0  0  0  0  0  0  0  0
   -3.7133   -3.7715    3.1315 F   0  0  0  0  0  0  0  0  0  0  0  0
   -2.2457   -1.3460    1.0781 C   0  0  0  0  0  0  0  0  0  0  0  0
   -2.7897    1.2306   -0.6168 N   0  0  0  0  0  0  0  0  0  0  0  0
   -2.4635    1.9937   -1.6709 C   0  0  0  0  0  0  0  0  0  0  0  0
   -1.1354    2.0129   -1.7370 N   0  0  0  0  0  0  0  0  0  0  0  0
   -0.3583    2.7327   -2.7510 C   0  0  0  0  0  0  0  0  0  0  0  0
   -0.1251    1.7943   -3.9428 C   0  0  0  0  0  0  0  0  0  0  0  0
    0.5611    0.6751   -3.5769 F   0  0  0  0  0  0  0  0  0  0  0  0
    0.5047    2.4320   -4.9724 F   0  0  0  0  0  0  0  0  0  0  0  0
    1.3451   -0.2033   -0.4505 N   0  0  0  0  0  0  0  0  0  0  0  0
    2.6360   -0.3984   -0.1443 N   0  0  0  0  0  0  0  0  0  0  0  0
    5.4166   -1.9695    0.3412 H   0  0  0  0  0  0  0  0  0  0  0  0
    3.5871    2.6886    0.5673 H   0  0  0  0  0  0  0  0  0  0  0  0
    1.1670    3.0607   -0.0060 H   0  0  0  0  0  0  0  0  0  0  0  0
   -0.5894    1.2077    2.4332 H   0  0  0  0  0  0  0  0  0  0  0  0
   -0.5985   -0.3430    4.3580 H   0  0  0  0  0  0  0  0  0  0  0  0
   -1.6821   -2.5703    4.1754 H   0  0  0  0  0  0  0  0  0  0  0  0
   -2.7118   -1.6395    0.1622 H   0  0  0  0  0  0  0  0  0  0  0  0
   -3.1704    2.5032   -2.3461 H   0  0  0  0  0  0  0  0  0  0  0  0
   -0.9555    3.5923   -3.1306 H   0  0  0  0  0  0  0  0  0  0  0  0
    0.6153    3.0278   -2.3399 H   0  0  0  0  0  0  0  0  0  0  0  0
   -1.1343    1.4939   -4.3037 H   0  0  0  0  0  0  0  0  0  0  0  0
  1  2  3  0
  2  3  1  0
  3  4  2  0
  4  5  1  0
  5  6  2  0
  6  7  1  0
  7  8  2  0
  8  9  1  0
  9 10  1  0
 10 11  2  0
 11 12  1  0
 12 13  2  0
 13 14  1  0
 14 15  2  0
 15 16  1  0
 16 17  1  0
 17 18  1  0
 17 19  1  0
 17 20  1  0
 16 21  2  0
 11 22  1  0
 22 23  2  0
 23 24  1  0
 24 25  1  0
 25 26  1  0
 26 27  1  0
 26 28  1  0
  9 29  2  0
 29 30  1  0
 30  3  1  0
 30  6  1  0
 24 10  1  0
 21 12  1  0
  4 31  1  0
  7 32  1  0
  8 33  1  0
 13 34  1  0
 14 35  1  0
 15 36  1  0
 21 37  1  0
 23 38  1  0
 25 39  1  0
 25 40  1  0
 26 41  1  0
M  END
$$$$
