
     RDKit          3D

 48 50  0  0  0  0  0  0  0  0999 V2000
    5.3640    1.1545    1.1317 C   0  0  0  0  0  0  0  0  0  0  0  0
    4.7577    0.1250    0.1556 C   0  0  0  0  0  0  0  0  0  0  0  0
    3.7565    0.8280   -0.6912 C   0  0  0  0  0  0  0  0  0  0  0  0
    3.0649   -0.0256   -1.7216 C   0  0  0  0  0  0  0  0  0  0  0  0
    2.2753   -1.1539   -1.0436 C   0  0  0  0  0  0  0  0  0  0  0  0
    1.2472   -0.5594   -0.1319 C   0  0  0  0  0  0  0  0  0  0  0  0
    0.0144   -1.2630   -0.0504 N   0  0  0  0  0  0  0  0  0  0  0  0
   -1.0787   -0.6272    0.6178 C   0  0  0  0  0  0  0  0  0  0  0  0
   -2.0282    0.0362   -0.0936 N   0  0  0  0  0  0  0  0  0  0  0  0
   -3.0701    0.6568    0.5166 C   0  0  0  0  0  0  0  0  0  0  0  0
   -4.0802    1.3607   -0.2581 C   0  0  0  0  0  0  0  0  0  0  0  0
   -5.1455    2.0201    0.2927 C   0  0  0  0  0  0  0  0  0  0  0  0
   -6.0726    2.6690   -0.5355 C   0  0  0  0  0  0  0  0  0  0  0  0
   -5.9326    2.6549   -1.8733 N   0  0  0  0  0  0  0  0  0  0  0  0
   -4.8825    2.0077   -2.4618 C   0  0  0  0  0  0  0  0  0  0  0  0
   -3.9838    1.3776   -1.6432 C   0  0  0  0  0  0  0  0  0  0  0  0
   -2.9430    0.7300   -2.2176 F   0  0  0  0  0  0  0  0  0  0  0  0
   -3.1083    0.5747    1.8864 C   0  0  0  0  0  0  0  0  0  0  0  0
   -2.1266   -0.1110    2.6182 C   0  0  0  0  0  0  0  0  0  0  0  0
   -2.1854   -0.1715    3.8714 O   0  0  0  0  0  0  0  0  0  0  0  0
   -1.1171   -0.7064    1.9564 N   0  0  0  0  0  0  0  0  0  0  0  0
   -0.0947   -1.4078    2.6866 C   0  0  0  0  0  0  0  0  0  0  0  0
   -0.0838   -2.5736   -0.6551 C   0  0  0  0  0  0  0  0  0  0  0  0
    0.5506   -2.3985   -2.0381 C   0  0  0  0  0  0  0  0  0  0  0  0
    1.8624   -2.1071   -1.9125 O   0  0  0  0  0  0  0  0  0  0  0  0
    4.8095    1.0172    2.0990 H   0  0  0  0  0  0  0  0  0  0  0  0
    6.4278    0.9460    1.2949 H   0  0  0  0  0  0  0  0  0  0  0  0
    5.2505    2.1590    0.7163 H   0  0  0  0  0  0  0  0  0  0  0  0
    5.6335   -0.2535   -0.4384 H   0  0  0  0  0  0  0  0  0  0  0  0
    4.3403   -0.7052    0.7194 H   0  0  0  0  0  0  0  0  0  0  0  0
    4.2855    1.6877   -1.1985 H   0  0  0  0  0  0  0  0  0  0  0  0
    3.0089    1.3014    0.0101 H   0  0  0  0  0  0  0  0  0  0  0  0
    3.8323   -0.4509   -2.3897 H   0  0  0  0  0  0  0  0  0  0  0  0
    2.3667    0.6346   -2.2829 H   0  0  0  0  0  0  0  0  0  0  0  0
    3.0310   -1.6585   -0.3694 H   0  0  0  0  0  0  0  0  0  0  0  0
    1.0555    0.4911   -0.4789 H   0  0  0  0  0  0  0  0  0  0  0  0
    1.6421   -0.4160    0.9174 H   0  0  0  0  0  0  0  0  0  0  0  0
   -5.2780    2.0452    1.3532 H   0  0  0  0  0  0  0  0  0  0  0  0
   -6.9101    3.1862   -0.1008 H   0  0  0  0  0  0  0  0  0  0  0  0
   -4.8025    2.0207   -3.5386 H   0  0  0  0  0  0  0  0  0  0  0  0
   -3.9037    1.0419    2.4359 H   0  0  0  0  0  0  0  0  0  0  0  0
    0.3991   -2.1460    2.0468 H   0  0  0  0  0  0  0  0  0  0  0  0
    0.6626   -0.7205    3.1253 H   0  0  0  0  0  0  0  0  0  0  0  0
   -0.5357   -1.9605    3.5621 H   0  0  0  0  0  0  0  0  0  0  0  0
    0.4862   -3.3063   -0.0570 H   0  0  0  0  0  0  0  0  0  0  0  0
   -1.1463   -2.9161   -0.7307 H   0  0  0  0  0  0  0  0  0  0  0  0
   -0.0734   -1.6865   -2.5924 H   0  0  0  0  0  0  0  0  0  0  0  0
    0.4584   -3.4013   -2.5090 H   0  0  0  0  0  0  0  0  0  0  0  0
  1  2  1  0
  2  3  1  0
  3  4  1  0
  4  5  1  0
  5  6  1  0
  6  7  1  0
  7  8  1  0
  8  9  2  0
  9 10  1  0
 10 11  1  0
 11 12  2  0
 12 13  1  0
 13 14  2  0
 14 15  1  0
 15 16  2  0
 16 17  1  0
 10 18  2  0
 18 19  1  0
 19 20  2  0
 19 21  1  0
 21 22  1  0
  7 23  1  0
 23 24  1  0
 24 25  1  0
 25  5  1  0
 21  8  1  0
 16 11  1  0
  1 26  1  0
  1 27  1  0
  1 28  1  0
  2 29  1  0
  2 30  1  0
  3 31  1  0
  3 32  1  0
  4 33  1  0
  4 34  1  0
  5 35  1  0
  6 36  1  0
  6 37  1  0
 12 38  1  0
 13 39  1  0
 15 40  1  0
 18 41  1  0
 22 42  1  0
 22 43  1  0
 22 44  1  0
 23 45  1  0
 23 46  1  0
 24 47  1  0
 24 48  1  0
M  END
$$$$
