@<TRIPOS>MOLECULE
*****
 48 50 0 0 0
SMALL
GASTEIGER

@<TRIPOS>ATOM
      1 C           5.3640    1.1545    1.1317 C.3     1  UNL1       -0.0653
      2 C           4.7577    0.1250    0.1556 C.3     1  UNL1       -0.0558
      3 C           3.7565    0.8280   -0.6912 C.3     1  UNL1       -0.0509
      4 C           3.0649   -0.0256   -1.7216 C.3     1  UNL1       -0.0251
      5 C           2.2753   -1.1539   -1.0436 C.3     1  UNL1        0.0744
      6 C           1.2472   -0.5594   -0.1319 C.3     1  UNL1        0.0412
      7 N           0.0144   -1.2630   -0.0504 N.pl3   1  UNL1       -0.2963
      8 C          -1.0787   -0.6272    0.6178 C.ar    1  UNL1        0.2013
      9 N          -2.0282    0.0362   -0.0936 N.ar    1  UNL1       -0.2154
     10 C          -3.0701    0.6568    0.5166 C.ar    1  UNL1        0.0825
     11 C          -4.0802    1.3607   -0.2581 C.ar    1  UNL1        0.0387
     12 C          -5.1455    2.0201    0.2927 C.ar    1  UNL1       -0.0316
     13 C          -6.0726    2.6690   -0.5355 C.ar    1  UNL1        0.0284
     14 N          -5.9326    2.6549   -1.8733 N.ar    1  UNL1       -0.2604
     15 C          -4.8825    2.0077   -2.4618 C.ar    1  UNL1        0.0634
     16 C          -3.9838    1.3776   -1.6432 C.ar    1  UNL1        0.1505
     17 F          -2.9430    0.7300   -2.2176 F       1  UNL1       -0.2032
     18 C          -3.1083    0.5747    1.8864 C.ar    1  UNL1        0.0292
     19 C          -2.1266   -0.1110    2.6182 C.ar    1  UNL1        0.2555
     20 O          -2.1854   -0.1715    3.8714 O.2     1  UNL1       -0.2675
     21 N          -1.1171   -0.7064    1.9564 N.ar    1  UNL1       -0.2839
     22 C          -0.0947   -1.4078    2.6866 C.3     1  UNL1        0.0178
     23 C          -0.0838   -2.5736   -0.6551 C.3     1  UNL1        0.0384
     24 C           0.5506   -2.3985   -2.0381 C.3     1  UNL1        0.0638
     25 O           1.8624   -2.1071   -1.9125 O.3     1  UNL1       -0.3735
     26 H           4.8095    1.0172    2.0990 H       1  UNL1        0.0230
     27 H           6.4278    0.9460    1.2949 H       1  UNL1        0.0230
     28 H           5.2505    2.1590    0.7163 H       1  UNL1        0.0230
     29 H           5.6335   -0.2535   -0.4384 H       1  UNL1        0.0263
     30 H           4.3403   -0.7052    0.7194 H       1  UNL1        0.0263
     31 H           4.2855    1.6877   -1.1985 H       1  UNL1        0.0266
     32 H           3.0089    1.3014    0.0101 H       1  UNL1        0.0266
     33 H           3.8323   -0.4509   -2.3897 H       1  UNL1        0.0291
     34 H           2.3667    0.6346   -2.2829 H       1  UNL1        0.0291
     35 H           3.0310   -1.6585   -0.3694 H       1  UNL1        0.0611
     36 H           1.0555    0.4911   -0.4789 H       1  UNL1        0.0490
     37 H           1.6421   -0.4160    0.9174 H       1  UNL1        0.0490
     38 H          -5.2780    2.0452    1.3532 H       1  UNL1        0.0640
     39 H          -6.9101    3.1862   -0.1008 H       1  UNL1        0.0830
     40 H          -4.8025    2.0207   -3.5386 H       1  UNL1        0.0859
     41 H          -3.9037    1.0419    2.4359 H       1  UNL1        0.0693
     42 H           0.3991   -2.1460    2.0468 H       1  UNL1        0.0458
     43 H           0.6626   -0.7205    3.1253 H       1  UNL1        0.0458
     44 H          -0.5357   -1.9605    3.5621 H       1  UNL1        0.0458
     45 H           0.4862   -3.3063   -0.0570 H       1  UNL1        0.0487
     46 H          -1.1463   -2.9161   -0.7307 H       1  UNL1        0.0487
     47 H          -0.0734   -1.6865   -2.5924 H       1  UNL1        0.0575
     48 H           0.4584   -3.4013   -2.5090 H       1  UNL1        0.0575
@<TRIPOS>BOND
     1     1     2    1
     2     2     3    1
     3     3     4    1
     4     4     5    1
     5     5     6    1
     6     6     7    1
     7     7     8    1
     8     8     9   ar
     9     9    10   ar
    10    10    11    1
    11    11    12   ar
    12    12    13   ar
    13    13    14   ar
    14    14    15   ar
    15    15    16   ar
    16    16    17    1
    17    10    18   ar
    18    18    19   ar
    19    19    20    2
    20    19    21   ar
    21    21    22    1
    22     7    23    1
    23    23    24    1
    24    24    25    1
    25    25     5    1
    26    21     8   ar
    27    16    11   ar
    28     1    26    1
    29     1    27    1
    30     1    28    1
    31     2    29    1
    32     2    30    1
    33     3    31    1
    34     3    32    1
    35     4    33    1
    36     4    34    1
    37     5    35    1
    38     6    36    1
    39     6    37    1
    40    12    38    1
    41    13    39    1
    42    15    40    1
    43    18    41    1
    44    22    42    1
    45    22    43    1
    46    22    44    1
    47    23    45    1
    48    23    46    1
    49    24    47    1
    50    24    48    1
