@<TRIPOS>MOLECULE
*****
 65 68 0 0 0
SMALL
GASTEIGER

@<TRIPOS>ATOM
      1 C          -3.4539    3.1217    2.3973 C.3     1  UNL1       -0.0131
      2 N          -4.6147    2.6997    1.6670 N.3     1  UNL1       -0.3083
      3 C          -5.4714    1.7985    2.3832 C.3     1  UNL1       -0.0131
      4 C          -4.3248    2.3086    0.3151 C.3     1  UNL1       -0.0016
      5 C          -3.4987    1.0223    0.2387 C.3     1  UNL1       -0.0382
      6 C          -3.2736    0.7340   -1.2095 C.3     1  UNL1       -0.0292
      7 C          -2.4731   -0.5062   -1.4813 C.3     1  UNL1        0.0484
      8 N          -1.1558   -0.4140   -0.8824 N.am    1  UNL1       -0.3070
      9 C           0.0193   -0.3706   -1.6547 C.2     1  UNL1        0.2336
     10 O          -0.0831   -0.4113   -2.9082 O.2     1  UNL1       -0.2738
     11 C           1.3157   -0.2791   -0.9371 C.3     1  UNL1        0.0965
     12 N           2.3578   -0.2338   -1.9438 N.3     1  UNL1       -0.3173
     13 C           1.4279    0.9835   -0.1031 C.3     1  UNL1       -0.0104
     14 C           2.9060    1.1785    0.1381 C.3     1  UNL1        0.0156
     15 N           3.5359   -0.0501    0.5500 N.pl3   1  UNL1       -0.3144
     16 C           4.9239    0.0795    0.9443 C.ar    1  UNL1        0.1337
     17 N           5.2308   -0.0207    2.2471 N.ar    1  UNL1       -0.2200
     18 C           6.5233    0.1217    2.6577 C.ar    1  UNL1        0.1204
     19 N           7.5067    0.3633    1.7707 N.ar    1  UNL1       -0.2178
     20 C           7.2510    0.4726    0.4486 C.ar    1  UNL1        0.1432
     21 N           8.0515    0.6969   -0.6014 N.ar    1  UNL1       -0.3457
     22 C           7.2624    0.6952   -1.6822 C.ar    1  UNL1        0.0042
     23 C           5.9468    0.4677   -1.3160 C.ar    1  UNL1       -0.0318
     24 C           5.9187    0.3238    0.0413 C.ar    1  UNL1        0.0585
     25 C           2.9032   -1.3267    0.5914 C.3     1  UNL1        0.0156
     26 C           1.5343   -1.4256    0.0021 C.3     1  UNL1       -0.0104
     27 C          -3.1680   -1.7516   -1.0987 C.ar    1  UNL1       -0.0271
     28 C          -3.8382   -2.4724   -2.0632 C.ar    1  UNL1       -0.0554
     29 C          -4.5114   -3.6409   -1.8161 C.ar    1  UNL1       -0.0431
     30 C          -4.5135   -4.1163   -0.5235 C.ar    1  UNL1        0.0410
     31 CL         -5.3667   -5.5994   -0.2116 Cl      1  UNL1       -0.0835
     32 C          -3.8511   -3.4152    0.4616 C.ar    1  UNL1       -0.0431
     33 C          -3.1794   -2.2414    0.1932 C.ar    1  UNL1       -0.0554
     34 H          -3.5410    4.1907    2.7290 H       1  UNL1        0.0391
     35 H          -3.3867    2.5046    3.3196 H       1  UNL1        0.0391
     36 H          -2.5213    2.9541    1.8223 H       1  UNL1        0.0391
     37 H          -5.7199    0.9523    1.7098 H       1  UNL1        0.0391
     38 H          -6.4211    2.2683    2.7117 H       1  UNL1        0.0391
     39 H          -4.9074    1.3916    3.2612 H       1  UNL1        0.0391
     40 H          -5.2326    2.2480   -0.3190 H       1  UNL1        0.0426
     41 H          -3.7300    3.1596   -0.1268 H       1  UNL1        0.0426
     42 H          -2.5790    1.1810    0.8128 H       1  UNL1        0.0278
     43 H          -4.0792    0.2276    0.7488 H       1  UNL1        0.0278
     44 H          -2.7111    1.5929   -1.6342 H       1  UNL1        0.0287
     45 H          -4.2542    0.7206   -1.7190 H       1  UNL1        0.0287
     46 H          -2.3197   -0.5298   -2.5971 H       1  UNL1        0.0548
     47 H          -1.1173   -0.3804    0.1632 H       1  UNL1        0.1493
     48 H           2.2429   -0.9868   -2.6559 H       1  UNL1        0.1192
     49 H           2.3083    0.7021   -2.4346 H       1  UNL1        0.1192
     50 H           0.9994    1.8611   -0.6319 H       1  UNL1        0.0303
     51 H           0.9061    0.7894    0.8575 H       1  UNL1        0.0303
     52 H           3.3815    1.4938   -0.8212 H       1  UNL1        0.0465
     53 H           3.0789    1.9802    0.9015 H       1  UNL1        0.0465
     54 H           6.8034    0.0469    3.6986 H       1  UNL1        0.1048
     55 H           9.0864    0.8471   -0.6044 H       1  UNL1        0.1668
     56 H           7.6134    0.8499   -2.6895 H       1  UNL1        0.0807
     57 H           5.0836    0.4031   -1.9623 H       1  UNL1        0.0640
     58 H           2.8071   -1.5895    1.6840 H       1  UNL1        0.0465
     59 H           3.5687   -2.1342    0.1455 H       1  UNL1        0.0465
     60 H           1.4391   -2.4094   -0.5163 H       1  UNL1        0.0303
     61 H           0.7549   -1.3592    0.8192 H       1  UNL1        0.0303
     62 H          -3.8394   -2.0987   -3.0929 H       1  UNL1        0.0621
     63 H          -5.0150   -4.1519   -2.6264 H       1  UNL1        0.0632
     64 H          -3.8768   -3.8257    1.4739 H       1  UNL1        0.0632
     65 H          -2.6597   -1.6909    0.9581 H       1  UNL1        0.0621
@<TRIPOS>BOND
     1     1     2    1
     2     2     3    1
     3     2     4    1
     4     4     5    1
     5     5     6    1
     6     6     7    1
     7     7     8    1
     8     8     9   am
     9     9    10    2
    10     9    11    1
    11    11    12    1
    12    11    13    1
    13    13    14    1
    14    14    15    1
    15    15    16    1
    16    16    17   ar
    17    17    18   ar
    18    18    19   ar
    19    19    20   ar
    20    20    21   ar
    21    21    22   ar
    22    22    23   ar
    23    23    24   ar
    24    15    25    1
    25    25    26    1
    26     7    27    1
    27    27    28   ar
    28    28    29   ar
    29    29    30   ar
    30    30    31    1
    31    30    32   ar
    32    32    33   ar
    33    26    11    1
    34    33    27   ar
    35    24    16   ar
    36    24    20   ar
    37     1    34    1
    38     1    35    1
    39     1    36    1
    40     3    37    1
    41     3    38    1
    42     3    39    1
    43     4    40    1
    44     4    41    1
    45     5    42    1
    46     5    43    1
    47     6    44    1
    48     6    45    1
    49     7    46    1
    50     8    47    1
    51    12    48    1
    52    12    49    1
    53    13    50    1
    54    13    51    1
    55    14    52    1
    56    14    53    1
    57    18    54    1
    58    21    55    1
    59    22    56    1
    60    23    57    1
    61    25    58    1
    62    25    59    1
    63    26    60    1
    64    26    61    1
    65    28    62    1
    66    29    63    1
    67    32    64    1
    68    33    65    1
