@<TRIPOS>MOLECULE
*****
 24 25 0 0 0
SMALL
GASTEIGER

@<TRIPOS>ATOM
      1 O          -2.0512   -2.2466   -1.8430 O.3     1  UNL1       -0.5032
      2 C          -2.2373   -1.1643   -1.0103 C.ar    1  UNL1        0.1605
      3 C          -3.4811   -0.6885   -0.7086 C.ar    1  UNL1        0.0018
      4 C          -3.5858    0.3952    0.1297 C.ar    1  UNL1        0.0447
      5 CL         -5.1281    1.0867    0.5824 Cl      1  UNL1       -0.0834
      6 C          -2.4517    1.0024    0.6659 C.ar    1  UNL1       -0.0397
      7 C          -1.1970    0.5009    0.3452 C.ar    1  UNL1       -0.0143
      8 C          -1.0736   -0.5752   -0.4870 C.ar    1  UNL1        0.1697
      9 O           0.1756   -1.0795   -0.8143 O.3     1  UNL1       -0.4509
     10 C           1.3207   -0.4572   -0.3587 C.ar    1  UNL1        0.1469
     11 C           2.1861   -1.1148    0.5105 C.ar    1  UNL1       -0.0165
     12 C           3.3349   -0.5065    0.9730 C.ar    1  UNL1       -0.0398
     13 C           3.6387    0.7805    0.5697 C.ar    1  UNL1        0.0426
     14 CL          5.0977    1.5617    1.1539 Cl      1  UNL1       -0.0835
     15 C           2.7703    1.4153   -0.2914 C.ar    1  UNL1       -0.0215
     16 C           1.6079    0.8258   -0.7722 C.ar    1  UNL1        0.0845
     17 CL          0.5534    1.6712   -1.8957 Cl      1  UNL1       -0.0797
     18 H          -1.2051   -2.3584   -2.3819 H       1  UNL1        0.2923
     19 H          -4.3522   -1.1481   -1.1148 H       1  UNL1        0.0670
     20 H          -2.5068    1.8505    1.3235 H       1  UNL1        0.0633
     21 H          -0.3314    0.9975    0.8000 H       1  UNL1        0.0656
     22 H           1.9167   -2.1271    0.8079 H       1  UNL1        0.0655
     23 H           4.0004   -1.0397    1.6542 H       1  UNL1        0.0633
     24 H           2.9986    2.4182   -0.6112 H       1  UNL1        0.0648
@<TRIPOS>BOND
     1     1     2    1
     2     2     3   ar
     3     3     4   ar
     4     4     5    1
     5     4     6   ar
     6     6     7   ar
     7     7     8   ar
     8     8     9    1
     9     9    10    1
    10    10    11   ar
    11    11    12   ar
    12    12    13   ar
    13    13    14    1
    14    13    15   ar
    15    15    16   ar
    16    16    17    1
    17     8     2   ar
    18    16    10   ar
    19     1    18    1
    20     3    19    1
    21     6    20    1
    22     7    21    1
    23    11    22    1
    24    12    23    1
    25    15    24    1
