@<TRIPOS>MOLECULE
*****
 45 48 0 0 0
SMALL
GASTEIGER

@<TRIPOS>ATOM
      1 N           5.1677    0.0152   -2.0763 N.am    1  UNL1       -0.3240
      2 C           3.8746    0.0980   -1.5036 C.2     1  UNL1        0.2615
      3 O           3.1226    1.0289   -1.8394 O.2     1  UNL1       -0.2687
      4 C           3.4769   -0.9200   -0.5364 C.ar    1  UNL1        0.1470
      5 C           4.2122   -1.9959   -0.0861 C.ar    1  UNL1        0.0605
      6 N           3.4753   -2.6628    0.7855 N.ar    1  UNL1       -0.2339
      7 C           2.2895   -2.0625    0.9196 C.ar    1  UNL1        0.1549
      8 C           1.1577   -2.3428    1.6951 C.ar    1  UNL1       -0.0153
      9 C           0.0791   -1.4921    1.5868 C.ar    1  UNL1       -0.0290
     10 C           0.0944   -0.3916    0.7449 C.ar    1  UNL1        0.1103
     11 C          -1.0686    0.4956    0.6534 C.ar    1  UNL1        0.0966
     12 C          -2.3105    0.1000    0.2344 C.ar    1  UNL1        0.0982
     13 C          -2.7383   -1.2406   -0.1965 C.ar    1  UNL1        0.0027
     14 C          -3.7169   -1.9296    0.4896 C.ar    1  UNL1       -0.0498
     15 C          -4.1479   -3.1875    0.1199 C.ar    1  UNL1       -0.0258
     16 C          -3.5939   -3.7981   -0.9731 C.ar    1  UNL1        0.1234
     17 F          -3.9939   -5.0327   -1.3632 F       1  UNL1       -0.2055
     18 C          -2.6078   -3.1114   -1.6697 C.ar    1  UNL1       -0.0258
     19 C          -2.1788   -1.8544   -1.2981 C.ar    1  UNL1       -0.0498
     20 N          -3.1170    1.1766    0.2800 N.ar    1  UNL1       -0.2351
     21 C          -2.4254    2.2440    0.7151 C.ar    1  UNL1        0.0971
     22 N          -1.1747    1.8053    0.9376 N.ar    1  UNL1       -0.3283
     23 C          -0.0888    2.6324    1.4174 C.3     1  UNL1        0.0268
     24 C           0.6866    3.2751    0.3055 C.3     1  UNL1       -0.0116
     25 C          -0.1416    4.1676   -0.5673 C.3     1  UNL1        0.0458
     26 O          -0.7359    5.2177    0.0834 O.3     1  UNL1       -0.3949
     27 N           1.2140   -0.1938    0.0379 N.ar    1  UNL1       -0.1628
     28 N           2.2823   -0.9926    0.1120 N.ar    1  UNL1       -0.2076
     29 H           5.7756    0.8791   -2.1028 H       1  UNL1        0.1453
     30 H           5.5184   -0.8781   -2.4657 H       1  UNL1        0.1453
     31 H           5.2179   -2.1913   -0.4380 H       1  UNL1        0.0854
     32 H           1.1718   -3.2068    2.3433 H       1  UNL1        0.0655
     33 H          -0.8191   -1.6672    2.1660 H       1  UNL1        0.0641
     34 H          -4.1913   -1.4995    1.3608 H       1  UNL1        0.0625
     35 H          -4.9206   -3.7210    0.6693 H       1  UNL1        0.0646
     36 H          -2.1853   -3.6219   -2.5348 H       1  UNL1        0.0646
     37 H          -1.4058   -1.3699   -1.8818 H       1  UNL1        0.0625
     38 H          -2.8179    3.2614    0.8551 H       1  UNL1        0.1029
     39 H           0.6415    1.9781    1.9683 H       1  UNL1        0.0493
     40 H          -0.4057    3.3980    2.1340 H       1  UNL1        0.0493
     41 H           1.4619    3.9242    0.7956 H       1  UNL1        0.0304
     42 H           1.2365    2.5800   -0.3340 H       1  UNL1        0.0304
     43 H           0.5649    4.6124   -1.3235 H       1  UNL1        0.0558
     44 H          -0.8512    3.5536   -1.1708 H       1  UNL1        0.0558
     45 H          -1.0843    4.9211    0.9505 H       1  UNL1        0.2094
@<TRIPOS>BOND
     1     1     2   am
     2     2     3    2
     3     2     4    1
     4     4     5   ar
     5     5     6   ar
     6     6     7   ar
     7     7     8   ar
     8     8     9   ar
     9     9    10   ar
    10    10    11    1
    11    11    12   ar
    12    12    13    1
    13    13    14   ar
    14    14    15   ar
    15    15    16   ar
    16    16    17    1
    17    16    18   ar
    18    18    19   ar
    19    12    20   ar
    20    20    21   ar
    21    21    22   ar
    22    22    23    1
    23    23    24    1
    24    24    25    1
    25    25    26    1
    26    10    27   ar
    27    27    28   ar
    28    28     4   ar
    29    28     7   ar
    30    22    11   ar
    31    19    13   ar
    32     1    29    1
    33     1    30    1
    34     5    31    1
    35     8    32    1
    36     9    33    1
    37    14    34    1
    38    15    35    1
    39    18    36    1
    40    19    37    1
    41    21    38    1
    42    23    39    1
    43    23    40    1
    44    24    41    1
    45    24    42    1
    46    25    43    1
    47    25    44    1
    48    26    45    1
