
     RDKit          3D

 45 48  0  0  0  0  0  0  0  0999 V2000
    5.1677    0.0152   -2.0763 N   0  0  0  0  0  0  0  0  0  0  0  0
    3.8746    0.0980   -1.5036 C   0  0  0  0  0  0  0  0  0  0  0  0
    3.1226    1.0289   -1.8394 O   0  0  0  0  0  0  0  0  0  0  0  0
    3.4769   -0.9200   -0.5364 C   0  0  0  0  0  0  0  0  0  0  0  0
    4.2122   -1.9959   -0.0861 C   0  0  0  0  0  0  0  0  0  0  0  0
    3.4753   -2.6628    0.7855 N   0  0  0  0  0  0  0  0  0  0  0  0
    2.2895   -2.0625    0.9196 C   0  0  0  0  0  0  0  0  0  0  0  0
    1.1577   -2.3428    1.6951 C   0  0  0  0  0  0  0  0  0  0  0  0
    0.0791   -1.4921    1.5868 C   0  0  0  0  0  0  0  0  0  0  0  0
    0.0944   -0.3916    0.7449 C   0  0  0  0  0  0  0  0  0  0  0  0
   -1.0686    0.4956    0.6534 C   0  0  0  0  0  0  0  0  0  0  0  0
   -2.3105    0.1000    0.2344 C   0  0  0  0  0  0  0  0  0  0  0  0
   -2.7383   -1.2406   -0.1965 C   0  0  0  0  0  0  0  0  0  0  0  0
   -3.7169   -1.9296    0.4896 C   0  0  0  0  0  0  0  0  0  0  0  0
   -4.1479   -3.1875    0.1199 C   0  0  0  0  0  0  0  0  0  0  0  0
   -3.5939   -3.7981   -0.9731 C   0  0  0  0  0  0  0  0  0  0  0  0
   -3.9939   -5.0327   -1.3632 F   0  0  0  0  0  0  0  0  0  0  0  0
   -2.6078   -3.1114   -1.6697 C   0  0  0  0  0  0  0  0  0  0  0  0
   -2.1788   -1.8544   -1.2981 C   0  0  0  0  0  0  0  0  0  0  0  0
   -3.1170    1.1766    0.2800 N   0  0  0  0  0  0  0  0  0  0  0  0
   -2.4254    2.2440    0.7151 C   0  0  0  0  0  0  0  0  0  0  0  0
   -1.1747    1.8053    0.9376 N   0  0  0  0  0  0  0  0  0  0  0  0
   -0.0888    2.6324    1.4174 C   0  0  0  0  0  0  0  0  0  0  0  0
    0.6866    3.2751    0.3055 C   0  0  0  0  0  0  0  0  0  0  0  0
   -0.1416    4.1676   -0.5673 C   0  0  0  0  0  0  0  0  0  0  0  0
   -0.7359    5.2177    0.0834 O   0  0  0  0  0  0  0  0  0  0  0  0
    1.2140   -0.1938    0.0379 N   0  0  0  0  0  0  0  0  0  0  0  0
    2.2823   -0.9926    0.1120 N   0  0  0  0  0  0  0  0  0  0  0  0
    5.7756    0.8791   -2.1028 H   0  0  0  0  0  0  0  0  0  0  0  0
    5.5184   -0.8781   -2.4657 H   0  0  0  0  0  0  0  0  0  0  0  0
    5.2179   -2.1913   -0.4380 H   0  0  0  0  0  0  0  0  0  0  0  0
    1.1718   -3.2068    2.3433 H   0  0  0  0  0  0  0  0  0  0  0  0
   -0.8191   -1.6672    2.1660 H   0  0  0  0  0  0  0  0  0  0  0  0
   -4.1913   -1.4995    1.3608 H   0  0  0  0  0  0  0  0  0  0  0  0
   -4.9206   -3.7210    0.6693 H   0  0  0  0  0  0  0  0  0  0  0  0
   -2.1853   -3.6219   -2.5348 H   0  0  0  0  0  0  0  0  0  0  0  0
   -1.4058   -1.3699   -1.8818 H   0  0  0  0  0  0  0  0  0  0  0  0
   -2.8179    3.2614    0.8551 H   0  0  0  0  0  0  0  0  0  0  0  0
    0.6415    1.9781    1.9683 H   0  0  0  0  0  0  0  0  0  0  0  0
   -0.4057    3.3980    2.1340 H   0  0  0  0  0  0  0  0  0  0  0  0
    1.4619    3.9242    0.7956 H   0  0  0  0  0  0  0  0  0  0  0  0
    1.2365    2.5800   -0.3340 H   0  0  0  0  0  0  0  0  0  0  0  0
    0.5649    4.6124   -1.3235 H   0  0  0  0  0  0  0  0  0  0  0  0
   -0.8512    3.5536   -1.1708 H   0  0  0  0  0  0  0  0  0  0  0  0
   -1.0843    4.9211    0.9505 H   0  0  0  0  0  0  0  0  0  0  0  0
  1  2  1  0
  2  3  2  0
  2  4  1  0
  4  5  2  0
  5  6  1  0
  6  7  2  0
  7  8  1  0
  8  9  2  0
  9 10  1  0
 10 11  1  0
 11 12  2  0
 12 13  1  0
 13 14  2  0
 14 15  1  0
 15 16  2  0
 16 17  1  0
 16 18  1  0
 18 19  2  0
 12 20  1  0
 20 21  2  0
 21 22  1  0
 22 23  1  0
 23 24  1  0
 24 25  1  0
 25 26  1  0
 10 27  2  0
 27 28  1  0
 28  4  1  0
 28  7  1  0
 22 11  1  0
 19 13  1  0
  1 29  1  0
  1 30  1  0
  5 31  1  0
  8 32  1  0
  9 33  1  0
 14 34  1  0
 15 35  1  0
 18 36  1  0
 19 37  1  0
 21 38  1  0
 23 39  1  0
 23 40  1  0
 24 41  1  0
 24 42  1  0
 25 43  1  0
 25 44  1  0
 26 45  1  0
M  END
$$$$
