@<TRIPOS>MOLECULE
*****
 53 57 0 0 0
SMALL
GASTEIGER

@<TRIPOS>ATOM
      1 C          -5.4104   -1.4668    1.6688 C.3     1  UNL1       -0.0126
      2 N          -5.0576   -0.5683    0.6161 N.3     1  UNL1       -0.3012
      3 C          -4.5712   -1.1332   -0.6052 C.3     1  UNL1        0.0223
      4 C          -3.1374   -0.8067   -0.1353 C.3     1  UNL1        0.0786
      5 N          -2.4187   -0.3051   -1.2595 N.ar    1  UNL1       -0.2581
      6 N          -2.3548   -0.9551   -2.4084 N.ar    1  UNL1       -0.1788
      7 C          -1.6512   -0.2569   -3.3092 C.ar    1  UNL1        0.0500
      8 C          -1.2570    0.8921   -2.6786 C.ar    1  UNL1       -0.0162
      9 C          -1.7423    0.8441   -1.4059 C.ar    1  UNL1        0.0728
     10 C          -1.6149    1.8448   -0.4051 C.ar    1  UNL1        0.0437
     11 C          -2.0324    3.1243   -0.6558 C.ar    1  UNL1       -0.0307
     12 C          -1.9349    4.1193    0.2849 C.ar    1  UNL1        0.0418
     13 CL         -2.4791    5.7291   -0.0823 Cl      1  UNL1       -0.0835
     14 C          -1.3977    3.8348    1.5360 C.ar    1  UNL1       -0.0399
     15 C          -0.9727    2.5568    1.8036 C.ar    1  UNL1       -0.0173
     16 C          -1.0848    1.5622    0.8193 C.ar    1  UNL1        0.1378
     17 O          -0.6055    0.3051    1.2221 O.3     1  UNL1       -0.4524
     18 C           0.4830   -0.2743    0.5779 C.ar    1  UNL1        0.1663
     19 C           0.3777   -1.4907   -0.0352 C.ar    1  UNL1        0.0207
     20 C           1.5000   -2.0116   -0.6592 C.ar    1  UNL1        0.1536
     21 F           1.4170   -3.2148   -1.2722 F       1  UNL1       -0.2033
     22 C           2.7089   -1.3409   -0.6774 C.ar    1  UNL1        0.1465
     23 S           4.0643   -2.0752   -1.5054 S.O2    1  UNL1        0.0763
     24 O           3.6809   -2.3292   -2.9273 O.2     1  UNL1       -0.1498
     25 O           4.2991   -3.4345   -0.8778 O.2     1  UNL1       -0.1498
     26 N           5.5046   -1.1780   -1.3823 N.pl3   1  UNL1       -0.1989
     27 C           6.1441   -0.9142   -0.1143 C.ar    1  UNL1        0.1449
     28 C           5.5601   -1.4472    1.0626 C.ar    1  UNL1        0.0183
     29 S           6.7494   -0.8425    2.3066 S.2     1  UNL1       -0.0819
     30 C           7.8382    0.0294    1.0348 C.ar    1  UNL1        0.0669
     31 N           7.2083   -0.2483    0.0542 N.ar    1  UNL1       -0.2315
     32 C           2.7966   -0.1183   -0.0559 C.ar    1  UNL1        0.0067
     33 C           1.6947    0.4272    0.5750 C.ar    1  UNL1        0.1674
     34 F           1.7687    1.6334    1.1925 F       1  UNL1       -0.2016
     35 C          -3.8030    0.1391    0.7803 C.3     1  UNL1        0.0223
     36 H          -4.7292   -2.3283    1.7915 H       1  UNL1        0.0391
     37 H          -5.4828   -0.9075    2.6236 H       1  UNL1        0.0391
     38 H          -6.4450   -1.8352    1.4577 H       1  UNL1        0.0391
     39 H          -4.8933   -0.5112   -1.4734 H       1  UNL1        0.0448
     40 H          -4.7507   -2.1999   -0.7830 H       1  UNL1        0.0448
     41 H          -2.7749   -1.7111    0.3795 H       1  UNL1        0.0570
     42 H          -1.4316   -0.5493   -4.3548 H       1  UNL1        0.0848
     43 H          -0.6586    1.6931   -3.1355 H       1  UNL1        0.0654
     44 H          -2.4485    3.3579   -1.6161 H       1  UNL1        0.0640
     45 H          -1.3446    4.6454    2.2348 H       1  UNL1        0.0633
     46 H          -0.5585    2.3533    2.7794 H       1  UNL1        0.0655
     47 H          -0.5194   -2.0780   -0.0665 H       1  UNL1        0.0685
     48 H           5.9394   -0.8074   -2.2465 H       1  UNL1        0.1753
     49 H           4.7024   -2.0237    1.2282 H       1  UNL1        0.0729
     50 H           8.7134    0.5442    1.4207 H       1  UNL1        0.0908
     51 H           3.7471    0.4398   -0.0642 H       1  UNL1        0.0668
     52 H          -3.3991    0.1036    1.8113 H       1  UNL1        0.0448
     53 H          -3.9361    1.1843    0.4686 H       1  UNL1        0.0448
@<TRIPOS>BOND
     1     1     2    1
     2     2     3    1
     3     3     4    1
     4     4     5    1
     5     5     6   ar
     6     6     7   ar
     7     7     8   ar
     8     8     9   ar
     9     9    10    1
    10    10    11   ar
    11    11    12   ar
    12    12    13    1
    13    12    14   ar
    14    14    15   ar
    15    15    16   ar
    16    16    17    1
    17    17    18    1
    18    18    19   ar
    19    19    20   ar
    20    20    21    1
    21    20    22   ar
    22    22    23    1
    23    23    24    2
    24    23    25    2
    25    23    26    1
    26    26    27    1
    27    27    28   ar
    28    28    29   ar
    29    29    30   ar
    30    30    31   ar
    31    22    32   ar
    32    32    33   ar
    33    33    34    1
    34     4    35    1
    35    35     2    1
    36     9     5   ar
    37    16    10   ar
    38    33    18   ar
    39    31    27   ar
    40     1    36    1
    41     1    37    1
    42     1    38    1
    43     3    39    1
    44     3    40    1
    45     4    41    1
    46     7    42    1
    47     8    43    1
    48    11    44    1
    49    14    45    1
    50    15    46    1
    51    19    47    1
    52    26    48    1
    53    28    49    1
    54    30    50    1
    55    32    51    1
    56    35    52    1
    57    35    53    1
