@<TRIPOS>MOLECULE
*****
 47 50 0 0 0
SMALL
GASTEIGER

@<TRIPOS>ATOM
      1 C           3.7021    0.1040   -1.4895 C.3     1  UNL1       -0.0306
      2 C           3.0735    0.9898   -0.4411 C.3     1  UNL1        0.1036
      3 C           4.1203    1.9842   -0.0101 C.3     1  UNL1       -0.0306
      4 O           1.9877    1.6291   -0.9783 O.3     1  UNL1       -0.3829
      5 C           2.6270    0.2039    0.7494 C.ar    1  UNL1        0.0940
      6 C           3.3988   -0.0802    1.8788 C.ar    1  UNL1        0.0541
      7 N           2.6364   -0.8009    2.7078 N.ar    1  UNL1       -0.2343
      8 C           1.4018   -1.0004    2.1715 C.ar    1  UNL1        0.1545
      9 C           0.2891   -1.6708    2.6434 C.ar    1  UNL1       -0.0153
     10 C          -0.8491   -1.7108    1.8716 C.ar    1  UNL1       -0.0290
     11 C          -0.7983   -1.0655    0.6561 C.ar    1  UNL1        0.1103
     12 C          -1.9852   -1.0871   -0.1860 C.ar    1  UNL1        0.0968
     13 C          -2.7040    0.0307   -0.5641 C.ar    1  UNL1        0.0982
     14 C          -2.4262    1.4394   -0.2223 C.ar    1  UNL1        0.0027
     15 C          -3.2626    2.1197    0.6376 C.ar    1  UNL1       -0.0498
     16 C          -3.0615    3.4304    0.9960 C.ar    1  UNL1       -0.0258
     17 C          -1.9658    4.0738    0.4577 C.ar    1  UNL1        0.1234
     18 F          -1.7022    5.3812    0.7705 F       1  UNL1       -0.2055
     19 C          -1.1013    3.4212   -0.4116 C.ar    1  UNL1       -0.0258
     20 C          -1.3408    2.1060   -0.7445 C.ar    1  UNL1       -0.0498
     21 N          -3.7133   -0.4361   -1.3211 N.ar    1  UNL1       -0.2351
     22 C          -3.6093   -1.7745   -1.3974 C.ar    1  UNL1        0.0973
     23 N          -2.5410   -2.2049   -0.6990 N.ar    1  UNL1       -0.3229
     24 C          -2.1141   -3.5845   -0.5535 C.3     1  UNL1        0.0852
     25 C          -1.1508   -3.9323   -1.6686 C.3     1  UNL1        0.2569
     26 F          -0.7425   -5.2525   -1.5295 F       1  UNL1       -0.2073
     27 F          -1.6916   -3.7616   -2.9039 F       1  UNL1       -0.2073
     28 N           0.3157   -0.4332    0.2593 N.ar    1  UNL1       -0.1631
     29 N           1.4397   -0.3731    0.9818 N.ar    1  UNL1       -0.2139
     30 H           2.9715   -0.5679   -1.9826 H       1  UNL1        0.0261
     31 H           4.5268   -0.4622   -1.0058 H       1  UNL1        0.0261
     32 H           4.1963    0.7878   -2.2202 H       1  UNL1        0.0261
     33 H           3.5917    2.7692    0.5702 H       1  UNL1        0.0261
     34 H           4.9771    1.5474    0.4958 H       1  UNL1        0.0261
     35 H           4.4832    2.5004   -0.9406 H       1  UNL1        0.0261
     36 H           2.1607    2.5960   -1.1155 H       1  UNL1        0.2107
     37 H           4.4221    0.2602    1.9840 H       1  UNL1        0.0849
     38 H           0.2756   -2.1677    3.6010 H       1  UNL1        0.0655
     39 H          -1.7607   -2.2330    2.2082 H       1  UNL1        0.0641
     40 H          -4.1386    1.6247    1.0759 H       1  UNL1        0.0625
     41 H          -3.7303    3.9601    1.6785 H       1  UNL1        0.0646
     42 H          -0.2372    3.9490   -0.8269 H       1  UNL1        0.0646
     43 H          -0.7045    1.5532   -1.4171 H       1  UNL1        0.0625
     44 H          -4.2725   -2.4589   -1.9374 H       1  UNL1        0.1029
     45 H          -3.0106   -4.2554   -0.7231 H       1  UNL1        0.0548
     46 H          -1.7394   -3.8413    0.4340 H       1  UNL1        0.0548
     47 H          -0.2437   -3.3069   -1.5395 H       1  UNL1        0.1037
@<TRIPOS>BOND
     1     1     2    1
     2     2     3    1
     3     2     4    1
     4     2     5    1
     5     5     6   ar
     6     6     7   ar
     7     7     8   ar
     8     8     9   ar
     9     9    10   ar
    10    10    11   ar
    11    11    12    1
    12    12    13   ar
    13    13    14    1
    14    14    15   ar
    15    15    16   ar
    16    16    17   ar
    17    17    18    1
    18    17    19   ar
    19    19    20   ar
    20    13    21   ar
    21    21    22   ar
    22    22    23   ar
    23    23    24    1
    24    24    25    1
    25    25    26    1
    26    25    27    1
    27    11    28   ar
    28    28    29   ar
    29    29     5   ar
    30    29     8   ar
    31    23    12   ar
    32    20    14   ar
    33     1    30    1
    34     1    31    1
    35     1    32    1
    36     3    33    1
    37     3    34    1
    38     3    35    1
    39     4    36    1
    40     6    37    1
    41     9    38    1
    42    10    39    1
    43    15    40    1
    44    16    41    1
    45    19    42    1
    46    20    43    1
    47    22    44    1
    48    24    45    1
    49    24    46    1
    50    25    47    1
