
     RDKit          3D

 47 50  0  0  0  0  0  0  0  0999 V2000
    3.7021    0.1040   -1.4895 C   0  0  0  0  0  0  0  0  0  0  0  0
    3.0735    0.9898   -0.4411 C   0  0  0  0  0  0  0  0  0  0  0  0
    4.1203    1.9842   -0.0101 C   0  0  0  0  0  0  0  0  0  0  0  0
    1.9877    1.6291   -0.9783 O   0  0  0  0  0  0  0  0  0  0  0  0
    2.6270    0.2039    0.7494 C   0  0  0  0  0  0  0  0  0  0  0  0
    3.3988   -0.0802    1.8788 C   0  0  0  0  0  0  0  0  0  0  0  0
    2.6364   -0.8009    2.7078 N   0  0  0  0  0  0  0  0  0  0  0  0
    1.4018   -1.0004    2.1715 C   0  0  0  0  0  0  0  0  0  0  0  0
    0.2891   -1.6708    2.6434 C   0  0  0  0  0  0  0  0  0  0  0  0
   -0.8491   -1.7108    1.8716 C   0  0  0  0  0  0  0  0  0  0  0  0
   -0.7983   -1.0655    0.6561 C   0  0  0  0  0  0  0  0  0  0  0  0
   -1.9852   -1.0871   -0.1860 C   0  0  0  0  0  0  0  0  0  0  0  0
   -2.7040    0.0307   -0.5641 C   0  0  0  0  0  0  0  0  0  0  0  0
   -2.4262    1.4394   -0.2223 C   0  0  0  0  0  0  0  0  0  0  0  0
   -3.2626    2.1197    0.6376 C   0  0  0  0  0  0  0  0  0  0  0  0
   -3.0615    3.4304    0.9960 C   0  0  0  0  0  0  0  0  0  0  0  0
   -1.9658    4.0738    0.4577 C   0  0  0  0  0  0  0  0  0  0  0  0
   -1.7022    5.3812    0.7705 F   0  0  0  0  0  0  0  0  0  0  0  0
   -1.1013    3.4212   -0.4116 C   0  0  0  0  0  0  0  0  0  0  0  0
   -1.3408    2.1060   -0.7445 C   0  0  0  0  0  0  0  0  0  0  0  0
   -3.7133   -0.4361   -1.3211 N   0  0  0  0  0  0  0  0  0  0  0  0
   -3.6093   -1.7745   -1.3974 C   0  0  0  0  0  0  0  0  0  0  0  0
   -2.5410   -2.2049   -0.6990 N   0  0  0  0  0  0  0  0  0  0  0  0
   -2.1141   -3.5845   -0.5535 C   0  0  0  0  0  0  0  0  0  0  0  0
   -1.1508   -3.9323   -1.6686 C   0  0  0  0  0  0  0  0  0  0  0  0
   -0.7425   -5.2525   -1.5295 F   0  0  0  0  0  0  0  0  0  0  0  0
   -1.6916   -3.7616   -2.9039 F   0  0  0  0  0  0  0  0  0  0  0  0
    0.3157   -0.4332    0.2593 N   0  0  0  0  0  0  0  0  0  0  0  0
    1.4397   -0.3731    0.9818 N   0  0  0  0  0  0  0  0  0  0  0  0
    2.9715   -0.5679   -1.9826 H   0  0  0  0  0  0  0  0  0  0  0  0
    4.5268   -0.4622   -1.0058 H   0  0  0  0  0  0  0  0  0  0  0  0
    4.1963    0.7878   -2.2202 H   0  0  0  0  0  0  0  0  0  0  0  0
    3.5917    2.7692    0.5702 H   0  0  0  0  0  0  0  0  0  0  0  0
    4.9771    1.5474    0.4958 H   0  0  0  0  0  0  0  0  0  0  0  0
    4.4832    2.5004   -0.9406 H   0  0  0  0  0  0  0  0  0  0  0  0
    2.1607    2.5960   -1.1155 H   0  0  0  0  0  0  0  0  0  0  0  0
    4.4221    0.2602    1.9840 H   0  0  0  0  0  0  0  0  0  0  0  0
    0.2756   -2.1677    3.6010 H   0  0  0  0  0  0  0  0  0  0  0  0
   -1.7607   -2.2330    2.2082 H   0  0  0  0  0  0  0  0  0  0  0  0
   -4.1386    1.6247    1.0759 H   0  0  0  0  0  0  0  0  0  0  0  0
   -3.7303    3.9601    1.6785 H   0  0  0  0  0  0  0  0  0  0  0  0
   -0.2372    3.9490   -0.8269 H   0  0  0  0  0  0  0  0  0  0  0  0
   -0.7045    1.5532   -1.4171 H   0  0  0  0  0  0  0  0  0  0  0  0
   -4.2725   -2.4589   -1.9374 H   0  0  0  0  0  0  0  0  0  0  0  0
   -3.0106   -4.2554   -0.7231 H   0  0  0  0  0  0  0  0  0  0  0  0
   -1.7394   -3.8413    0.4340 H   0  0  0  0  0  0  0  0  0  0  0  0
   -0.2437   -3.3069   -1.5395 H   0  0  0  0  0  0  0  0  0  0  0  0
  1  2  1  0
  2  3  1  0
  2  4  1  0
  2  5  1  0
  5  6  2  0
  6  7  1  0
  7  8  2  0
  8  9  1  0
  9 10  2  0
 10 11  1  0
 11 12  1  0
 12 13  2  0
 13 14  1  0
 14 15  2  0
 15 16  1  0
 16 17  2  0
 17 18  1  0
 17 19  1  0
 19 20  2  0
 13 21  1  0
 21 22  2  0
 22 23  1  0
 23 24  1  0
 24 25  1  0
 25 26  1  0
 25 27  1  0
 11 28  2  0
 28 29  1  0
 29  5  1  0
 29  8  1  0
 23 12  1  0
 20 14  1  0
  1 30  1  0
  1 31  1  0
  1 32  1  0
  3 33  1  0
  3 34  1  0
  3 35  1  0
  4 36  1  0
  6 37  1  0
  9 38  1  0
 10 39  1  0
 15 40  1  0
 16 41  1  0
 19 42  1  0
 20 43  1  0
 22 44  1  0
 24 45  1  0
 24 46  1  0
 25 47  1  0
M  END
$$$$
