@<TRIPOS>MOLECULE
*****
 40 44 0 0 0
SMALL
GASTEIGER

@<TRIPOS>ATOM
      1 N          -3.5262   -1.3218   -3.9868 N.1     1  UNL1       -0.1892
      2 C          -3.2355   -1.8057   -2.9767 C.1     1  UNL1        0.1208
      3 C          -2.8692   -2.3932   -1.6975 C.ar    1  UNL1        0.1618
      4 C          -3.3214   -3.5861   -1.1850 C.ar    1  UNL1        0.0659
      5 N          -2.7340   -3.7448    0.0119 N.ar    1  UNL1       -0.2333
      6 C          -1.9365   -2.6732    0.2336 C.ar    1  UNL1        0.1555
      7 C          -1.1303   -2.3725    1.3110 C.ar    1  UNL1       -0.0153
      8 C          -0.4145   -1.2028    1.2834 C.ar    1  UNL1       -0.0290
      9 C          -0.5179   -0.3708    0.1963 C.ar    1  UNL1        0.1103
     10 C           0.2589    0.8854    0.1818 C.ar    1  UNL1        0.0970
     11 C           1.6262    1.0286    0.1996 C.ar    1  UNL1        0.0982
     12 C           2.6330   -0.0255    0.2368 C.ar    1  UNL1        0.0027
     13 C           3.5215   -0.1288    1.2878 C.ar    1  UNL1       -0.0498
     14 C           4.4844   -1.1151    1.3501 C.ar    1  UNL1       -0.0258
     15 C           4.5704   -2.0328    0.3342 C.ar    1  UNL1        0.1234
     16 F           5.4988   -3.0182    0.3520 F       1  UNL1       -0.2055
     17 C           3.7028   -1.9637   -0.7311 C.ar    1  UNL1       -0.0258
     18 C           2.7467   -0.9631   -0.7669 C.ar    1  UNL1       -0.0498
     19 N           1.8592    2.3721    0.1752 N.ar    1  UNL1       -0.2351
     20 C           0.6958    3.0459    0.1435 C.ar    1  UNL1        0.0975
     21 N          -0.2903    2.1012    0.1482 N.ar    1  UNL1       -0.3208
     22 C          -1.6923    2.4770    0.1190 C.3     1  UNL1        0.0825
     23 C          -1.9903    3.6772   -0.7559 C.3     1  UNL1        0.0707
     24 O          -2.6523    4.3383    0.2527 O.3     1  UNL1       -0.3755
     25 C          -2.1014    3.4684    1.1884 C.3     1  UNL1        0.0707
     26 N          -1.3085   -0.7027   -0.8201 N.ar    1  UNL1       -0.1623
     27 N          -1.9997   -1.8160   -0.8113 N.ar    1  UNL1       -0.2023
     28 H          -4.0048   -4.2794   -1.6202 H       1  UNL1        0.0859
     29 H          -1.0748   -3.0535    2.1502 H       1  UNL1        0.0655
     30 H           0.2425   -0.9294    2.1308 H       1  UNL1        0.0641
     31 H           3.4746    0.5856    2.1053 H       1  UNL1        0.0625
     32 H           5.1557   -1.1557    2.1904 H       1  UNL1        0.0646
     33 H           3.7642   -2.6836   -1.5360 H       1  UNL1        0.0646
     34 H           2.0823   -0.9227   -1.5983 H       1  UNL1        0.0625
     35 H           0.5790    4.1282    0.1193 H       1  UNL1        0.1029
     36 H          -2.3957    1.6404   -0.0320 H       1  UNL1        0.0574
     37 H          -2.6013    3.4371   -1.6572 H       1  UNL1        0.0581
     38 H          -1.0572    4.1715   -1.0974 H       1  UNL1        0.0581
     39 H          -2.8483    3.0289    1.8810 H       1  UNL1        0.0581
     40 H          -1.1936    3.8754    1.6902 H       1  UNL1        0.0581
@<TRIPOS>BOND
     1     1     2    3
     2     2     3    1
     3     3     4   ar
     4     4     5   ar
     5     5     6   ar
     6     6     7   ar
     7     7     8   ar
     8     8     9   ar
     9     9    10    1
    10    10    11   ar
    11    11    12    1
    12    12    13   ar
    13    13    14   ar
    14    14    15   ar
    15    15    16    1
    16    15    17   ar
    17    17    18   ar
    18    11    19   ar
    19    19    20   ar
    20    20    21   ar
    21    21    22    1
    22    22    23    1
    23    23    24    1
    24    24    25    1
    25     9    26   ar
    26    26    27   ar
    27    27     3   ar
    28    27     6   ar
    29    21    10   ar
    30    25    22    1
    31    18    12   ar
    32     4    28    1
    33     7    29    1
    34     8    30    1
    35    13    31    1
    36    14    32    1
    37    17    33    1
    38    18    34    1
    39    20    35    1
    40    22    36    1
    41    23    37    1
    42    23    38    1
    43    25    39    1
    44    25    40    1
