
     RDKit          3D

 40 44  0  0  0  0  0  0  0  0999 V2000
   -3.5262   -1.3218   -3.9868 N   0  0  0  0  0  0  0  0  0  0  0  0
   -3.2355   -1.8057   -2.9767 C   0  0  0  0  0  0  0  0  0  0  0  0
   -2.8692   -2.3932   -1.6975 C   0  0  0  0  0  0  0  0  0  0  0  0
   -3.3214   -3.5861   -1.1850 C   0  0  0  0  0  0  0  0  0  0  0  0
   -2.7340   -3.7448    0.0119 N   0  0  0  0  0  0  0  0  0  0  0  0
   -1.9365   -2.6732    0.2336 C   0  0  0  0  0  0  0  0  0  0  0  0
   -1.1303   -2.3725    1.3110 C   0  0  0  0  0  0  0  0  0  0  0  0
   -0.4145   -1.2028    1.2834 C   0  0  0  0  0  0  0  0  0  0  0  0
   -0.5179   -0.3708    0.1963 C   0  0  0  0  0  0  0  0  0  0  0  0
    0.2589    0.8854    0.1818 C   0  0  0  0  0  0  0  0  0  0  0  0
    1.6262    1.0286    0.1996 C   0  0  0  0  0  0  0  0  0  0  0  0
    2.6330   -0.0255    0.2368 C   0  0  0  0  0  0  0  0  0  0  0  0
    3.5215   -0.1288    1.2878 C   0  0  0  0  0  0  0  0  0  0  0  0
    4.4844   -1.1151    1.3501 C   0  0  0  0  0  0  0  0  0  0  0  0
    4.5704   -2.0328    0.3342 C   0  0  0  0  0  0  0  0  0  0  0  0
    5.4988   -3.0182    0.3520 F   0  0  0  0  0  0  0  0  0  0  0  0
    3.7028   -1.9637   -0.7311 C   0  0  0  0  0  0  0  0  0  0  0  0
    2.7467   -0.9631   -0.7669 C   0  0  0  0  0  0  0  0  0  0  0  0
    1.8592    2.3721    0.1752 N   0  0  0  0  0  0  0  0  0  0  0  0
    0.6958    3.0459    0.1435 C   0  0  0  0  0  0  0  0  0  0  0  0
   -0.2903    2.1012    0.1482 N   0  0  0  0  0  0  0  0  0  0  0  0
   -1.6923    2.4770    0.1190 C   0  0  0  0  0  0  0  0  0  0  0  0
   -1.9903    3.6772   -0.7559 C   0  0  0  0  0  0  0  0  0  0  0  0
   -2.6523    4.3383    0.2527 O   0  0  0  0  0  0  0  0  0  0  0  0
   -2.1014    3.4684    1.1884 C   0  0  0  0  0  0  0  0  0  0  0  0
   -1.3085   -0.7027   -0.8201 N   0  0  0  0  0  0  0  0  0  0  0  0
   -1.9997   -1.8160   -0.8113 N   0  0  0  0  0  0  0  0  0  0  0  0
   -4.0048   -4.2794   -1.6202 H   0  0  0  0  0  0  0  0  0  0  0  0
   -1.0748   -3.0535    2.1502 H   0  0  0  0  0  0  0  0  0  0  0  0
    0.2425   -0.9294    2.1308 H   0  0  0  0  0  0  0  0  0  0  0  0
    3.4746    0.5856    2.1053 H   0  0  0  0  0  0  0  0  0  0  0  0
    5.1557   -1.1557    2.1904 H   0  0  0  0  0  0  0  0  0  0  0  0
    3.7642   -2.6836   -1.5360 H   0  0  0  0  0  0  0  0  0  0  0  0
    2.0823   -0.9227   -1.5983 H   0  0  0  0  0  0  0  0  0  0  0  0
    0.5790    4.1282    0.1193 H   0  0  0  0  0  0  0  0  0  0  0  0
   -2.3957    1.6404   -0.0320 H   0  0  0  0  0  0  0  0  0  0  0  0
   -2.6013    3.4371   -1.6572 H   0  0  0  0  0  0  0  0  0  0  0  0
   -1.0572    4.1715   -1.0974 H   0  0  0  0  0  0  0  0  0  0  0  0
   -2.8483    3.0289    1.8810 H   0  0  0  0  0  0  0  0  0  0  0  0
   -1.1936    3.8754    1.6902 H   0  0  0  0  0  0  0  0  0  0  0  0
  1  2  3  0
  2  3  1  0
  3  4  2  0
  4  5  1  0
  5  6  2  0
  6  7  1  0
  7  8  2  0
  8  9  1  0
  9 10  1  0
 10 11  2  0
 11 12  1  0
 12 13  2  0
 13 14  1  0
 14 15  2  0
 15 16  1  0
 15 17  1  0
 17 18  2  0
 11 19  1  0
 19 20  2  0
 20 21  1  0
 21 22  1  0
 22 23  1  0
 23 24  1  0
 24 25  1  0
  9 26  2  0
 26 27  1  0
 27  3  1  0
 27  6  1  0
 21 10  1  0
 25 22  1  0
 18 12  1  0
  4 28  1  0
  7 29  1  0
  8 30  1  0
 13 31  1  0
 14 32  1  0
 17 33  1  0
 18 34  1  0
 20 35  1  0
 22 36  1  0
 23 37  1  0
 23 38  1  0
 25 39  1  0
 25 40  1  0
M  END
$$$$
