@<TRIPOS>MOLECULE
*****
 51 54 0 0 0
SMALL
GASTEIGER

@<TRIPOS>ATOM
      1 C          -5.7802    2.4806   -1.8729 C.3     1  UNL1        0.0029
      2 N          -5.0525    1.3588   -1.2440 N.am    1  UNL1       -0.3064
      3 C          -5.0969    0.1117   -1.9502 C.3     1  UNL1        0.0029
      4 C          -4.4089    1.6016   -0.0299 C.2     1  UNL1        0.2319
      5 O          -4.4821    2.7551    0.5049 O.2     1  UNL1       -0.2741
      6 C          -3.6374    0.5747    0.6782 C.3     1  UNL1        0.1054
      7 C          -3.1456    0.9007    2.0475 C.3     1  UNL1       -0.0220
      8 C          -2.1879    0.7047    0.9480 C.3     1  UNL1        0.0135
      9 C          -1.3486   -0.5079    0.8062 C.3     1  UNL1        0.0950
     10 C          -1.1804   -0.7767   -0.7013 C.3     1  UNL1       -0.0351
     11 C           0.0197   -0.2548    1.3047 C.ar    1  UNL1        0.0349
     12 C           1.0940   -0.1851    0.4547 C.ar    1  UNL1       -0.0433
     13 C           2.3857    0.0722    0.9333 C.ar    1  UNL1       -0.0036
     14 C           3.5065    0.1485    0.0050 C.2     1  UNL1       -0.0157
     15 C           4.7138   -0.3188    0.2638 C.2     1  UNL1        0.1492
     16 F           4.9121   -0.9044    1.4687 F       1  UNL1       -0.2032
     17 C           5.8130   -0.2120   -0.6994 C.ar    1  UNL1        0.0990
     18 C           7.0547   -0.7219   -0.3968 C.ar    1  UNL1       -0.0321
     19 C           8.1205   -0.6297   -1.2923 C.ar    1  UNL1       -0.0398
     20 C           7.9271   -0.0187   -2.4972 C.ar    1  UNL1        0.0591
     21 CL          9.2306    0.1292   -3.6672 Cl      1  UNL1       -0.0820
     22 C           6.6738    0.4867   -2.7822 C.ar    1  UNL1        0.0466
     23 N           5.6581    0.3819   -1.8928 N.ar    1  UNL1       -0.2512
     24 C           2.5255    0.2510    2.2926 C.ar    1  UNL1        0.0379
     25 N           1.4853    0.1861    3.1396 N.ar    1  UNL1       -0.2267
     26 C           0.2616   -0.0633    2.6354 C.ar    1  UNL1        0.2187
     27 F          -0.7538   -0.1259    3.5114 F       1  UNL1       -0.1835
     28 N          -1.8207   -1.6942    1.4646 N.2     1  UNL1       -0.2520
     29 C          -3.0277   -2.1325    1.4267 C.2     1  UNL1        0.1485
     30 N          -3.4835   -3.3027    2.0781 N.pl3   1  UNL1       -0.3380
     31 S          -4.1809   -1.1289    0.4553 S.3     1  UNL1       -0.0746
     32 H          -6.7654    2.1736   -2.2417 H       1  UNL1        0.0428
     33 H          -5.8778    3.3329   -1.1815 H       1  UNL1        0.0428
     34 H          -5.1893    2.7867   -2.7798 H       1  UNL1        0.0428
     35 H          -5.5282    0.2261   -2.9813 H       1  UNL1        0.0428
     36 H          -4.1150   -0.3626   -2.1178 H       1  UNL1        0.0428
     37 H          -5.8099   -0.5571   -1.3916 H       1  UNL1        0.0428
     38 H          -3.3143    1.9745    2.3606 H       1  UNL1        0.0287
     39 H          -3.2925    0.2192    2.8810 H       1  UNL1        0.0287
     40 H          -1.7228    1.6164    0.4881 H       1  UNL1        0.0346
     41 H          -0.9031    0.1693   -1.1635 H       1  UNL1        0.0256
     42 H          -2.1731   -1.0794   -1.0769 H       1  UNL1        0.0256
     43 H          -0.4675   -1.6163   -0.8603 H       1  UNL1        0.0256
     44 H           1.0221   -0.3147   -0.6156 H       1  UNL1        0.0629
     45 H           3.4010    0.6123   -0.9851 H       1  UNL1        0.0653
     46 H           7.1740   -1.2012    0.5681 H       1  UNL1        0.0640
     47 H           9.0636   -1.0374   -1.0196 H       1  UNL1        0.0633
     48 H           6.5351    0.9720   -3.7482 H       1  UNL1        0.0844
     49 H           3.5099    0.4502    2.6887 H       1  UNL1        0.0836
     50 H          -3.9522   -4.0353    1.4990 H       1  UNL1        0.1442
     51 H          -3.3896   -3.4956    3.0954 H       1  UNL1        0.1442
@<TRIPOS>BOND
     1     1     2    1
     2     2     3    1
     3     2     4   am
     4     4     5    2
     5     6     4    1
     6     6     7    1
     7     7     8    1
     8     8     9    1
     9     9    10    1
    10     9    11    1
    11    11    12   ar
    12    12    13   ar
    13    13    14    1
    14    14    15    2
    15    15    16    1
    16    15    17    1
    17    17    18   ar
    18    18    19   ar
    19    19    20   ar
    20    20    21    1
    21    20    22   ar
    22    22    23   ar
    23    13    24   ar
    24    24    25   ar
    25    25    26   ar
    26    26    27    1
    27     9    28    1
    28    28    29    2
    29    29    30    1
    30    29    31    1
    31     8     6    1
    32    26    11   ar
    33    31     6    1
    34    23    17   ar
    35     1    32    1
    36     1    33    1
    37     1    34    1
    38     3    35    1
    39     3    36    1
    40     3    37    1
    41     7    38    1
    42     7    39    1
    43     8    40    1
    44    10    41    1
    45    10    42    1
    46    10    43    1
    47    12    44    1
    48    14    45    1
    49    18    46    1
    50    19    47    1
    51    22    48    1
    52    24    49    1
    53    30    50    1
    54    30    51    1
