@<TRIPOS>MOLECULE
*****
 37 39 0 0 0
SMALL
GASTEIGER

@<TRIPOS>ATOM
      1 C          -1.0655   -2.8597   -1.2170 C.3     1  UNL1       -0.0222
      2 C          -0.8823   -1.5154   -0.6471 C.ar    1  UNL1        0.0426
      3 C          -1.9775   -0.7093   -0.3532 C.ar    1  UNL1        0.0018
      4 C          -1.8214    0.5511    0.1804 C.ar    1  UNL1        0.1324
      5 O          -2.9061    1.3593    0.4756 O.3     1  UNL1       -0.4543
      6 C          -4.2153    0.9833    0.2663 C.ar    1  UNL1        0.1492
      7 C          -4.8081    1.2635   -0.9418 C.ar    1  UNL1        0.0700
      8 N          -6.0939    0.9180   -1.2059 N.ar    1  UNL1       -0.2568
      9 C          -6.8335    0.2872   -0.2896 C.ar    1  UNL1        0.0630
     10 C          -6.2738   -0.0102    0.9324 C.ar    1  UNL1        0.1449
     11 F          -7.0656   -0.6520    1.8303 F       1  UNL1       -0.2038
     12 C          -4.9682    0.3335    1.2180 C.ar    1  UNL1        0.0189
     13 C          -0.5238    0.9645    0.4049 C.ar    1  UNL1        0.0112
     14 C           0.5654    0.1867    0.1226 C.ar    1  UNL1        0.1295
     15 C           1.9549    0.6532    0.3729 C.2     1  UNL1        0.2678
     16 O           2.1498    1.7912    0.8569 O.2     1  UNL1       -0.2681
     17 N           3.0491   -0.1759    0.0694 N.am    1  UNL1       -0.2651
     18 C           4.4044    0.1501    0.2596 C.ar    1  UNL1        0.1252
     19 C           4.9234    1.3066    0.7641 C.ar    1  UNL1       -0.0201
     20 C           6.3100    1.4732    0.8888 C.ar    1  UNL1       -0.0387
     21 C           7.1780    0.4829    0.5089 C.ar    1  UNL1        0.0592
     22 CL          8.9205    0.6663    0.6549 Cl      1  UNL1       -0.0820
     23 C           6.6252   -0.6775    0.0015 C.ar    1  UNL1        0.0480
     24 N           5.3139   -0.8088   -0.1055 N.ar    1  UNL1       -0.2387
     25 N           0.3654   -1.0325   -0.3955 N.ar    1  UNL1       -0.2470
     26 H          -0.7766   -2.8539   -2.2691 H       1  UNL1        0.0293
     27 H          -2.1389   -3.1256   -1.1533 H       1  UNL1        0.0293
     28 H          -0.4590   -3.6033   -0.6341 H       1  UNL1        0.0293
     29 H          -2.9478   -1.1128   -0.5606 H       1  UNL1        0.0672
     30 H          -4.2749    1.7694   -1.7287 H       1  UNL1        0.0867
     31 H          -7.8528    0.0260   -0.5305 H       1  UNL1        0.0859
     32 H          -4.5615    0.0789    2.2012 H       1  UNL1        0.0684
     33 H          -0.3852    1.9565    0.8255 H       1  UNL1        0.0677
     34 H           2.7775   -1.1317   -0.3414 H       1  UNL1        0.1566
     35 H           4.2692    2.1077    1.0733 H       1  UNL1        0.0652
     36 H           6.6873    2.4019    1.2924 H       1  UNL1        0.0634
     37 H           7.3378   -1.4422   -0.2902 H       1  UNL1        0.0845
@<TRIPOS>BOND
     1     1     2    1
     2     2     3   ar
     3     3     4   ar
     4     4     5    1
     5     5     6    1
     6     6     7   ar
     7     7     8   ar
     8     8     9   ar
     9     9    10   ar
    10    10    11    1
    11    10    12   ar
    12     4    13   ar
    13    13    14   ar
    14    14    15    1
    15    15    16    2
    16    15    17   am
    17    17    18    1
    18    18    19   ar
    19    19    20   ar
    20    20    21   ar
    21    21    22    1
    22    21    23   ar
    23    23    24   ar
    24    14    25   ar
    25    25     2   ar
    26    12     6   ar
    27    24    18   ar
    28     1    26    1
    29     1    27    1
    30     1    28    1
    31     3    29    1
    32     7    30    1
    33     9    31    1
    34    12    32    1
    35    13    33    1
    36    17    34    1
    37    19    35    1
    38    20    36    1
    39    23    37    1
