
     RDKit          3D

 47 50  0  0  0  0  0  0  0  0999 V2000
    6.8730    5.1160   -4.3158 C   0  0  0  0  0  0  0  0  0  0  0  0
    6.6300    3.7847   -4.5207 C   0  0  0  0  0  0  0  0  0  0  0  0
    6.3859    2.5039   -4.7179 C   0  0  0  0  0  0  0  0  0  0  0  0
    5.5541    1.6936   -4.0079 O   0  0  0  0  0  0  0  0  0  0  0  0
    4.2665    1.6698   -3.7037 C   0  0  0  0  0  0  0  0  0  0  0  0
    3.8426    0.5474   -2.9764 C   0  0  0  0  0  0  0  0  0  0  0  0
    2.5971    0.3741   -2.5981 N   0  0  0  0  0  0  0  0  0  0  0  0
    1.6542    1.3119   -2.9198 C   0  0  0  0  0  0  0  0  0  0  0  0
    0.2940    1.0902   -2.4754 C   0  0  0  0  0  0  0  0  0  0  0  0
   -0.7182    1.6718   -2.7835 O   0  0  0  0  0  0  0  0  0  0  0  0
    0.1472   -0.0088   -1.5008 N   0  0  0  0  0  0  0  0  0  0  0  0
   -0.9952   -0.4705   -0.8907 C   0  0  0  0  0  0  0  0  0  0  0  0
   -2.0675   -0.9413   -1.5026 C   0  0  0  0  0  0  0  0  0  0  0  0
   -3.1528   -1.5216   -0.8308 C   0  0  0  0  0  0  0  0  0  0  0  0
   -3.1403   -1.6223    0.5134 C   0  0  0  0  0  0  0  0  0  0  0  0
   -4.2021   -2.2089    1.1920 F   0  0  0  0  0  0  0  0  0  0  0  0
   -2.0471   -1.1594    1.2642 C   0  0  0  0  0  0  0  0  0  0  0  0
   -2.0257   -1.1803    2.7478 C   0  0  1  0  0  0  0  0  0  0  0  0
   -0.6103   -0.6368    3.1022 C   0  0  0  0  0  0  0  0  0  0  0  0
    0.2154   -1.5457    2.3974 F   0  0  0  0  0  0  0  0  0  0  0  0
   -2.9551   -0.2861    3.3371 N   0  0  0  0  0  0  0  0  0  0  0  0
   -4.0684   -0.6214    3.9294 C   0  0  0  0  0  0  0  0  0  0  0  0
   -4.8371    0.5358    4.4485 N   0  0  0  0  0  0  0  0  0  0  0  0
   -4.4297   -1.8735    4.0388 O   0  0  0  0  0  0  0  0  0  0  0  0
   -3.5061   -2.9448    3.8202 C   0  0  2  0  0  0  0  0  0  0  0  0
   -2.2831   -2.9734    4.6786 C   0  0  0  0  0  0  0  0  0  0  0  0
   -2.1922   -2.5923    3.2815 C   0  0  2  0  0  0  0  0  0  0  0  0
   -0.9924   -0.5854    0.5154 C   0  0  0  0  0  0  0  0  0  0  0  0
    2.0344    2.4304   -3.6432 C   0  0  0  0  0  0  0  0  0  0  0  0
    3.3183    2.6190   -4.0342 N   0  0  0  0  0  0  0  0  0  0  0  0
    7.0378    6.1043   -4.1559 H   0  0  0  0  0  0  0  0  0  0  0  0
    7.4776    1.9548   -4.5658 H   0  0  0  0  0  0  0  0  0  0  0  0
    6.2404    2.2398   -5.8630 H   0  0  0  0  0  0  0  0  0  0  0  0
    4.5908   -0.2602   -2.7534 H   0  0  0  0  0  0  0  0  0  0  0  0
    1.0899   -0.4678   -1.2116 H   0  0  0  0  0  0  0  0  0  0  0  0
   -2.1351   -0.8904   -2.6113 H   0  0  0  0  0  0  0  0  0  0  0  0
   -3.9837   -1.9370   -1.4581 H   0  0  0  0  0  0  0  0  0  0  0  0
   -0.3812   -0.7472    4.1821 H   0  0  0  0  0  0  0  0  0  0  0  0
   -0.5083    0.4038    2.8252 H   0  0  0  0  0  0  0  0  0  0  0  0
   -5.8549    0.6375    4.2549 H   0  0  0  0  0  0  0  0  0  0  0  0
   -4.3324    1.2693    4.9875 H   0  0  0  0  0  0  0  0  0  0  0  0
   -3.9936   -3.9018    3.5145 H   0  0  0  0  0  0  0  0  0  0  0  0
   -2.2307   -2.2630    5.5427 H   0  0  0  0  0  0  0  0  0  0  0  0
   -2.0157   -3.9888    5.0291 H   0  0  0  0  0  0  0  0  0  0  0  0
   -1.7440   -3.3769    2.5950 H   0  0  0  0  0  0  0  0  0  0  0  0
   -0.1335   -0.1392    1.0033 H   0  0  0  0  0  0  0  0  0  0  0  0
    1.2869    3.1867   -3.9271 H   0  0  0  0  0  0  0  0  0  0  0  0
  1  2  3  0
  2  3  1  0
  3  4  1  0
  4  5  1  0
  5  6  2  0
  6  7  1  0
  7  8  2  0
  8  9  1  0
  9 10  2  0
  9 11  1  0
 11 12  1  0
 12 13  2  0
 13 14  1  0
 14 15  2  0
 15 16  1  0
 15 17  1  0
 17 18  1  0
 18 19  1  1
 19 20  1  0
 18 21  1  0
 21 22  2  0
 22 23  1  0
 22 24  1  0
 24 25  1  0
 25 26  1  0
 26 27  1  0
 17 28  2  0
  8 29  1  0
 29 30  2  0
 30  5  1  0
 28 12  1  0
 27 18  1  0
 27 25  1  0
  1 31  1  0
  3 32  1  0
  3 33  1  0
  6 34  1  0
 11 35  1  0
 13 36  1  0
 14 37  1  0
 19 38  1  0
 19 39  1  0
 23 40  1  0
 23 41  1  0
 25 42  1  6
 26 43  1  0
 26 44  1  0
 27 45  1  6
 28 46  1  0
 29 47  1  0
M  END
$$$$
