@<TRIPOS>MOLECULE
*****
 47 50 0 0 0
SMALL
GASTEIGER

@<TRIPOS>ATOM
      1 C           6.8730    5.1160   -4.3158 C.1     1  UNL1       -0.1158
      2 C           6.6300    3.7847   -4.5207 C.1     1  UNL1       -0.0647
      3 C           6.3859    2.5039   -4.7179 C.3     1  UNL1        0.1513
      4 O           5.5541    1.6936   -4.0079 O.3     1  UNL1       -0.4624
      5 C           4.2665    1.6698   -3.7037 C.ar    1  UNL1        0.2344
      6 C           3.8426    0.5474   -2.9764 C.ar    1  UNL1        0.0899
      7 N           2.5971    0.3741   -2.5981 N.ar    1  UNL1       -0.2435
      8 C           1.6542    1.3119   -2.9198 C.ar    1  UNL1        0.1439
      9 C           0.2940    1.0902   -2.4754 C.2     1  UNL1        0.2681
     10 O          -0.7182    1.6718   -2.7835 O.2     1  UNL1       -0.2681
     11 N           0.1472   -0.0088   -1.5008 N.am    1  UNL1       -0.2802
     12 C          -0.9952   -0.4705   -0.8907 C.ar    1  UNL1        0.0342
     13 C          -2.0675   -0.9413   -1.5026 C.ar    1  UNL1       -0.0377
     14 C          -3.1528   -1.5216   -0.8308 C.ar    1  UNL1       -0.0243
     15 C          -3.1403   -1.6223    0.5134 C.ar    1  UNL1        0.1291
     16 F          -4.2021   -2.2089    1.1920 F       1  UNL1       -0.2051
     17 C          -2.0471   -1.1594    1.2642 C.ar    1  UNL1        0.0198
     18 C          -2.0257   -1.1803    2.7478 C.3     1  UNL1        0.1284
     19 C          -0.6103   -0.6368    3.1022 C.3     1  UNL1        0.1199
     20 F           0.2154   -1.5457    2.3974 F       1  UNL1       -0.2462
     21 N          -2.9551   -0.2861    3.3371 N.2     1  UNL1       -0.2225
     22 C          -4.0684   -0.6214    3.9294 C.2     1  UNL1        0.2763
     23 N          -4.8371    0.5358    4.4485 N.pl3   1  UNL1       -0.3134
     24 O          -4.4297   -1.8735    4.0388 O.2     1  UNL1       -0.4622
     25 C          -3.5061   -2.9448    3.8202 C.3     1  UNL1        0.1090
     26 C          -2.2831   -2.9734    4.6786 C.3     1  UNL1       -0.0065
     27 C          -2.1922   -2.5923    3.2815 C.3     1  UNL1        0.0315
     28 C          -0.9924   -0.5854    0.5154 C.ar    1  UNL1       -0.0322
     29 C           2.0344    2.4304   -3.6432 C.ar    1  UNL1        0.0619
     30 N           3.3183    2.6190   -4.0342 N.ar    1  UNL1       -0.2177
     31 H           7.0378    6.1043   -4.1559 H       1  UNL1        0.1229
     32 H           7.4776    1.9548   -4.5658 H       1  UNL1        0.0837
     33 H           6.2404    2.2398   -5.8630 H       1  UNL1        0.0837
     34 H           4.5908   -0.2602   -2.7534 H       1  UNL1        0.0884
     35 H           1.0899   -0.4678   -1.2116 H       1  UNL1        0.1552
     36 H          -2.1351   -0.8904   -2.6113 H       1  UNL1        0.0637
     37 H          -3.9837   -1.9370   -1.4581 H       1  UNL1        0.0647
     38 H          -0.3812   -0.7472    4.1821 H       1  UNL1        0.0643
     39 H          -0.5083    0.4038    2.8252 H       1  UNL1        0.0643
     40 H          -5.8549    0.6375    4.2549 H       1  UNL1        0.1466
     41 H          -4.3324    1.2693    4.9875 H       1  UNL1        0.1466
     42 H          -3.9936   -3.9018    3.5145 H       1  UNL1        0.0737
     43 H          -2.2307   -2.2630    5.5427 H       1  UNL1        0.0306
     44 H          -2.0157   -3.9888    5.0291 H       1  UNL1        0.0306
     45 H          -1.7440   -3.3769    2.5950 H       1  UNL1        0.0365
     46 H          -0.1335   -0.1392    1.0033 H       1  UNL1        0.0640
     47 H           1.2869    3.1867   -3.9271 H       1  UNL1        0.0854
@<TRIPOS>BOND
     1     1     2    3
     2     2     3    1
     3     3     4    1
     4     4     5    1
     5     5     6   ar
     6     6     7   ar
     7     7     8   ar
     8     8     9    1
     9     9    10    2
    10     9    11   am
    11    11    12    1
    12    12    13   ar
    13    13    14   ar
    14    14    15   ar
    15    15    16    1
    16    15    17   ar
    17    17    18    1
    18    18    19    1
    19    19    20    1
    20    18    21    1
    21    21    22    2
    22    22    23    1
    23    22    24    1
    24    24    25    1
    25    25    26    1
    26    26    27    1
    27    17    28   ar
    28     8    29   ar
    29    29    30   ar
    30    30     5   ar
    31    28    12   ar
    32    27    18    1
    33    27    25    1
    34     1    31    1
    35     3    32    1
    36     3    33    1
    37     6    34    1
    38    11    35    1
    39    13    36    1
    40    14    37    1
    41    19    38    1
    42    19    39    1
    43    23    40    1
    44    23    41    1
    45    25    42    1
    46    26    43    1
    47    26    44    1
    48    27    45    1
    49    28    46    1
    50    29    47    1
