@<TRIPOS>MOLECULE
*****
 53 55 0 0 0
SMALL
GASTEIGER

@<TRIPOS>ATOM
      1 C           7.8736    2.0324    1.2709 C.2     1  UNL1       -0.0938
      2 C           8.0521    1.7892    0.0046 C.2     1  UNL1       -0.0069
      3 C           7.3876    0.7258   -0.7056 C.2     1  UNL1        0.2367
      4 O           7.6020    0.5352   -1.9440 O.2     1  UNL1       -0.2709
      5 N           6.4599   -0.1814   -0.1096 N.am    1  UNL1       -0.3049
      6 C           5.8334   -1.2175   -0.8703 C.3     1  UNL1        0.0671
      7 C           5.9638   -2.6003   -0.2819 C.3     1  UNL1        0.0679
      8 O           5.0012   -3.3124   -0.9655 O.3     1  UNL1       -0.3760
      9 C           3.9281   -2.5028   -1.2382 C.3     1  UNL1        0.0679
     10 C           4.3292   -1.0733   -0.9072 C.3     1  UNL1        0.0671
     11 N           3.7430   -0.6128    0.3035 N.pl3   1  UNL1       -0.3066
     12 C           2.3272   -0.4209    0.3328 C.ar    1  UNL1        0.2157
     13 N           1.5574   -0.6648   -0.7432 N.ar    1  UNL1       -0.2193
     14 C           0.2228   -0.4898   -0.7403 C.ar    1  UNL1        0.0743
     15 C          -0.4142   -0.0429    0.3963 C.ar    1  UNL1        0.1571
     16 O          -1.8004    0.1502    0.4345 O.3     1  UNL1       -0.4841
     17 C          -2.6235   -0.0985   -0.6763 C.3     1  UNL1        0.1204
     18 C          -4.0257    0.2088   -0.2924 C.ar    1  UNL1        0.0671
     19 C          -4.4577    1.5043   -0.2000 C.ar    1  UNL1        0.1741
     20 F          -3.5979    2.5044   -0.4619 F       1  UNL1       -0.2012
     21 C          -5.7654    1.8302    0.1579 C.ar    1  UNL1        0.1591
     22 O          -6.1626    3.1586    0.2398 O.3     1  UNL1       -0.4921
     23 C          -7.5069    3.4083    0.6094 C.3     1  UNL1        0.0789
     24 C          -6.6135    0.7741    0.4176 C.ar    1  UNL1        0.0275
     25 C          -6.2233   -0.5512    0.3376 C.ar    1  UNL1        0.1591
     26 O          -7.0825   -1.6095    0.6004 O.3     1  UNL1       -0.4921
     27 C          -8.4288   -1.2954    0.9695 C.3     1  UNL1        0.0789
     28 C          -4.9046   -0.8201   -0.0247 C.ar    1  UNL1        0.1741
     29 F          -4.5058   -2.1127   -0.1078 F       1  UNL1       -0.2012
     30 C           0.3662    0.2096    1.5033 C.ar    1  UNL1        0.0743
     31 N           1.6998    0.0156    1.4408 N.ar    1  UNL1       -0.2193
     32 H           7.2035    1.4429    1.8845 H       1  UNL1        0.0536
     33 H           8.3821    2.8360    1.7866 H       1  UNL1        0.0536
     34 H           8.7391    2.4243   -0.5411 H       1  UNL1        0.0663
     35 H           6.2640   -0.0615    0.9001 H       1  UNL1        0.1494
     36 H           6.2129   -1.2616   -1.9207 H       1  UNL1        0.0540
     37 H           6.9861   -2.9609   -0.5643 H       1  UNL1        0.0579
     38 H           5.8068   -2.6371    0.7965 H       1  UNL1        0.0579
     39 H           3.0579   -2.8100   -0.6436 H       1  UNL1        0.0579
     40 H           3.6553   -2.5069   -2.3327 H       1  UNL1        0.0579
     41 H           4.0493   -0.3667   -1.7381 H       1  UNL1        0.0540
     42 H           4.3285   -0.4277    1.1337 H       1  UNL1        0.1493
     43 H          -0.3925   -0.6898   -1.6165 H       1  UNL1        0.0869
     44 H          -2.2752    0.5738   -1.4922 H       1  UNL1        0.0750
     45 H          -2.5650   -1.1470   -1.0319 H       1  UNL1        0.0750
     46 H          -7.7719    2.9614    1.5867 H       1  UNL1        0.0660
     47 H          -7.7695    4.4802    0.5405 H       1  UNL1        0.0660
     48 H          -8.1275    2.8626   -0.1601 H       1  UNL1        0.0660
     49 H          -7.6450    0.9666    0.7012 H       1  UNL1        0.0693
     50 H          -8.4000   -0.6410    1.8657 H       1  UNL1        0.0660
     51 H          -9.0379   -2.1949    1.0982 H       1  UNL1        0.0660
     52 H          -8.8136   -0.6464    0.1406 H       1  UNL1        0.0660
     53 H          -0.1220    0.5632    2.4091 H       1  UNL1        0.0869
@<TRIPOS>BOND
     1     1     2    2
     2     2     3    1
     3     3     4    2
     4     3     5   am
     5     5     6    1
     6     6     7    1
     7     7     8    1
     8     8     9    1
     9     9    10    1
    10    10    11    1
    11    11    12    1
    12    12    13   ar
    13    13    14   ar
    14    14    15   ar
    15    15    16    1
    16    16    17    1
    17    17    18    1
    18    18    19   ar
    19    19    20    1
    20    19    21   ar
    21    21    22    1
    22    22    23    1
    23    21    24   ar
    24    24    25   ar
    25    25    26    1
    26    26    27    1
    27    25    28   ar
    28    28    29    1
    29    15    30   ar
    30    30    31   ar
    31    10     6    1
    32    31    12   ar
    33    28    18   ar
    34     1    32    1
    35     1    33    1
    36     2    34    1
    37     5    35    1
    38     6    36    1
    39     7    37    1
    40     7    38    1
    41     9    39    1
    42     9    40    1
    43    10    41    1
    44    11    42    1
    45    14    43    1
    46    17    44    1
    47    17    45    1
    48    23    46    1
    49    23    47    1
    50    23    48    1
    51    24    49    1
    52    27    50    1
    53    27    51    1
    54    27    52    1
    55    30    53    1
