@<TRIPOS>MOLECULE
*****
 76 80 0 0 0
SMALL
GASTEIGER

@<TRIPOS>ATOM
      1 C          -9.0643    3.3302   -2.3727 C.3     1  UNL1       -0.0306
      2 C          -9.3016    2.4311   -1.1983 C.3     1  UNL1        0.0885
      3 O          -8.1307    1.6391   -0.9564 O.3     1  UNL1       -0.4744
      4 C          -8.1615    0.7378    0.1002 C.ar    1  UNL1        0.2555
      5 N          -9.2174    0.5259    0.9399 N.ar    1  UNL1       -0.1317
      6 N          -8.8815   -0.3990    1.8158 N.ar    1  UNL1       -0.2692
      7 C          -9.7358   -0.8887    2.8706 C.3     1  UNL1        0.0304
      8 C          -7.6088   -0.7935    1.5522 C.ar    1  UNL1        0.0503
      9 C          -7.1262   -0.0895    0.4695 C.ar    1  UNL1        0.1152
     10 N          -5.8557   -0.1582   -0.1436 N.pl3   1  UNL1       -0.2782
     11 C          -4.8121   -1.0165    0.2807 C.ar    1  UNL1        0.2202
     12 N          -4.9752   -1.9196    1.2536 N.ar    1  UNL1       -0.2224
     13 C          -3.9929   -2.7221    1.6956 C.ar    1  UNL1        0.0361
     14 C          -2.7217   -2.6317    1.1284 C.ar    1  UNL1       -0.0062
     15 C          -1.6233   -3.5253    1.6192 C.3     1  UNL1       -0.0362
     16 C          -2.5467   -1.7051    0.1276 C.ar    1  UNL1        0.0809
     17 C          -1.2160   -1.5797   -0.4616 C.ar    1  UNL1        0.0258
     18 C          -0.3605   -2.5366   -0.9638 C.ar    1  UNL1        0.0120
     19 N           0.7794   -1.9565   -1.3868 N.ar    1  UNL1       -0.3586
     20 C           0.7243   -0.6160   -1.1856 C.ar    1  UNL1        0.0686
     21 C           1.5926    0.4181   -1.4396 C.ar    1  UNL1        0.0576
     22 N           2.8630    0.1720   -2.0109 N.am    1  UNL1       -0.2825
     23 C           4.0344    0.0030   -1.1866 C.2     1  UNL1        0.2342
     24 O           3.9125    0.0788    0.0610 O.2     1  UNL1       -0.2738
     25 C           5.3290   -0.2507   -1.8606 C.3     1  UNL1        0.0848
     26 C           5.5516    0.7240   -3.0080 C.3     1  UNL1       -0.0409
     27 N           6.4692   -0.2492   -1.0240 N.3     1  UNL1       -0.2890
     28 C           6.5295   -1.2049    0.0186 C.3     1  UNL1        0.0124
     29 C           7.8417   -1.0447    0.7779 C.3     1  UNL1        0.0117
     30 N           8.0552    0.2668    1.2968 N.3     1  UNL1       -0.3002
     31 C           8.1278    0.3203    2.7415 C.3     1  UNL1       -0.0124
     32 C           7.1470    1.2135    0.7371 C.3     1  UNL1        0.0201
     33 C           7.6140    2.6490    0.9432 C.3     1  UNL1       -0.0483
     34 C           7.0840    1.0043   -0.7558 C.3     1  UNL1        0.0150
     35 C           1.2022    1.7018   -1.1094 C.ar    1  UNL1       -0.0384
     36 C          -0.0345    1.9542   -0.5335 C.ar    1  UNL1       -0.0593
     37 C          -0.8976    0.9124   -0.2822 C.ar    1  UNL1       -0.0518
     38 C          -0.5106   -0.3713   -0.6116 C.ar    1  UNL1        0.0107
     39 N          -3.5830   -0.9369   -0.2609 N.ar    1  UNL1       -0.2139
     40 H         -10.0354    3.3757   -2.9386 H       1  UNL1        0.0262
     41 H          -8.8530    4.3886   -2.0574 H       1  UNL1        0.0262
     42 H          -8.3005    2.9695   -3.0757 H       1  UNL1        0.0262
     43 H          -9.4652    3.0567   -0.2741 H       1  UNL1        0.0694
     44 H         -10.1613    1.7550   -1.3269 H       1  UNL1        0.0694
     45 H         -10.0317   -1.9286    2.6996 H       1  UNL1        0.0473
     46 H         -10.6384   -0.2332    2.9610 H       1  UNL1        0.0473
     47 H          -9.1796   -0.8418    3.8522 H       1  UNL1        0.0473
     48 H          -7.1052   -1.5408    2.1284 H       1  UNL1        0.0846
     49 H          -5.6701    0.4746   -0.9787 H       1  UNL1        0.1552
     50 H          -4.1312   -3.4387    2.4691 H       1  UNL1        0.0834
     51 H          -0.6476   -2.9927    1.6560 H       1  UNL1        0.0279
     52 H          -1.5084   -4.4317    1.0104 H       1  UNL1        0.0279
     53 H          -1.8824   -3.7823    2.6701 H       1  UNL1        0.0279
     54 H          -0.5798   -3.6017   -1.0129 H       1  UNL1        0.0814
     55 H           1.6280   -2.4257   -1.8224 H       1  UNL1        0.1654
     56 H           3.0128    0.1027   -3.0412 H       1  UNL1        0.1549
     57 H           5.2815   -1.2781   -2.3372 H       1  UNL1        0.0556
     58 H           5.0679    0.2914   -3.9052 H       1  UNL1        0.0249
     59 H           6.6330    0.8996   -3.1085 H       1  UNL1        0.0249
     60 H           4.9919    1.6844   -2.8099 H       1  UNL1        0.0249
     61 H           5.7006   -1.2243    0.7242 H       1  UNL1        0.0439
     62 H           6.6085   -2.2238   -0.4677 H       1  UNL1        0.0439
     63 H           8.6868   -1.3085    0.1086 H       1  UNL1        0.0439
     64 H           7.8368   -1.7620    1.6271 H       1  UNL1        0.0439
     65 H           8.1474    1.3791    3.0409 H       1  UNL1        0.0391
     66 H           9.1409   -0.0886    3.0276 H       1  UNL1        0.0391
     67 H           7.3663   -0.2813    3.2505 H       1  UNL1        0.0391
     68 H           6.1708    1.1024    1.2394 H       1  UNL1        0.0472
     69 H           8.6088    2.7905    0.5044 H       1  UNL1        0.0245
     70 H           7.5249    2.9972    1.9708 H       1  UNL1        0.0245
     71 H           6.9114    3.2685    0.3096 H       1  UNL1        0.0245
     72 H           8.1511    0.9456   -1.1115 H       1  UNL1        0.0442
     73 H           6.6091    1.8652   -1.2687 H       1  UNL1        0.0442
     74 H           1.8400    2.5469   -1.2854 H       1  UNL1        0.0637
     75 H          -0.3536    2.9452   -0.2723 H       1  UNL1        0.0618
     76 H          -1.8752    1.0584    0.1669 H       1  UNL1        0.0624
@<TRIPOS>BOND
     1     1     2    1
     2     2     3    1
     3     3     4    1
     4     4     5   ar
     5     5     6   ar
     6     6     7    1
     7     6     8   ar
     8     8     9   ar
     9     9    10    1
    10    10    11    1
    11    11    12   ar
    12    12    13   ar
    13    13    14   ar
    14    14    15    1
    15    14    16   ar
    16    16    17    1
    17    17    18   ar
    18    18    19   ar
    19    19    20   ar
    20    20    21   ar
    21    21    22    1
    22    22    23   am
    23    23    24    2
    24    23    25    1
    25    25    26    1
    26    25    27    1
    27    27    28    1
    28    28    29    1
    29    29    30    1
    30    30    31    1
    31    30    32    1
    32    32    33    1
    33    32    34    1
    34    21    35   ar
    35    35    36   ar
    36    36    37   ar
    37    37    38   ar
    38    16    39   ar
    39     9     4   ar
    40    39    11   ar
    41    38    17   ar
    42    38    20   ar
    43    34    27    1
    44     1    40    1
    45     1    41    1
    46     1    42    1
    47     2    43    1
    48     2    44    1
    49     7    45    1
    50     7    46    1
    51     7    47    1
    52     8    48    1
    53    10    49    1
    54    13    50    1
    55    15    51    1
    56    15    52    1
    57    15    53    1
    58    18    54    1
    59    19    55    1
    60    22    56    1
    61    25    57    1
    62    26    58    1
    63    26    59    1
    64    26    60    1
    65    28    61    1
    66    28    62    1
    67    29    63    1
    68    29    64    1
    69    31    65    1
    70    31    66    1
    71    31    67    1
    72    32    68    1
    73    33    69    1
    74    33    70    1
    75    33    71    1
    76    34    72    1
    77    34    73    1
    78    35    74    1
    79    36    75    1
    80    37    76    1
