@<TRIPOS>MOLECULE
*****
 49 53 0 0 0
SMALL
GASTEIGER

@<TRIPOS>ATOM
      1 C           4.7205   -1.9027    0.6175 C.3     1  UNL1       -0.0612
      2 C           4.0500   -1.3448   -0.5914 C.3     1  UNL1       -0.0295
      3 C           3.1059   -0.2285   -0.2454 C.ar    1  UNL1       -0.0314
      4 C           3.5283    1.0440    0.0782 C.ar    1  UNL1        0.0074
      5 C           4.8784    1.3220    0.0890 C.ar    1  UNL1       -0.0107
      6 C           5.3018    2.5825    0.4099 C.ar    1  UNL1        0.1176
      7 O           6.6813    2.8273    0.4104 O.3     1  UNL1       -0.5067
      8 C           4.3754    3.5567    0.7177 C.ar    1  UNL1       -0.0181
      9 C           3.0069    3.2914    0.7112 C.ar    1  UNL1       -0.0323
     10 C           2.5944    2.0218    0.3873 C.ar    1  UNL1        0.0722
     11 N           1.2656    1.7855    0.3875 N.ar    1  UNL1       -0.2449
     12 C           0.8582    0.5403    0.0707 C.ar    1  UNL1        0.0932
     13 C           1.7485   -0.4547   -0.2411 C.ar    1  UNL1        0.0035
     14 C           1.0114   -1.7010   -0.5430 C.3     1  UNL1        0.0541
     15 N          -0.3883   -1.3536   -0.3749 N.ar    1  UNL1       -0.3019
     16 C          -0.4686   -0.0583   -0.0232 C.ar    1  UNL1        0.0713
     17 C          -1.7037    0.5140    0.1954 C.ar    1  UNL1       -0.0290
     18 C          -2.8068   -0.2979    0.0362 C.ar    1  UNL1        0.0082
     19 C          -2.7035   -1.6350   -0.3278 C.ar    1  UNL1        0.0606
     20 C          -3.8759   -2.5371   -0.5060 C.3     1  UNL1        0.1230
     21 O          -5.0040   -1.9925    0.1931 O.3     1  UNL1       -0.4575
     22 C          -4.8913   -0.8633    1.0174 C.2     1  UNL1        0.3441
     23 O          -5.3236   -0.8046    2.2196 O.2     1  UNL1       -0.2472
     24 C          -4.1977    0.2080    0.2468 C.3     1  UNL1        0.1877
     25 O          -4.1817    1.4048    0.9573 O.3     1  UNL1       -0.3732
     26 C          -4.9539    0.4194   -1.0297 C.3     1  UNL1       -0.0121
     27 C          -6.3304    0.9287   -0.6384 C.3     1  UNL1       -0.0618
     28 C          -1.4347   -2.1819   -0.5417 C.ar    1  UNL1        0.2589
     29 O          -1.3091   -3.3891   -0.8720 O.2     1  UNL1       -0.2672
     30 H           5.8201   -1.7970    0.5219 H       1  UNL1        0.0233
     31 H           4.4409   -1.3719    1.5576 H       1  UNL1        0.0233
     32 H           4.5593   -3.0159    0.7190 H       1  UNL1        0.0233
     33 H           4.8095   -0.9394   -1.2783 H       1  UNL1        0.0311
     34 H           3.4649   -2.1307   -1.1109 H       1  UNL1        0.0311
     35 H           5.6141    0.5597   -0.1523 H       1  UNL1        0.0661
     36 H           7.1997    2.4033    1.1763 H       1  UNL1        0.2921
     37 H           4.7983    4.5144    0.9568 H       1  UNL1        0.0655
     38 H           2.3112    4.1018    0.9637 H       1  UNL1        0.0640
     39 H           1.1197   -1.9853   -1.6155 H       1  UNL1        0.0543
     40 H           1.2467   -2.5325    0.1415 H       1  UNL1        0.0543
     41 H          -1.8342    1.5557    0.4816 H       1  UNL1        0.0643
     42 H          -3.6997   -3.5207    0.0215 H       1  UNL1        0.0750
     43 H          -4.0904   -2.7755   -1.5467 H       1  UNL1        0.0750
     44 H          -3.5846    1.3405    1.7613 H       1  UNL1        0.2113
     45 H          -4.4795    1.1993   -1.6679 H       1  UNL1        0.0299
     46 H          -5.0923   -0.4830   -1.6338 H       1  UNL1        0.0299
     47 H          -6.6859    1.7188   -1.3214 H       1  UNL1        0.0231
     48 H          -6.3627    1.3280    0.3844 H       1  UNL1        0.0231
     49 H          -7.1083    0.1291   -0.6899 H       1  UNL1        0.0231
@<TRIPOS>BOND
     1     1     2    1
     2     2     3    1
     3     3     4   ar
     4     4     5   ar
     5     5     6   ar
     6     6     7    1
     7     6     8   ar
     8     8     9   ar
     9     9    10   ar
    10    10    11   ar
    11    11    12   ar
    12    12    13   ar
    13    13    14    1
    14    14    15    1
    15    15    16   ar
    16    16    17   ar
    17    17    18   ar
    18    18    19   ar
    19    19    20    1
    20    20    21    1
    21    21    22    1
    22    22    23    2
    23    22    24    1
    24    24    25    1
    25    24    26    1
    26    26    27    1
    27    19    28   ar
    28    28    29    2
    29    13     3   ar
    30    28    15   ar
    31    10     4   ar
    32    16    12    1
    33    24    18    1
    34     1    30    1
    35     1    31    1
    36     1    32    1
    37     2    33    1
    38     2    34    1
    39     5    35    1
    40     7    36    1
    41     8    37    1
    42     9    38    1
    43    14    39    1
    44    14    40    1
    45    17    41    1
    46    20    42    1
    47    20    43    1
    48    25    44    1
    49    26    45    1
    50    26    46    1
    51    27    47    1
    52    27    48    1
    53    27    49    1
