
     RDKit          3D

 57 60  0  0  0  0  0  0  0  0999 V2000
   -4.1117    2.6793    0.9040 C   0  0  0  0  0  0  0  0  0  0  0  0
   -4.2214    1.1629    0.6884 C   0  0  0  0  0  0  0  0  0  0  0  0
   -4.7983    0.5893    1.9591 C   0  0  0  0  0  0  0  0  0  0  0  0
   -5.1910    0.9774   -0.4348 C   0  0  0  0  0  0  0  0  0  0  0  0
   -4.6751    0.0777   -1.5285 C   0  0  0  0  0  0  0  0  0  0  0  0
   -3.8180   -1.0434   -0.9910 C   0  0  0  0  0  0  0  0  0  0  0  0
   -4.5372   -1.9347   -0.0122 C   0  0  0  0  0  0  0  0  0  0  0  0
   -3.4407   -1.8971   -2.2095 C   0  0  0  0  0  0  0  0  0  0  0  0
   -2.5976   -0.4120   -0.4237 C   0  0  0  0  0  0  0  0  0  0  0  0
   -1.3069   -0.8227   -0.6571 C   0  0  0  0  0  0  0  0  0  0  0  0
   -0.1868   -0.2365   -0.1317 C   0  0  0  0  0  0  0  0  0  0  0  0
   -0.5080    0.8259    0.6678 C   0  0  0  0  0  0  0  0  0  0  0  0
   -1.7622    1.3115    0.9630 C   0  0  0  0  0  0  0  0  0  0  0  0
   -2.8472    0.6726    0.3989 C   0  0  0  0  0  0  0  0  0  0  0  0
    1.1094   -0.7017   -0.5190 C   0  0  0  0  0  0  0  0  0  0  0  0
    1.1957   -1.5292   -1.4760 N   0  0  0  0  0  0  0  0  0  0  0  0
    0.3171   -2.1224   -2.2779 O   0  0  0  0  0  0  0  0  0  0  0  0
    2.4173   -0.3953    0.0119 C   0  0  0  0  0  0  0  0  0  0  0  0
    2.7392    0.3401    1.1258 C   0  0  0  0  0  0  0  0  0  0  0  0
    3.9709    0.6975    1.6052 C   0  0  0  0  0  0  0  0  0  0  0  0
    5.0531    0.2626    0.8769 C   0  0  0  0  0  0  0  0  0  0  0  0
    6.3450    0.5563    1.2543 C   0  0  0  0  0  0  0  0  0  0  0  0
    7.4886    0.1658    0.5902 C   0  0  0  0  0  0  0  0  0  0  0  0
    7.2239   -0.5801   -0.5393 C   0  0  0  0  0  0  0  0  0  0  0  0
    5.9576   -0.9237   -0.9948 C   0  0  0  0  0  0  0  0  0  0  0  0
    4.8791   -0.4852   -0.2608 C   0  0  0  0  0  0  0  0  0  0  0  0
    3.5912   -0.7697   -0.6265 C   0  0  0  0  0  0  0  0  0  0  0  0
    8.8283    0.4970    1.0225 C   0  0  0  0  0  0  0  0  0  0  0  0
    8.9933    1.2500    2.1687 O   0  0  0  0  0  0  0  0  0  0  0  0
    9.8286    0.1207    0.3884 O   0  0  0  0  0  0  0  0  0  0  0  0
   -3.8538    2.8644    1.9520 H   0  0  0  0  0  0  0  0  0  0  0  0
   -5.0581    3.1674    0.5913 H   0  0  0  0  0  0  0  0  0  0  0  0
   -3.3118    3.0270    0.2193 H   0  0  0  0  0  0  0  0  0  0  0  0
   -4.0778   -0.1202    2.4252 H   0  0  0  0  0  0  0  0  0  0  0  0
   -5.0329    1.3648    2.7146 H   0  0  0  0  0  0  0  0  0  0  0  0
   -5.7431    0.0323    1.7980 H   0  0  0  0  0  0  0  0  0  0  0  0
   -5.4892    1.9227   -0.9358 H   0  0  0  0  0  0  0  0  0  0  0  0
   -6.1441    0.5238   -0.0670 H   0  0  0  0  0  0  0  0  0  0  0  0
   -5.5298   -0.2931   -2.1100 H   0  0  0  0  0  0  0  0  0  0  0  0
   -4.0040    0.6841   -2.1763 H   0  0  0  0  0  0  0  0  0  0  0  0
   -4.5953   -2.9963   -0.3899 H   0  0  0  0  0  0  0  0  0  0  0  0
   -5.6068   -1.6241    0.0672 H   0  0  0  0  0  0  0  0  0  0  0  0
   -4.0271   -2.0228    0.9636 H   0  0  0  0  0  0  0  0  0  0  0  0
   -4.4110   -2.1058   -2.7349 H   0  0  0  0  0  0  0  0  0  0  0  0
   -3.0034   -2.8453   -1.8767 H   0  0  0  0  0  0  0  0  0  0  0  0
   -2.8221   -1.3032   -2.9075 H   0  0  0  0  0  0  0  0  0  0  0  0
   -1.3763   -1.6757   -1.2945 H   0  0  0  0  0  0  0  0  0  0  0  0
    0.2128    1.4423    1.1412 H   0  0  0  0  0  0  0  0  0  0  0  0
   -1.9733    2.1554    1.6021 H   0  0  0  0  0  0  0  0  0  0  0  0
    0.1113   -1.6808   -3.1854 H   0  0  0  0  0  0  0  0  0  0  0  0
    1.9733    0.6741    1.7672 H   0  0  0  0  0  0  0  0  0  0  0  0
    4.1476    1.2781    2.4859 H   0  0  0  0  0  0  0  0  0  0  0  0
    6.4566    1.1574    2.1703 H   0  0  0  0  0  0  0  0  0  0  0  0
    8.0555   -0.9516   -1.1565 H   0  0  0  0  0  0  0  0  0  0  0  0
    5.8323   -1.5157   -1.8961 H   0  0  0  0  0  0  0  0  0  0  0  0
    3.5294   -1.3704   -1.5450 H   0  0  0  0  0  0  0  0  0  0  0  0
    9.8047    1.8781    2.2562 H   0  0  0  0  0  0  0  0  0  0  0  0
  1  2  1  0
  2  3  1  0
  2  4  1  0
  4  5  1  0
  5  6  1  0
  6  7  1  0
  6  8  1  0
  6  9  1  0
  9 10  2  0
 10 11  1  0
 11 12  2  0
 12 13  1  0
 13 14  2  0
 11 15  1  0
 15 16  2  0
 16 17  1  0
 15 18  1  0
 18 19  2  0
 19 20  1  0
 20 21  2  0
 21 22  1  0
 22 23  2  0
 23 24  1  0
 24 25  2  0
 25 26  1  0
 26 27  2  0
 23 28  1  0
 28 29  1  0
 28 30  2  0
 14  2  1  0
 27 18  1  0
 14  9  1  0
 26 21  1  0
  1 31  1  0
  1 32  1  0
  1 33  1  0
  3 34  1  0
  3 35  1  0
  3 36  1  0
  4 37  1  0
  4 38  1  0
  5 39  1  0
  5 40  1  0
  7 41  1  0
  7 42  1  0
  7 43  1  0
  8 44  1  0
  8 45  1  0
  8 46  1  0
 10 47  1  0
 12 48  1  0
 13 49  1  0
 17 50  1  0
 19 51  1  0
 20 52  1  0
 22 53  1  0
 24 54  1  0
 25 55  1  0
 27 56  1  0
 29 57  1  0
M  END
$$$$
