@<TRIPOS>MOLECULE
*****
 33 35 0 0 0
SMALL
GASTEIGER

@<TRIPOS>ATOM
      1 C           6.1639   -0.4844   -0.9124 C.3     1  UNL1        0.0788
      2 O           5.2702   -1.2919   -0.1668 O.3     1  UNL1       -0.4951
      3 C           3.9406   -0.8844   -0.0887 C.ar    1  UNL1        0.1201
      4 C           3.4891    0.2730   -0.7153 C.ar    1  UNL1       -0.0194
      5 C           2.1635    0.6457   -0.6160 C.ar    1  UNL1       -0.0504
      6 C           1.2396   -0.1102    0.1043 C.ar    1  UNL1       -0.0110
      7 C          -0.1226    0.2935    0.1931 C.ar    1  UNL1        0.0644
      8 C          -0.3854    1.6447    0.4611 C.ar    1  UNL1        0.1038
      9 O          -1.6151    2.0919    0.5576 O.2     1  UNL1       -0.4618
     10 C          -2.6541    1.3098    0.4108 C.ar    1  UNL1        0.1454
     11 C          -3.9554    1.7835    0.5130 C.ar    1  UNL1        0.0231
     12 C          -5.0539    0.9682    0.3600 C.ar    1  UNL1        0.1239
     13 O          -6.3218    1.5072    0.4749 O.3     1  UNL1       -0.5065
     14 C          -4.8643   -0.3782    0.0936 C.ar    1  UNL1        0.0223
     15 C          -3.5869   -0.8781   -0.0137 C.ar    1  UNL1        0.1347
     16 O          -3.3684   -2.2201   -0.2795 O.3     1  UNL1       -0.5058
     17 C          -2.4855   -0.0330    0.1452 C.ar    1  UNL1        0.1060
     18 C          -1.1992   -0.5187    0.0406 C.ar    1  UNL1        0.2037
     19 O          -1.0257   -1.7141   -0.1960 O.2     1  UNL1       -0.2863
     20 C           1.7370   -1.2465    0.7057 C.ar    1  UNL1       -0.0504
     21 C           3.0416   -1.6420    0.6262 C.ar    1  UNL1       -0.0194
     22 H           5.7244   -0.4217   -1.9496 H       1  UNL1        0.0660
     23 H           6.1396    0.5555   -0.5183 H       1  UNL1        0.0660
     24 H           7.1633   -0.9164   -0.9481 H       1  UNL1        0.0660
     25 H           4.2317    0.8346   -1.2648 H       1  UNL1        0.0654
     26 H           1.8993    1.5586   -1.1337 H       1  UNL1        0.0625
     27 H           0.4303    2.3517    0.5947 H       1  UNL1        0.1037
     28 H          -4.0621    2.8436    0.7225 H       1  UNL1        0.0691
     29 H          -6.4790    2.2405    1.1472 H       1  UNL1        0.2921
     30 H          -5.7236   -1.0190   -0.0267 H       1  UNL1        0.0691
     31 H          -4.1257   -2.7487   -0.7162 H       1  UNL1        0.2922
     32 H           1.0508   -1.8376    1.2596 H       1  UNL1        0.0625
     33 H           3.3441   -2.5573    1.1358 H       1  UNL1        0.0654
@<TRIPOS>BOND
     1     1     2    1
     2     2     3    1
     3     3     4   ar
     4     4     5   ar
     5     5     6   ar
     6     6     7    1
     7     7     8   ar
     8     8     9   ar
     9     9    10   ar
    10    10    11   ar
    11    11    12   ar
    12    12    13    1
    13    12    14   ar
    14    14    15   ar
    15    15    16    1
    16    15    17   ar
    17    17    18   ar
    18    18    19    2
    19     6    20   ar
    20    20    21   ar
    21    21     3   ar
    22    18     7   ar
    23    17    10   ar
    24     1    22    1
    25     1    23    1
    26     1    24    1
    27     4    25    1
    28     5    26    1
    29     8    27    1
    30    11    28    1
    31    13    29    1
    32    14    30    1
    33    16    31    1
    34    20    32    1
    35    21    33    1
