@<TRIPOS>MOLECULE
*****
 64 68 0 0 0
SMALL
GASTEIGER

@<TRIPOS>ATOM
      1 O           7.9772   -0.8814   -0.5082 O.2     1  UNL1       -0.2451
      2 C           7.1197   -1.3340   -1.3016 C.2     1  UNL1        0.3368
      3 O           7.4985   -2.2169   -2.2739 O.3     1  UNL1       -0.4771
      4 C           5.7349   -0.9053   -1.1662 C.ar    1  UNL1        0.0595
      5 C           4.7575   -1.3935   -2.0367 C.ar    1  UNL1       -0.0460
      6 C           3.4623   -1.0021   -1.9226 C.ar    1  UNL1       -0.0392
      7 C           3.0630   -0.0956   -0.9282 C.ar    1  UNL1        0.0452
      8 N           1.6885    0.2697   -0.9092 N.am    1  UNL1       -0.2833
      9 C           0.7141   -0.4296   -0.1517 C.2     1  UNL1        0.2404
     10 O           1.1476   -1.3848    0.5354 O.2     1  UNL1       -0.2732
     11 C          -0.6951   -0.1063   -0.1458 C.3     1  UNL1        0.1154
     12 C          -0.9707    1.3495    0.0600 C.3     1  UNL1       -0.0116
     13 C          -2.4725    1.6362    0.0647 C.3     1  UNL1       -0.0479
     14 C          -2.8165    2.8586    0.8884 C.3     1  UNL1       -0.0527
     15 C          -1.8185    3.9468    0.6813 C.3     1  UNL1       -0.0530
     16 C          -0.3979    3.5512    0.9183 C.3     1  UNL1       -0.0527
     17 C          -0.3910    2.0382    1.2223 C.3     1  UNL1       -0.0479
     18 N          -1.5818   -0.9413    0.5952 N.ar    1  UNL1       -0.3113
     19 C          -2.6715   -1.5608    0.0342 C.ar    1  UNL1        0.1425
     20 C          -3.1190   -1.4871   -1.3708 C.ar    1  UNL1        0.0176
     21 C          -2.4666   -2.2332   -2.3309 C.ar    1  UNL1       -0.0497
     22 C          -2.8076   -2.2321   -3.6606 C.ar    1  UNL1       -0.0427
     23 C          -3.8738   -1.4254   -4.0347 C.ar    1  UNL1        0.0410
     24 CL         -4.3308   -1.4076   -5.7409 Cl      1  UNL1       -0.0835
     25 C          -4.5471   -0.6672   -3.0988 C.ar    1  UNL1       -0.0427
     26 C          -4.1697   -0.6949   -1.7518 C.ar    1  UNL1       -0.0497
     27 N          -3.2831   -2.2627    0.9933 N.ar    1  UNL1       -0.2275
     28 C          -2.5882   -2.0887    2.1464 C.ar    1  UNL1        0.0897
     29 C          -2.7647   -2.5703    3.4255 C.ar    1  UNL1       -0.0342
     30 C          -1.8905   -2.2288    4.4323 C.ar    1  UNL1       -0.0596
     31 C          -0.8284   -1.3979    4.1617 C.ar    1  UNL1       -0.0597
     32 C          -0.6174   -0.8892    2.8736 C.ar    1  UNL1       -0.0360
     33 C          -1.5071   -1.2509    1.9002 C.ar    1  UNL1        0.0698
     34 C           4.0070    0.3945   -0.0632 C.ar    1  UNL1        0.0767
     35 C           3.6347    1.3435    1.0429 C.3     1  UNL1        0.4191
     36 F           3.0303    2.4728    0.5911 F       1  UNL1       -0.1658
     37 F           2.9196    0.6274    1.9739 F       1  UNL1       -0.1658
     38 F           4.8404    1.6614    1.7075 F       1  UNL1       -0.1658
     39 C           5.3321   -0.0172   -0.1944 C.ar    1  UNL1       -0.0343
     40 H           8.4234   -2.6686   -2.3201 H       1  UNL1        0.2954
     41 H           5.0263   -2.0986   -2.8219 H       1  UNL1        0.0626
     42 H           2.7201   -1.4081   -2.6268 H       1  UNL1        0.0636
     43 H           1.4151    1.1147   -1.5051 H       1  UNL1        0.1549
     44 H          -1.0425   -0.2450   -1.2662 H       1  UNL1        0.0627
     45 H          -0.6181    1.9455   -0.8590 H       1  UNL1        0.0325
     46 H          -2.8794    1.7725   -0.9466 H       1  UNL1        0.0269
     47 H          -2.9931    0.7884    0.5450 H       1  UNL1        0.0269
     48 H          -3.8007    3.2286    0.5255 H       1  UNL1        0.0265
     49 H          -2.9687    2.6005    1.9619 H       1  UNL1        0.0265
     50 H          -1.9024    4.2695   -0.3962 H       1  UNL1        0.0265
     51 H          -2.1344    4.8297    1.2731 H       1  UNL1        0.0265
     52 H           0.2667    3.7126    0.0465 H       1  UNL1        0.0265
     53 H          -0.0034    4.0573    1.8402 H       1  UNL1        0.0265
     54 H           0.6194    1.7087    1.4615 H       1  UNL1        0.0269
     55 H          -1.0262    1.9658    2.1560 H       1  UNL1        0.0269
     56 H          -1.6383   -2.8560   -2.0223 H       1  UNL1        0.0625
     57 H          -2.2812   -2.8294   -4.4138 H       1  UNL1        0.0632
     58 H          -5.3673   -0.0515   -3.4091 H       1  UNL1        0.0632
     59 H          -4.6973   -0.0997   -1.0133 H       1  UNL1        0.0625
     60 H          -3.6166   -3.2239    3.5964 H       1  UNL1        0.0639
     61 H          -2.0070   -2.5920    5.4394 H       1  UNL1        0.0618
     62 H          -0.1088   -1.0969    4.9187 H       1  UNL1        0.0618
     63 H           0.2260   -0.2399    2.6915 H       1  UNL1        0.0639
     64 H           6.0703    0.3708    0.4866 H       1  UNL1        0.0632
@<TRIPOS>BOND
     1     1     2    2
     2     2     3    1
     3     2     4    1
     4     4     5   ar
     5     5     6   ar
     6     6     7   ar
     7     7     8    1
     8     8     9   am
     9     9    10    2
    10     9    11    1
    11    11    12    1
    12    12    13    1
    13    13    14    1
    14    14    15    1
    15    15    16    1
    16    16    17    1
    17    11    18    1
    18    18    19   ar
    19    19    20    1
    20    20    21   ar
    21    21    22   ar
    22    22    23   ar
    23    23    24    1
    24    23    25   ar
    25    25    26   ar
    26    19    27   ar
    27    27    28   ar
    28    28    29   ar
    29    29    30   ar
    30    30    31   ar
    31    31    32   ar
    32    32    33   ar
    33     7    34   ar
    34    34    35    1
    35    35    36    1
    36    35    37    1
    37    35    38    1
    38    34    39   ar
    39    39     4   ar
    40    17    12    1
    41    33    18   ar
    42    26    20   ar
    43    33    28   ar
    44     3    40    1
    45     5    41    1
    46     6    42    1
    47     8    43    1
    48    11    44    1
    49    12    45    1
    50    13    46    1
    51    13    47    1
    52    14    48    1
    53    14    49    1
    54    15    50    1
    55    15    51    1
    56    16    52    1
    57    16    53    1
    58    17    54    1
    59    17    55    1
    60    21    56    1
    61    22    57    1
    62    25    58    1
    63    26    59    1
    64    29    60    1
    65    30    61    1
    66    31    62    1
    67    32    63    1
    68    39    64    1
