@<TRIPOS>MOLECULE
*****
 41 44 0 0 0
SMALL
GASTEIGER

@<TRIPOS>ATOM
      1 C           6.6462    0.2728   -1.7028 C.3     1  UNL1        0.0596
      2 S           5.9190    1.1746   -0.3553 S.O2    1  UNL1       -0.0059
      3 O           5.9155    2.6335   -0.7386 O.2     1  UNL1       -0.1696
      4 O           6.6511    0.9910    0.9228 O.2     1  UNL1       -0.1696
      5 C           4.2600    0.6713   -0.1139 C.ar    1  UNL1        0.0879
      6 C           3.2607    1.3279   -0.7885 C.ar    1  UNL1       -0.0363
      7 C           1.9341    0.9793   -0.6415 C.ar    1  UNL1       -0.0521
      8 C           1.5682   -0.0608    0.2057 C.ar    1  UNL1       -0.0128
      9 C           0.1741   -0.4175    0.3520 C.ar    1  UNL1        0.0449
     10 C          -0.7489    0.6114    0.5156 C.ar    1  UNL1        0.0424
     11 N          -2.0265    0.2627    0.6486 N.ar    1  UNL1       -0.2233
     12 C          -2.4560   -1.0049    0.6326 C.ar    1  UNL1        0.2028
     13 N          -3.8356   -1.2859    0.7812 N.pl3   1  UNL1       -0.3074
     14 C          -4.7877   -0.2304    0.9498 C.3     1  UNL1        0.0699
     15 C          -4.7878    0.7127   -0.2158 C.ar    1  UNL1        0.1218
     16 C          -5.5899    0.5452   -1.3192 C.ar    1  UNL1       -0.0192
     17 C          -5.3247    1.5916   -2.1790 C.ar    1  UNL1       -0.0236
     18 C          -4.3581    2.3545   -1.5426 C.ar    1  UNL1        0.0921
     19 O          -4.0800    1.7918   -0.3930 O.2     1  UNL1       -0.4662
     20 N          -1.5438   -1.9702    0.4736 N.ar    1  UNL1       -0.2530
     21 C          -1.7131   -3.3128    0.4227 C.ar    1  UNL1        0.1267
     22 N          -0.4893   -3.8455    0.2496 N.ar    1  UNL1       -0.1371
     23 N           0.4302   -2.9063    0.1903 N.ar    1  UNL1       -0.1289
     24 C          -0.2220   -1.7324    0.3295 C.ar    1  UNL1        0.1726
     25 C           2.5860   -0.7105    0.8765 C.ar    1  UNL1       -0.0521
     26 C           3.9126   -0.3567    0.7251 C.ar    1  UNL1       -0.0363
     27 H           7.5476    0.8453   -2.0190 H       1  UNL1        0.0468
     28 H           6.8924   -0.7698   -1.4154 H       1  UNL1        0.0468
     29 H           5.9324    0.3230   -2.5519 H       1  UNL1        0.0468
     30 H           3.4773    2.1597   -1.4748 H       1  UNL1        0.0637
     31 H           1.1612    1.5296   -1.1996 H       1  UNL1        0.0624
     32 H          -0.4235    1.6399    0.5314 H       1  UNL1        0.0838
     33 H          -4.1580   -2.2675    0.7676 H       1  UNL1        0.1493
     34 H          -4.4287    0.3906    1.8193 H       1  UNL1        0.0543
     35 H          -5.7876   -0.5737    1.2169 H       1  UNL1        0.0543
     36 H          -6.2984   -0.2269   -1.5224 H       1  UNL1        0.0652
     37 H          -5.7307    1.8275   -3.1337 H       1  UNL1        0.0649
     38 H          -3.8984    3.2611   -1.9120 H       1  UNL1        0.1029
     39 H          -2.6603   -3.8419    0.5070 H       1  UNL1        0.1052
     40 H           2.3578   -1.5257    1.5472 H       1  UNL1        0.0624
     41 H           4.7223   -0.8578    1.2454 H       1  UNL1        0.0637
@<TRIPOS>BOND
     1     1     2    1
     2     2     3    2
     3     2     4    2
     4     2     5    1
     5     5     6   ar
     6     6     7   ar
     7     7     8   ar
     8     8     9    1
     9     9    10   ar
    10    10    11   ar
    11    11    12   ar
    12    12    13    1
    13    13    14    1
    14    14    15    1
    15    15    16   ar
    16    16    17   ar
    17    17    18   ar
    18    18    19   ar
    19    12    20   ar
    20    20    21   ar
    21    21    22   ar
    22    22    23   ar
    23    23    24   ar
    24     8    25   ar
    25    25    26   ar
    26    26     5   ar
    27    24     9   ar
    28    19    15   ar
    29    24    20   ar
    30     1    27    1
    31     1    28    1
    32     1    29    1
    33     6    30    1
    34     7    31    1
    35    10    32    1
    36    13    33    1
    37    14    34    1
    38    14    35    1
    39    16    36    1
    40    17    37    1
    41    18    38    1
    42    21    39    1
    43    25    40    1
    44    26    41    1
