
     RDKit          3D

 32 31  0  0  0  0  0  0  0  0999 V2000
    4.2969   -0.3003   -0.7203 C   0  0  0  0  0  0  0  0  0  0  0  0
    4.1520   -0.9218    0.6455 C   0  0  0  0  0  0  0  0  0  0  0  0
    3.3360    0.0460    1.5002 C   0  0  0  0  0  0  0  0  0  0  0  0
    2.0196    0.2050    0.8150 C   0  0  0  0  0  0  0  0  0  0  0  0
    1.2933    0.9570    1.4095 O   0  0  0  0  0  0  0  0  0  0  0  0
    1.3722   -0.5087   -0.6814 S   0  0  0  0  0  0  0  0  0  0  0  0
   -0.3072    0.0370   -1.0510 C   0  0  0  0  0  0  0  0  0  0  0  0
   -1.2116   -0.5051    0.0205 C   0  0  0  0  0  0  0  0  0  0  0  0
   -2.5962   -0.1390   -0.1547 N   0  0  0  0  0  4  0  0  0  0  0  0
   -2.7611    1.2859   -0.1122 C   0  0  0  0  0  0  0  0  0  0  0  0
   -3.3393   -0.7427    0.9393 C   0  0  0  0  0  0  0  0  0  0  0  0
   -3.1608   -0.6591   -1.3810 C   0  0  0  0  0  0  0  0  0  0  0  0
    5.3754   -0.2748   -1.0487 H   0  0  0  0  0  0  0  0  0  0  0  0
    3.7622   -0.9001   -1.4922 H   0  0  0  0  0  0  0  0  0  0  0  0
    3.9483    0.7571   -0.7297 H   0  0  0  0  0  0  0  0  0  0  0  0
    3.5814   -1.8729    0.5591 H   0  0  0  0  0  0  0  0  0  0  0  0
    5.1096   -1.1716    1.1102 H   0  0  0  0  0  0  0  0  0  0  0  0
    3.2105   -0.3404    2.5359 H   0  0  0  0  0  0  0  0  0  0  0  0
    3.8772    1.0157    1.5535 H   0  0  0  0  0  0  0  0  0  0  0  0
   -0.3916    1.1350   -1.1857 H   0  0  0  0  0  0  0  0  0  0  0  0
   -0.5781   -0.4705   -2.0180 H   0  0  0  0  0  0  0  0  0  0  0  0
   -1.0719   -1.5875    0.0765 H   0  0  0  0  0  0  0  0  0  0  0  0
   -0.9044   -0.0445    1.0014 H   0  0  0  0  0  0  0  0  0  0  0  0
   -2.1545    1.6424    0.7630 H   0  0  0  0  0  0  0  0  0  0  0  0
   -2.3807    1.7616   -1.0455 H   0  0  0  0  0  0  0  0  0  0  0  0
   -3.8280    1.5373    0.0057 H   0  0  0  0  0  0  0  0  0  0  0  0
   -2.7632   -1.5967    1.3680 H   0  0  0  0  0  0  0  0  0  0  0  0
   -4.3305   -1.1248    0.5859 H   0  0  0  0  0  0  0  0  0  0  0  0
   -3.4541   -0.0019    1.7719 H   0  0  0  0  0  0  0  0  0  0  0  0
   -2.7877   -0.1301   -2.2767 H   0  0  0  0  0  0  0  0  0  0  0  0
   -3.0625   -1.7641   -1.4368 H   0  0  0  0  0  0  0  0  0  0  0  0
   -4.2512   -0.4586   -1.3272 H   0  0  0  0  0  0  0  0  0  0  0  0
  1  2  1  0
  2  3  1  0
  3  4  1  0
  4  5  2  0
  4  6  1  0
  6  7  1  0
  7  8  1  0
  8  9  1  0
  9 10  1  0
  9 11  1  0
  9 12  1  0
  1 13  1  0
  1 14  1  0
  1 15  1  0
  2 16  1  0
  2 17  1  0
  3 18  1  0
  3 19  1  0
  7 20  1  0
  7 21  1  0
  8 22  1  0
  8 23  1  0
 10 24  1  0
 10 25  1  0
 10 26  1  0
 11 27  1  0
 11 28  1  0
 11 29  1  0
 12 30  1  0
 12 31  1  0
 12 32  1  0
M  CHG  1   9   1
M  END
$$$$
