@<TRIPOS>MOLECULE
*****
 95 98 0 0 0
SMALL
GASTEIGER

@<TRIPOS>ATOM
      1 C           0.0863   -2.1869   -2.1831 C.3     1  UNL1       -0.0221
      2 C          -0.6534   -1.8929   -0.9361 C.ar    1  UNL1        0.0451
      3 C          -1.9780   -2.3065   -0.7482 C.ar    1  UNL1       -0.0007
      4 C          -2.6416   -2.0271    0.4155 C.ar    1  UNL1        0.1242
      5 N          -4.0012   -2.4529    0.6058 N.pl3   1  UNL1       -0.3260
      6 C          -4.7411   -3.1221   -0.4207 C.3     1  UNL1        0.0248
      7 C          -5.9708   -3.7495    0.1593 C.3     1  UNL1       -0.0186
      8 C          -6.9579   -2.7743    0.6951 C.3     1  UNL1        0.0163
      9 N          -7.1836   -1.6587   -0.2138 N.am    1  UNL1       -0.3013
     10 C          -8.5065   -1.2694   -0.5472 C.2     1  UNL1        0.2168
     11 O          -9.4981   -1.9236   -0.0725 O.2     1  UNL1       -0.2756
     12 C          -8.7869   -0.1284   -1.4235 C.3     1  UNL1        0.0367
     13 C         -10.2057   -0.0642   -1.8889 C.3     1  UNL1        0.0046
     14 N         -11.2039    0.0286   -0.9010 N.3     1  UNL1       -0.3062
     15 C         -11.2391    1.2478   -0.1865 C.3     1  UNL1        0.0943
     16 C         -12.3445    1.2375    0.8196 C.2     1  UNL1        0.3187
     17 O         -13.0744    0.2449    0.9240 O.2     1  UNL1       -0.2496
     18 O         -12.5192    2.3558    1.6145 O.3     1  UNL1       -0.4797
     19 C          -5.9897   -1.0247   -0.7466 C.3     1  UNL1        0.0163
     20 C          -5.2023   -2.1268   -1.4733 C.3     1  UNL1       -0.0186
     21 N          -1.9963   -1.3386    1.3929 N.ar    1  UNL1       -0.1997
     22 C          -0.7259   -0.9331    1.2335 C.ar    1  UNL1        0.2174
     23 N          -0.0719   -0.2079    2.2714 N.pl3   1  UNL1       -0.3077
     24 C           1.3034    0.1254    2.1034 C.3     1  UNL1        0.0574
     25 C           1.5892    0.9789    0.9264 C.ar    1  UNL1        0.0998
     26 C           1.6577    2.3561    0.8827 C.ar    1  UNL1        0.0502
     27 N           1.9472    2.7780   -0.3620 N.ar    1  UNL1       -0.2514
     28 C           2.1182    4.1628   -0.7933 C.3     1  UNL1        0.0443
     29 C           3.5981    4.5286   -0.6536 C.3     1  UNL1       -0.0207
     30 C           4.0096    4.3693    0.7739 C.3     1  UNL1       -0.0024
     31 N           5.3973    4.6801    1.0364 N.3     1  UNL1       -0.3159
     32 C           6.2363    3.7172    0.4144 C.3     1  UNL1       -0.0030
     33 C           6.1797    2.3273    0.9713 C.3     1  UNL1       -0.0278
     34 C           7.1736    1.4816    0.1544 C.3     1  UNL1       -0.0027
     35 N           7.1571    0.1098    0.6291 N.3     1  UNL1       -0.3132
     36 C           8.1244   -0.6521   -0.1571 C.3     1  UNL1        0.0076
     37 C           8.0942   -2.1134    0.2402 C.3     1  UNL1       -0.0375
     38 C           9.0606   -2.9088   -0.5842 C.3     1  UNL1       -0.0516
     39 C          10.4594   -2.3188   -0.5288 C.3     1  UNL1       -0.0530
     40 C          10.4817   -1.2356    0.5304 C.3     1  UNL1       -0.0516
     41 C           9.5308   -0.1496    0.0838 C.3     1  UNL1       -0.0375
     42 N           2.0579    1.6781   -1.0924 N.ar    1  UNL1       -0.0654
     43 N           1.8496    0.6012   -0.3486 N.ar    1  UNL1       -0.1329
     44 N          -0.1082   -1.2226    0.0867 N.ar    1  UNL1       -0.2197
     45 H          -0.6708   -2.3869   -2.9938 H       1  UNL1        0.0293
     46 H           0.7917   -3.0422   -2.0614 H       1  UNL1        0.0293
     47 H           0.6264   -1.2467   -2.4642 H       1  UNL1        0.0293
     48 H          -2.4346   -2.8533   -1.5424 H       1  UNL1        0.0670
     49 H          -4.4481   -2.2577    1.5357 H       1  UNL1        0.1477
     50 H          -4.0996   -3.9012   -0.8598 H       1  UNL1        0.0499
     51 H          -5.6568   -4.4016    1.0126 H       1  UNL1        0.0298
     52 H          -6.4172   -4.4607   -0.5819 H       1  UNL1        0.0298
     53 H          -6.6801   -2.4132    1.7178 H       1  UNL1        0.0465
     54 H          -7.9411   -3.3057    0.8306 H       1  UNL1        0.0465
     55 H          -8.5829    0.8331   -0.8764 H       1  UNL1        0.0371
     56 H          -8.1014   -0.1056   -2.3093 H       1  UNL1        0.0371
     57 H         -10.3416    0.8243   -2.5800 H       1  UNL1        0.0429
     58 H         -10.4533   -0.9400   -2.5708 H       1  UNL1        0.0429
     59 H         -11.5038   -0.8025   -0.4035 H       1  UNL1        0.1225
     60 H         -10.2661    1.4392    0.2989 H       1  UNL1        0.0539
     61 H         -11.4192    2.1379   -0.8517 H       1  UNL1        0.0539
     62 H         -13.1114    2.2954    2.4497 H       1  UNL1        0.2951
     63 H          -5.3737   -0.5453    0.0291 H       1  UNL1        0.0465
     64 H          -6.2368   -0.2687   -1.5182 H       1  UNL1        0.0465
     65 H          -5.9322   -2.6580   -2.1121 H       1  UNL1        0.0298
     66 H          -4.4017   -1.6903   -2.0649 H       1  UNL1        0.0298
     67 H          -0.5895    0.0641    3.1137 H       1  UNL1        0.1493
     68 H           1.6504    0.6297    3.0544 H       1  UNL1        0.0528
     69 H           1.9357   -0.8100    2.0690 H       1  UNL1        0.0528
     70 H           1.4924    2.9692    1.7708 H       1  UNL1        0.0846
     71 H           1.4954    4.8172   -0.1750 H       1  UNL1        0.0510
     72 H           1.8664    4.2946   -1.8590 H       1  UNL1        0.0510
     73 H           4.2267    4.0172   -1.3727 H       1  UNL1        0.0295
     74 H           3.6283    5.6318   -0.8966 H       1  UNL1        0.0295
     75 H           3.4312    5.0795    1.4484 H       1  UNL1        0.0425
     76 H           3.8638    3.3255    1.1169 H       1  UNL1        0.0425
     77 H           5.6007    5.6086    0.6409 H       1  UNL1        0.1219
     78 H           7.2940    4.0627    0.5307 H       1  UNL1        0.0424
     79 H           6.0882    3.6289   -0.6824 H       1  UNL1        0.0424
     80 H           6.5259    2.3822    2.0365 H       1  UNL1        0.0290
     81 H           5.1952    1.8589    0.9864 H       1  UNL1        0.0290
     82 H           6.7869    1.4678   -0.8827 H       1  UNL1        0.0424
     83 H           8.1467    1.9518    0.2785 H       1  UNL1        0.0424
     84 H           7.4707    0.0450    1.6288 H       1  UNL1        0.1222
     85 H           7.8960   -0.5585   -1.2310 H       1  UNL1        0.0460
     86 H           7.0737   -2.4829   -0.0242 H       1  UNL1        0.0280
     87 H           8.2396   -2.2104    1.3227 H       1  UNL1        0.0280
     88 H           8.6908   -2.9202   -1.6356 H       1  UNL1        0.0266
     89 H           9.0609   -3.9559   -0.2174 H       1  UNL1        0.0266
     90 H          10.6835   -1.8533   -1.4999 H       1  UNL1        0.0265
     91 H          11.2352   -3.0715   -0.3119 H       1  UNL1        0.0265
     92 H          10.1758   -1.6134    1.5169 H       1  UNL1        0.0266
     93 H          11.4894   -0.7763    0.5826 H       1  UNL1        0.0266
     94 H           9.5617    0.6242    0.8820 H       1  UNL1        0.0280
     95 H           9.9267    0.3230   -0.8370 H       1  UNL1        0.0280
@<TRIPOS>BOND
     1     1     2    1
     2     2     3   ar
     3     3     4   ar
     4     4     5    1
     5     5     6    1
     6     6     7    1
     7     7     8    1
     8     8     9    1
     9     9    10   am
    10    10    11    2
    11    10    12    1
    12    12    13    1
    13    13    14    1
    14    14    15    1
    15    15    16    1
    16    16    17    2
    17    16    18    1
    18     9    19    1
    19    19    20    1
    20     4    21   ar
    21    21    22   ar
    22    22    23    1
    23    23    24    1
    24    24    25    1
    25    25    26   ar
    26    26    27   ar
    27    27    28    1
    28    28    29    1
    29    29    30    1
    30    30    31    1
    31    31    32    1
    32    32    33    1
    33    33    34    1
    34    34    35    1
    35    35    36    1
    36    36    37    1
    37    37    38    1
    38    38    39    1
    39    39    40    1
    40    40    41    1
    41    27    42   ar
    42    42    43   ar
    43    22    44   ar
    44    44     2   ar
    45    20     6    1
    46    43    25   ar
    47    41    36    1
    48     1    45    1
    49     1    46    1
    50     1    47    1
    51     3    48    1
    52     5    49    1
    53     6    50    1
    54     7    51    1
    55     7    52    1
    56     8    53    1
    57     8    54    1
    58    12    55    1
    59    12    56    1
    60    13    57    1
    61    13    58    1
    62    14    59    1
    63    15    60    1
    64    15    61    1
    65    18    62    1
    66    19    63    1
    67    19    64    1
    68    20    65    1
    69    20    66    1
    70    23    67    1
    71    24    68    1
    72    24    69    1
    73    26    70    1
    74    28    71    1
    75    28    72    1
    76    29    73    1
    77    29    74    1
    78    30    75    1
    79    30    76    1
    80    31    77    1
    81    32    78    1
    82    32    79    1
    83    33    80    1
    84    33    81    1
    85    34    82    1
    86    34    83    1
    87    35    84    1
    88    36    85    1
    89    37    86    1
    90    37    87    1
    91    38    88    1
    92    38    89    1
    93    39    90    1
    94    39    91    1
    95    40    92    1
    96    40    93    1
    97    41    94    1
    98    41    95    1
