@<TRIPOS>MOLECULE
*****
 51 55 0 0 0
SMALL
GASTEIGER

@<TRIPOS>ATOM
      1 C           6.0217   -4.2507   -0.1929 C.3     1  UNL1        0.0833
      2 O           4.8169   -3.5554    0.0988 O.3     1  UNL1       -0.4535
      3 C           4.8012   -2.1696    0.2474 C.2     1  UNL1        0.4030
      4 O           5.9184   -1.5921    0.1055 O.2     1  UNL1       -0.2263
      5 N           3.6088   -1.4543    0.5388 N.am    1  UNL1       -0.2585
      6 C           2.3853   -2.1845    0.6842 C.3     1  UNL1        0.0363
      7 C           1.2311   -1.3989    1.2070 C.3     1  UNL1        0.0409
      8 N           1.1924   -0.0268    0.7524 N.ar    1  UNL1       -0.3242
      9 C           2.3483    0.6193    0.5056 C.ar    1  UNL1        0.1284
     10 N           2.0388    1.8620    0.1018 N.ar    1  UNL1       -0.2300
     11 C           0.6912    1.9835    0.0992 C.ar    1  UNL1        0.0971
     12 C           0.0008    3.2022   -0.2851 C.ar    1  UNL1        0.0026
     13 C           0.2345    4.3428    0.4507 C.ar    1  UNL1       -0.0498
     14 C          -0.3840    5.5291    0.1437 C.ar    1  UNL1       -0.0258
     15 C          -1.2537    5.5899   -0.9150 C.ar    1  UNL1        0.1234
     16 F          -1.8801    6.7416   -1.2455 F       1  UNL1       -0.2055
     17 C          -1.5150    4.4740   -1.6756 C.ar    1  UNL1       -0.0258
     18 C          -0.8737    3.2765   -1.3447 C.ar    1  UNL1       -0.0498
     19 C           0.1496    0.7835    0.5126 C.ar    1  UNL1        0.0781
     20 C          -1.2621    0.5146    0.6403 C.ar    1  UNL1        0.0173
     21 C          -2.0761    1.2049    1.5229 C.ar    1  UNL1       -0.0477
     22 C          -3.4220    0.9378    1.6350 C.ar    1  UNL1       -0.0182
     23 C          -3.9950   -0.0507    0.8461 C.ar    1  UNL1        0.1381
     24 N          -5.2698   -0.4889    0.7752 N.ar    1  UNL1       -0.2353
     25 C          -5.3312   -1.4651   -0.1416 C.ar    1  UNL1        0.0588
     26 C          -4.0409   -1.6121   -0.6347 C.ar    1  UNL1        0.1280
     27 C          -3.6442   -2.5579   -1.6475 C.2     1  UNL1        0.2599
     28 N          -4.6063   -3.4240   -2.2113 N.am    1  UNL1       -0.3241
     29 O          -2.4532   -2.6543   -2.0663 O.2     1  UNL1       -0.2687
     30 N          -3.2175   -0.7210   -0.0073 N.ar    1  UNL1       -0.2949
     31 C          -1.8880   -0.4627   -0.1234 C.ar    1  UNL1        0.0211
     32 C           3.6714   -0.0143    0.6784 C.3     1  UNL1        0.0759
     33 H           6.7138   -3.5007   -0.6376 H       1  UNL1        0.0661
     34 H           5.8117   -4.9834   -1.0001 H       1  UNL1        0.0661
     35 H           6.4422   -4.7038    0.7112 H       1  UNL1        0.0661
     36 H           2.1327   -2.6208   -0.2998 H       1  UNL1        0.0483
     37 H           2.5564   -3.0341    1.3965 H       1  UNL1        0.0483
     38 H           0.2847   -1.9274    0.9193 H       1  UNL1        0.0508
     39 H           1.2154   -1.3804    2.3301 H       1  UNL1        0.0508
     40 H           0.9321    4.2972    1.3013 H       1  UNL1        0.0625
     41 H          -0.1952    6.4120    0.7233 H       1  UNL1        0.0646
     42 H          -2.2019    4.5483   -2.5017 H       1  UNL1        0.0646
     43 H          -1.0634    2.3873   -1.9278 H       1  UNL1        0.0625
     44 H          -1.6682    1.9830    2.1558 H       1  UNL1        0.0626
     45 H          -4.0487    1.4787    2.3235 H       1  UNL1        0.0654
     46 H          -6.1807   -2.0514   -0.4703 H       1  UNL1        0.0853
     47 H          -5.3092   -3.0410   -2.8647 H       1  UNL1        0.1453
     48 H          -4.6159   -4.4281   -1.9803 H       1  UNL1        0.1453
     49 H          -1.3241   -1.0453   -0.8349 H       1  UNL1        0.0820
     50 H           4.1182    0.2712    1.6735 H       1  UNL1        0.0546
     51 H           4.4021    0.3601   -0.0718 H       1  UNL1        0.0546
@<TRIPOS>BOND
     1     1     2    1
     2     2     3    1
     3     3     4    2
     4     3     5   am
     5     5     6    1
     6     6     7    1
     7     7     8    1
     8     8     9   ar
     9     9    10   ar
    10    10    11   ar
    11    11    12    1
    12    12    13   ar
    13    13    14   ar
    14    14    15   ar
    15    15    16    1
    16    15    17   ar
    17    17    18   ar
    18    11    19   ar
    19    19    20    1
    20    20    21   ar
    21    21    22   ar
    22    22    23   ar
    23    23    24   ar
    24    24    25   ar
    25    25    26   ar
    26    26    27    1
    27    27    28   am
    28    27    29    2
    29    26    30   ar
    30    30    31   ar
    31     9    32    1
    32    32     5    1
    33    19     8   ar
    34    31    20   ar
    35    18    12   ar
    36    30    23   ar
    37     1    33    1
    38     1    34    1
    39     1    35    1
    40     6    36    1
    41     6    37    1
    42     7    38    1
    43     7    39    1
    44    13    40    1
    45    14    41    1
    46    17    42    1
    47    18    43    1
    48    21    44    1
    49    22    45    1
    50    25    46    1
    51    28    47    1
    52    28    48    1
    53    31    49    1
    54    32    50    1
    55    32    51    1
