
     RDKit          3D

 51 55  0  0  0  0  0  0  0  0999 V2000
    6.0217   -4.2507   -0.1929 C   0  0  0  0  0  0  0  0  0  0  0  0
    4.8169   -3.5554    0.0988 O   0  0  0  0  0  0  0  0  0  0  0  0
    4.8012   -2.1696    0.2474 C   0  0  0  0  0  0  0  0  0  0  0  0
    5.9184   -1.5921    0.1055 O   0  0  0  0  0  0  0  0  0  0  0  0
    3.6088   -1.4543    0.5388 N   0  0  0  0  0  0  0  0  0  0  0  0
    2.3853   -2.1845    0.6842 C   0  0  0  0  0  0  0  0  0  0  0  0
    1.2311   -1.3989    1.2070 C   0  0  0  0  0  0  0  0  0  0  0  0
    1.1924   -0.0268    0.7524 N   0  0  0  0  0  0  0  0  0  0  0  0
    2.3483    0.6193    0.5056 C   0  0  0  0  0  0  0  0  0  0  0  0
    2.0388    1.8620    0.1018 N   0  0  0  0  0  0  0  0  0  0  0  0
    0.6912    1.9835    0.0992 C   0  0  0  0  0  0  0  0  0  0  0  0
    0.0008    3.2022   -0.2851 C   0  0  0  0  0  0  0  0  0  0  0  0
    0.2345    4.3428    0.4507 C   0  0  0  0  0  0  0  0  0  0  0  0
   -0.3840    5.5291    0.1437 C   0  0  0  0  0  0  0  0  0  0  0  0
   -1.2537    5.5899   -0.9150 C   0  0  0  0  0  0  0  0  0  0  0  0
   -1.8801    6.7416   -1.2455 F   0  0  0  0  0  0  0  0  0  0  0  0
   -1.5150    4.4740   -1.6756 C   0  0  0  0  0  0  0  0  0  0  0  0
   -0.8737    3.2765   -1.3447 C   0  0  0  0  0  0  0  0  0  0  0  0
    0.1496    0.7835    0.5126 C   0  0  0  0  0  0  0  0  0  0  0  0
   -1.2621    0.5146    0.6403 C   0  0  0  0  0  0  0  0  0  0  0  0
   -2.0761    1.2049    1.5229 C   0  0  0  0  0  0  0  0  0  0  0  0
   -3.4220    0.9378    1.6350 C   0  0  0  0  0  0  0  0  0  0  0  0
   -3.9950   -0.0507    0.8461 C   0  0  0  0  0  0  0  0  0  0  0  0
   -5.2698   -0.4889    0.7752 N   0  0  0  0  0  0  0  0  0  0  0  0
   -5.3312   -1.4651   -0.1416 C   0  0  0  0  0  0  0  0  0  0  0  0
   -4.0409   -1.6121   -0.6347 C   0  0  0  0  0  0  0  0  0  0  0  0
   -3.6442   -2.5579   -1.6475 C   0  0  0  0  0  0  0  0  0  0  0  0
   -4.6063   -3.4240   -2.2113 N   0  0  0  0  0  0  0  0  0  0  0  0
   -2.4532   -2.6543   -2.0663 O   0  0  0  0  0  0  0  0  0  0  0  0
   -3.2175   -0.7210   -0.0073 N   0  0  0  0  0  0  0  0  0  0  0  0
   -1.8880   -0.4627   -0.1234 C   0  0  0  0  0  0  0  0  0  0  0  0
    3.6714   -0.0143    0.6784 C   0  0  0  0  0  0  0  0  0  0  0  0
    6.7138   -3.5007   -0.6376 H   0  0  0  0  0  0  0  0  0  0  0  0
    5.8117   -4.9834   -1.0001 H   0  0  0  0  0  0  0  0  0  0  0  0
    6.4422   -4.7038    0.7112 H   0  0  0  0  0  0  0  0  0  0  0  0
    2.1327   -2.6208   -0.2998 H   0  0  0  0  0  0  0  0  0  0  0  0
    2.5564   -3.0341    1.3965 H   0  0  0  0  0  0  0  0  0  0  0  0
    0.2847   -1.9274    0.9193 H   0  0  0  0  0  0  0  0  0  0  0  0
    1.2154   -1.3804    2.3301 H   0  0  0  0  0  0  0  0  0  0  0  0
    0.9321    4.2972    1.3013 H   0  0  0  0  0  0  0  0  0  0  0  0
   -0.1952    6.4120    0.7233 H   0  0  0  0  0  0  0  0  0  0  0  0
   -2.2019    4.5483   -2.5017 H   0  0  0  0  0  0  0  0  0  0  0  0
   -1.0634    2.3873   -1.9278 H   0  0  0  0  0  0  0  0  0  0  0  0
   -1.6682    1.9830    2.1558 H   0  0  0  0  0  0  0  0  0  0  0  0
   -4.0487    1.4787    2.3235 H   0  0  0  0  0  0  0  0  0  0  0  0
   -6.1807   -2.0514   -0.4703 H   0  0  0  0  0  0  0  0  0  0  0  0
   -5.3092   -3.0410   -2.8647 H   0  0  0  0  0  0  0  0  0  0  0  0
   -4.6159   -4.4281   -1.9803 H   0  0  0  0  0  0  0  0  0  0  0  0
   -1.3241   -1.0453   -0.8349 H   0  0  0  0  0  0  0  0  0  0  0  0
    4.1182    0.2712    1.6735 H   0  0  0  0  0  0  0  0  0  0  0  0
    4.4021    0.3601   -0.0718 H   0  0  0  0  0  0  0  0  0  0  0  0
  1  2  1  0
  2  3  1  0
  3  4  2  0
  3  5  1  0
  5  6  1  0
  6  7  1  0
  7  8  1  0
  8  9  1  0
  9 10  2  0
 10 11  1  0
 11 12  1  0
 12 13  2  0
 13 14  1  0
 14 15  2  0
 15 16  1  0
 15 17  1  0
 17 18  2  0
 11 19  2  0
 19 20  1  0
 20 21  1  0
 21 22  2  0
 22 23  1  0
 23 24  2  0
 24 25  1  0
 25 26  2  0
 26 27  1  0
 27 28  1  0
 27 29  2  0
 26 30  1  0
 30 31  1  0
  9 32  1  0
 32  5  1  0
 19  8  1  0
 31 20  2  0
 18 12  1  0
 30 23  1  0
  1 33  1  0
  1 34  1  0
  1 35  1  0
  6 36  1  0
  6 37  1  0
  7 38  1  0
  7 39  1  0
 13 40  1  0
 14 41  1  0
 17 42  1  0
 18 43  1  0
 21 44  1  0
 22 45  1  0
 25 46  1  0
 28 47  1  0
 28 48  1  0
 31 49  1  0
 32 50  1  0
 32 51  1  0
M  END
$$$$
