@<TRIPOS>MOLECULE
*****
 54 56 0 0 0
SMALL
GASTEIGER

@<TRIPOS>ATOM
      1 C          -6.2129    0.2235    2.0455 C.3     1  UNL1       -0.0523
      2 C          -5.9353   -0.4487    0.7454 C.3     1  UNL1       -0.0036
      3 N          -5.6712    0.4842   -0.3151 N.3     1  UNL1       -0.2987
      4 C          -5.5544   -0.1834   -1.6054 C.3     1  UNL1       -0.0036
      5 C          -5.4657    0.8640   -2.6850 C.3     1  UNL1       -0.0523
      6 C          -4.5096    1.3266   -0.0710 C.3     1  UNL1        0.0240
      7 C          -3.2725    0.6051    0.2275 C.ar    1  UNL1       -0.0333
      8 C          -2.4462    0.1433   -0.7669 C.ar    1  UNL1       -0.0568
      9 C          -1.2551   -0.5323   -0.4720 C.ar    1  UNL1       -0.0543
     10 C          -0.8659   -0.7595    0.8025 C.ar    1  UNL1       -0.0246
     11 C           0.3299   -1.4161    1.2658 C.2     1  UNL1       -0.0474
     12 C           1.5301   -1.1519    0.7849 C.2     1  UNL1        0.0047
     13 C           1.8520   -0.1871   -0.2590 C.3     1  UNL1        0.0020
     14 C           3.3491   -0.0985   -0.2480 C.ar    1  UNL1       -0.0285
     15 C           4.2336    0.7369   -0.9409 C.ar    1  UNL1       -0.0121
     16 C           5.5999    0.6148   -0.8289 C.ar    1  UNL1        0.1618
     17 O           6.4910    1.4249   -1.4992 O.3     1  UNL1       -0.4914
     18 C           6.1917    2.4613   -2.3795 C.3     1  UNL1        0.0790
     19 C           6.1514   -0.3715   -0.0000 C.ar    1  UNL1        0.1622
     20 O           7.5310   -0.4942    0.1090 O.3     1  UNL1       -0.4914
     21 C           8.1006   -1.4873    0.9397 C.3     1  UNL1        0.0790
     22 C           5.2653   -1.1757    0.6685 C.ar    1  UNL1       -0.0052
     23 C           3.8922   -1.0637    0.5673 C.ar    1  UNL1        0.0291
     24 C           2.8001   -1.7567    1.2328 C.2     1  UNL1        0.1899
     25 O           2.8930   -2.7061    2.0495 O.2     1  UNL1       -0.2870
     26 C          -1.7172   -0.2839    1.8102 C.ar    1  UNL1       -0.0543
     27 C          -2.8956    0.3848    1.5307 C.ar    1  UNL1       -0.0568
     28 H          -7.2699    0.0338    2.3821 H       1  UNL1        0.0242
     29 H          -5.5923   -0.3006    2.8196 H       1  UNL1        0.0242
     30 H          -6.0842    1.3056    2.0638 H       1  UNL1        0.0242
     31 H          -6.8716   -0.9975    0.4326 H       1  UNL1        0.0424
     32 H          -5.1639   -1.2440    0.8206 H       1  UNL1        0.0424
     33 H          -4.7530   -0.9168   -1.6583 H       1  UNL1        0.0424
     34 H          -6.5412   -0.7083   -1.7761 H       1  UNL1        0.0424
     35 H          -4.4615    1.2287   -2.9040 H       1  UNL1        0.0242
     36 H          -5.9738    0.5124   -3.6295 H       1  UNL1        0.0242
     37 H          -6.0631    1.7672   -2.3864 H       1  UNL1        0.0242
     38 H          -4.7912    2.0557    0.7116 H       1  UNL1        0.0476
     39 H          -4.4130    1.9568   -1.0075 H       1  UNL1        0.0476
     40 H          -2.6494    0.2658   -1.8171 H       1  UNL1        0.0621
     41 H          -0.6685   -0.8717   -1.2907 H       1  UNL1        0.0624
     42 H           0.2979   -2.1890    2.0617 H       1  UNL1        0.0627
     43 H           1.3804    0.8021   -0.1448 H       1  UNL1        0.0363
     44 H           1.6304   -0.5680   -1.3033 H       1  UNL1        0.0363
     45 H           3.8396    1.5069   -1.5894 H       1  UNL1        0.0658
     46 H           6.2740    2.0505   -3.4234 H       1  UNL1        0.0660
     47 H           6.9173    3.3029   -2.3276 H       1  UNL1        0.0660
     48 H           5.1732    2.8874   -2.2793 H       1  UNL1        0.0660
     49 H           9.1634   -1.6560    0.7400 H       1  UNL1        0.0660
     50 H           7.5780   -2.4462    0.7077 H       1  UNL1        0.0660
     51 H           7.8931   -1.2792    2.0122 H       1  UNL1        0.0660
     52 H           5.6848   -1.9454    1.3145 H       1  UNL1        0.0662
     53 H          -1.4698   -0.4310    2.8544 H       1  UNL1        0.0624
     54 H          -3.4747    0.7250    2.3949 H       1  UNL1        0.0621
@<TRIPOS>BOND
     1     1     2    1
     2     2     3    1
     3     3     4    1
     4     4     5    1
     5     3     6    1
     6     6     7    1
     7     7     8   ar
     8     8     9   ar
     9     9    10   ar
    10    10    11    1
    11    11    12    2
    12    12    13    1
    13    13    14    1
    14    14    15   ar
    15    15    16   ar
    16    16    17    1
    17    17    18    1
    18    16    19   ar
    19    19    20    1
    20    20    21    1
    21    19    22   ar
    22    22    23   ar
    23    23    24    1
    24    24    25    2
    25    10    26   ar
    26    26    27   ar
    27    27     7   ar
    28    24    12    1
    29    23    14   ar
    30     1    28    1
    31     1    29    1
    32     1    30    1
    33     2    31    1
    34     2    32    1
    35     4    33    1
    36     4    34    1
    37     5    35    1
    38     5    36    1
    39     5    37    1
    40     6    38    1
    41     6    39    1
    42     8    40    1
    43     9    41    1
    44    11    42    1
    45    13    43    1
    46    13    44    1
    47    15    45    1
    48    18    46    1
    49    18    47    1
    50    18    48    1
    51    21    49    1
    52    21    50    1
    53    21    51    1
    54    22    52    1
    55    26    53    1
    56    27    54    1
