
     RDKit          3D

 40 42  0  0  0  0  0  0  0  0999 V2000
    5.1936    1.7498    0.0065 C   0  0  0  0  0  0  0  0  0  0  0  0
    4.0792    0.7545   -0.1696 C   0  0  0  0  0  0  0  0  0  0  0  0
    3.6666   -0.0493    0.8656 C   0  0  0  0  0  0  0  0  0  0  0  0
    2.6416   -0.9588    0.6890 C   0  0  0  0  0  0  0  0  0  0  0  0
    1.9906   -1.1049   -0.5139 C   0  0  0  0  0  0  0  0  0  0  0  0
    0.7010   -2.2742   -0.6598 S   0  0  0  0  0  6  0  0  0  0  0  0
    0.9747   -3.4663    0.2381 O   0  0  0  0  0  0  0  0  0  0  0  0
    0.6916   -2.8658   -2.0658 O   0  0  0  0  0  0  0  0  0  0  0  0
   -0.8412   -1.5973   -0.3472 N   0  0  0  0  0  0  0  0  0  0  0  0
   -1.1816   -1.0345    0.8978 C   0  0  0  0  0  0  0  0  0  0  0  0
   -0.5657   -1.4984    2.0631 C   0  0  0  0  0  0  0  0  0  0  0  0
   -0.9255   -0.9552    3.2794 C   0  0  0  0  0  0  0  0  0  0  0  0
   -1.8698    0.0233    3.3579 C   0  0  0  0  0  0  0  0  0  0  0  0
   -2.4708    0.4714    2.1887 C   0  0  0  0  0  0  0  0  0  0  0  0
   -2.1375   -0.0467    0.9533 C   0  0  0  0  0  0  0  0  0  0  0  0
   -2.7456    0.4256   -0.2659 C   0  0  0  0  0  0  0  0  0  0  0  0
   -4.1092    0.5601   -0.4157 C   0  0  0  0  0  0  0  0  0  0  0  0
   -4.6638    1.0341   -1.6092 C   0  0  0  0  0  0  0  0  0  0  0  0
   -3.8559    1.3759   -2.6586 C   0  0  0  0  0  0  0  0  0  0  0  0
   -2.4964    1.2467   -2.5225 C   0  0  0  0  0  0  0  0  0  0  0  0
   -1.9569    0.7737   -1.3293 C   0  0  0  0  0  0  0  0  0  0  0  0
    2.4133   -0.2937   -1.5435 C   0  0  0  0  0  0  0  0  0  0  0  0
    3.4342    0.6188   -1.3844 C   0  0  0  0  0  0  0  0  0  0  0  0
    5.8506    1.6221   -0.8774 H   0  0  0  0  0  0  0  0  0  0  0  0
    5.7114    1.4728    0.9409 H   0  0  0  0  0  0  0  0  0  0  0  0
    4.7926    2.7800    0.0328 H   0  0  0  0  0  0  0  0  0  0  0  0
    4.1676    0.0549    1.8124 H   0  0  0  0  0  0  0  0  0  0  0  0
    2.3817   -1.5485    1.5425 H   0  0  0  0  0  0  0  0  0  0  0  0
   -1.5496   -1.6096   -1.0999 H   0  0  0  0  0  0  0  0  0  0  0  0
    0.1800   -2.2689    2.0610 H   0  0  0  0  0  0  0  0  0  0  0  0
   -0.4318   -1.3340    4.1635 H   0  0  0  0  0  0  0  0  0  0  0  0
   -2.1255    0.4251    4.3348 H   0  0  0  0  0  0  0  0  0  0  0  0
   -3.2221    1.2473    2.2335 H   0  0  0  0  0  0  0  0  0  0  0  0
   -4.7460    0.2883    0.4179 H   0  0  0  0  0  0  0  0  0  0  0  0
   -5.7302    1.1403   -1.7291 H   0  0  0  0  0  0  0  0  0  0  0  0
   -4.2312    1.7504   -3.6114 H   0  0  0  0  0  0  0  0  0  0  0  0
   -1.8265    1.5092   -3.3362 H   0  0  0  0  0  0  0  0  0  0  0  0
   -0.9038    0.6868   -1.2545 H   0  0  0  0  0  0  0  0  0  0  0  0
    1.9409   -0.3681   -2.4964 H   0  0  0  0  0  0  0  0  0  0  0  0
    3.7756    1.2631   -2.1885 H   0  0  0  0  0  0  0  0  0  0  0  0
  1  2  1  0
  2  3  2  0
  3  4  1  0
  4  5  2  0
  5  6  1  0
  6  7  2  0
  6  8  2  0
  6  9  1  0
  9 10  1  0
 10 11  2  0
 11 12  1  0
 12 13  2  0
 13 14  1  0
 14 15  2  0
 15 16  1  0
 16 17  2  0
 17 18  1  0
 18 19  2  0
 19 20  1  0
 20 21  2  0
  5 22  1  0
 22 23  2  0
 23  2  1  0
 15 10  1  0
 21 16  1  0
  1 24  1  0
  1 25  1  0
  1 26  1  0
  3 27  1  0
  4 28  1  0
  9 29  1  0
 11 30  1  0
 12 31  1  0
 13 32  1  0
 14 33  1  0
 17 34  1  0
 18 35  1  0
 19 36  1  0
 20 37  1  0
 21 38  1  0
 22 39  1  0
 23 40  1  0
M  END
$$$$
