@<TRIPOS>MOLECULE
*****
 40 42 0 0 0
SMALL
GASTEIGER

@<TRIPOS>ATOM
      1 C           5.1936    1.7498    0.0065 C.3     1  UNL1       -0.0397
      2 C           4.0792    0.7545   -0.1696 C.ar    1  UNL1       -0.0503
      3 C           3.6666   -0.0493    0.8656 C.ar    1  UNL1       -0.0570
      4 C           2.6416   -0.9588    0.6890 C.ar    1  UNL1       -0.0348
      5 C           1.9906   -1.1049   -0.5139 C.ar    1  UNL1        0.1085
      6 S           0.7010   -2.2742   -0.6598 S.O2    1  UNL1        0.0724
      7 O           0.9747   -3.4663    0.2381 O.2     1  UNL1       -0.1500
      8 O           0.6916   -2.8658   -2.0658 O.2     1  UNL1       -0.1500
      9 N          -0.8412   -1.5973   -0.3472 N.pl3   1  UNL1       -0.2157
     10 C          -1.1816   -1.0345    0.8978 C.ar    1  UNL1        0.0557
     11 C          -0.5657   -1.4984    2.0631 C.ar    1  UNL1       -0.0387
     12 C          -0.9255   -0.9552    3.2794 C.ar    1  UNL1       -0.0599
     13 C          -1.8698    0.0233    3.3579 C.ar    1  UNL1       -0.0611
     14 C          -2.4708    0.4714    2.1887 C.ar    1  UNL1       -0.0522
     15 C          -2.1375   -0.0467    0.9533 C.ar    1  UNL1        0.0045
     16 C          -2.7456    0.4256   -0.2659 C.ar    1  UNL1       -0.0161
     17 C          -4.1092    0.5601   -0.4157 C.ar    1  UNL1       -0.0540
     18 C          -4.6638    1.0341   -1.6092 C.ar    1  UNL1       -0.0612
     19 C          -3.8559    1.3759   -2.6586 C.ar    1  UNL1       -0.0617
     20 C          -2.4964    1.2467   -2.5225 C.ar    1  UNL1       -0.0612
     21 C          -1.9569    0.7737   -1.3293 C.ar    1  UNL1       -0.0540
     22 C           2.4133   -0.2937   -1.5435 C.ar    1  UNL1       -0.0348
     23 C           3.4342    0.6188   -1.3844 C.ar    1  UNL1       -0.0570
     24 H           5.8506    1.6221   -0.8774 H       1  UNL1        0.0278
     25 H           5.7114    1.4728    0.9409 H       1  UNL1        0.0278
     26 H           4.7926    2.7800    0.0328 H       1  UNL1        0.0278
     27 H           4.1676    0.0549    1.8124 H       1  UNL1        0.0621
     28 H           2.3817   -1.5485    1.5425 H       1  UNL1        0.0637
     29 H          -1.5496   -1.6096   -1.0999 H       1  UNL1        0.1737
     30 H           0.1800   -2.2689    2.0610 H       1  UNL1        0.0637
     31 H          -0.4318   -1.3340    4.1635 H       1  UNL1        0.0618
     32 H          -2.1255    0.4251    4.3348 H       1  UNL1        0.0618
     33 H          -3.2221    1.2473    2.2335 H       1  UNL1        0.0624
     34 H          -4.7460    0.2883    0.4179 H       1  UNL1        0.0624
     35 H          -5.7302    1.1403   -1.7291 H       1  UNL1        0.0618
     36 H          -4.2312    1.7504   -3.6114 H       1  UNL1        0.0618
     37 H          -1.8265    1.5092   -3.3362 H       1  UNL1        0.0618
     38 H          -0.9038    0.6868   -1.2545 H       1  UNL1        0.0624
     39 H           1.9409   -0.3681   -2.4964 H       1  UNL1        0.0637
     40 H           3.7756    1.2631   -2.1885 H       1  UNL1        0.0621
@<TRIPOS>BOND
     1     1     2    1
     2     2     3   ar
     3     3     4   ar
     4     4     5   ar
     5     5     6    1
     6     6     7    2
     7     6     8    2
     8     6     9    1
     9     9    10    1
    10    10    11   ar
    11    11    12   ar
    12    12    13   ar
    13    13    14   ar
    14    14    15   ar
    15    15    16    1
    16    16    17   ar
    17    17    18   ar
    18    18    19   ar
    19    19    20   ar
    20    20    21   ar
    21     5    22   ar
    22    22    23   ar
    23    23     2   ar
    24    15    10   ar
    25    21    16   ar
    26     1    24    1
    27     1    25    1
    28     1    26    1
    29     3    27    1
    30     4    28    1
    31     9    29    1
    32    11    30    1
    33    12    31    1
    34    13    32    1
    35    14    33    1
    36    17    34    1
    37    18    35    1
    38    19    36    1
    39    20    37    1
    40    21    38    1
    41    22    39    1
    42    23    40    1
