@<TRIPOS>MOLECULE
*****
 43 46 0 0 0
SMALL
GASTEIGER

@<TRIPOS>ATOM
      1 C          -1.0560   -2.9450   -0.9627 C.3     1  UNL1        0.0178
      2 N           0.1372   -2.1273   -0.7193 N.ar    1  UNL1       -0.2839
      3 C           0.0395   -0.9926   -0.0068 C.ar    1  UNL1        0.2016
      4 N          -1.2673   -0.6613    0.4689 N.pl3   1  UNL1       -0.2932
      5 C          -1.7025   -1.1729    1.7533 C.3     1  UNL1        0.0387
      6 C          -2.9745   -0.4662    2.1439 C.3     1  UNL1        0.0639
      7 O          -3.0095    0.8750    1.8995 O.3     1  UNL1       -0.3732
      8 C          -2.4765    1.3306    0.7422 C.3     1  UNL1        0.0772
      9 C          -3.3338    2.1842   -0.1222 C.3     1  UNL1       -0.0248
     10 C          -2.7753    1.9874   -1.5397 C.3     1  UNL1       -0.0489
     11 C          -1.6947    0.9049   -1.3944 C.3     1  UNL1       -0.0318
     12 C          -2.2079    0.1541   -0.2177 C.3     1  UNL1        0.0524
     13 N           1.0910   -0.2031    0.2519 N.ar    1  UNL1       -0.2154
     14 C           2.3489   -0.5020   -0.1967 C.ar    1  UNL1        0.0825
     15 C           3.4433    0.4074    0.1254 C.ar    1  UNL1        0.0387
     16 C           3.1580    1.5593    0.8813 C.ar    1  UNL1       -0.0316
     17 C           4.1860    2.4061    1.1799 C.ar    1  UNL1        0.0284
     18 N           5.4402    2.1932    0.7907 N.ar    1  UNL1       -0.2604
     19 C           5.7777    1.1138    0.0679 C.ar    1  UNL1        0.0634
     20 C           4.7419    0.2266   -0.2536 C.ar    1  UNL1        0.1505
     21 F           5.1304   -0.8550   -0.9877 F       1  UNL1       -0.2032
     22 C           2.4429   -1.6530   -0.9184 C.ar    1  UNL1        0.0292
     23 C           1.3378   -2.4809   -1.1892 C.ar    1  UNL1        0.2555
     24 O           1.4926   -3.5286   -1.8607 O.2     1  UNL1       -0.2675
     25 H          -1.1091   -3.8048   -0.2642 H       1  UNL1        0.0458
     26 H          -1.9850   -2.3531   -0.9453 H       1  UNL1        0.0458
     27 H          -0.9730   -3.4117   -1.9857 H       1  UNL1        0.0458
     28 H          -1.9615   -2.2418    1.5919 H       1  UNL1        0.0487
     29 H          -0.9151   -1.1137    2.5227 H       1  UNL1        0.0487
     30 H          -3.0873   -0.6061    3.2574 H       1  UNL1        0.0575
     31 H          -3.8083   -0.9481    1.5943 H       1  UNL1        0.0575
     32 H          -1.4798    1.8286    0.8504 H       1  UNL1        0.0614
     33 H          -4.3858    1.7805   -0.0637 H       1  UNL1        0.0291
     34 H          -3.3633    3.2475    0.1436 H       1  UNL1        0.0291
     35 H          -2.3751    2.9141   -1.9577 H       1  UNL1        0.0267
     36 H          -3.5935    1.5481   -2.1621 H       1  UNL1        0.0267
     37 H          -1.6037    0.3065   -2.3132 H       1  UNL1        0.0284
     38 H          -0.7652    1.4456   -1.1253 H       1  UNL1        0.0284
     39 H          -3.1701   -0.3363   -0.4705 H       1  UNL1        0.0526
     40 H           2.1304    1.7383    1.2030 H       1  UNL1        0.0640
     41 H           3.9968    3.3092    1.7652 H       1  UNL1        0.0830
     42 H           6.7761    0.9069   -0.2645 H       1  UNL1        0.0859
     43 H           3.4031   -1.9644   -1.3121 H       1  UNL1        0.0693
@<TRIPOS>BOND
     1     1     2    1
     2     2     3   ar
     3     3     4    1
     4     4     5    1
     5     5     6    1
     6     6     7    1
     7     7     8    1
     8     8     9    1
     9     9    10    1
    10    10    11    1
    11    11    12    1
    12     3    13   ar
    13    13    14   ar
    14    14    15    1
    15    15    16   ar
    16    16    17   ar
    17    17    18   ar
    18    18    19   ar
    19    19    20   ar
    20    20    21    1
    21    14    22   ar
    22    22    23   ar
    23    23    24    2
    24    23     2   ar
    25    12     4    1
    26    20    15   ar
    27    12     8    1
    28     1    25    1
    29     1    26    1
    30     1    27    1
    31     5    28    1
    32     5    29    1
    33     6    30    1
    34     6    31    1
    35     8    32    1
    36     9    33    1
    37     9    34    1
    38    10    35    1
    39    10    36    1
    40    11    37    1
    41    11    38    1
    42    12    39    1
    43    16    40    1
    44    17    41    1
    45    19    42    1
    46    22    43    1
