
     RDKit          3D

 43 46  0  0  0  0  0  0  0  0999 V2000
   -1.0560   -2.9450   -0.9627 C   0  0  0  0  0  0  0  0  0  0  0  0
    0.1372   -2.1273   -0.7193 N   0  0  0  0  0  0  0  0  0  0  0  0
    0.0395   -0.9926   -0.0068 C   0  0  0  0  0  0  0  0  0  0  0  0
   -1.2673   -0.6613    0.4689 N   0  0  0  0  0  0  0  0  0  0  0  0
   -1.7025   -1.1729    1.7533 C   0  0  0  0  0  0  0  0  0  0  0  0
   -2.9745   -0.4662    2.1439 C   0  0  0  0  0  0  0  0  0  0  0  0
   -3.0095    0.8750    1.8995 O   0  0  0  0  0  0  0  0  0  0  0  0
   -2.4765    1.3306    0.7422 C   0  0  2  0  0  0  0  0  0  0  0  0
   -3.3338    2.1842   -0.1222 C   0  0  0  0  0  0  0  0  0  0  0  0
   -2.7753    1.9874   -1.5397 C   0  0  0  0  0  0  0  0  0  0  0  0
   -1.6947    0.9049   -1.3944 C   0  0  0  0  0  0  0  0  0  0  0  0
   -2.2079    0.1541   -0.2177 C   0  0  1  0  0  0  0  0  0  0  0  0
    1.0910   -0.2031    0.2519 N   0  0  0  0  0  0  0  0  0  0  0  0
    2.3489   -0.5020   -0.1967 C   0  0  0  0  0  0  0  0  0  0  0  0
    3.4433    0.4074    0.1254 C   0  0  0  0  0  0  0  0  0  0  0  0
    3.1580    1.5593    0.8813 C   0  0  0  0  0  0  0  0  0  0  0  0
    4.1860    2.4061    1.1799 C   0  0  0  0  0  0  0  0  0  0  0  0
    5.4402    2.1932    0.7907 N   0  0  0  0  0  0  0  0  0  0  0  0
    5.7777    1.1138    0.0679 C   0  0  0  0  0  0  0  0  0  0  0  0
    4.7419    0.2266   -0.2536 C   0  0  0  0  0  0  0  0  0  0  0  0
    5.1304   -0.8550   -0.9877 F   0  0  0  0  0  0  0  0  0  0  0  0
    2.4429   -1.6530   -0.9184 C   0  0  0  0  0  0  0  0  0  0  0  0
    1.3378   -2.4809   -1.1892 C   0  0  0  0  0  0  0  0  0  0  0  0
    1.4926   -3.5286   -1.8607 O   0  0  0  0  0  0  0  0  0  0  0  0
   -1.1091   -3.8048   -0.2642 H   0  0  0  0  0  0  0  0  0  0  0  0
   -1.9850   -2.3531   -0.9453 H   0  0  0  0  0  0  0  0  0  0  0  0
   -0.9730   -3.4117   -1.9857 H   0  0  0  0  0  0  0  0  0  0  0  0
   -1.9615   -2.2418    1.5919 H   0  0  0  0  0  0  0  0  0  0  0  0
   -0.9151   -1.1137    2.5227 H   0  0  0  0  0  0  0  0  0  0  0  0
   -3.0873   -0.6061    3.2574 H   0  0  0  0  0  0  0  0  0  0  0  0
   -3.8083   -0.9481    1.5943 H   0  0  0  0  0  0  0  0  0  0  0  0
   -1.4798    1.8286    0.8504 H   0  0  0  0  0  0  0  0  0  0  0  0
   -4.3858    1.7805   -0.0637 H   0  0  0  0  0  0  0  0  0  0  0  0
   -3.3633    3.2475    0.1436 H   0  0  0  0  0  0  0  0  0  0  0  0
   -2.3751    2.9141   -1.9577 H   0  0  0  0  0  0  0  0  0  0  0  0
   -3.5935    1.5481   -2.1621 H   0  0  0  0  0  0  0  0  0  0  0  0
   -1.6037    0.3065   -2.3132 H   0  0  0  0  0  0  0  0  0  0  0  0
   -0.7652    1.4456   -1.1253 H   0  0  0  0  0  0  0  0  0  0  0  0
   -3.1701   -0.3363   -0.4705 H   0  0  0  0  0  0  0  0  0  0  0  0
    2.1304    1.7383    1.2030 H   0  0  0  0  0  0  0  0  0  0  0  0
    3.9968    3.3092    1.7652 H   0  0  0  0  0  0  0  0  0  0  0  0
    6.7761    0.9069   -0.2645 H   0  0  0  0  0  0  0  0  0  0  0  0
    3.4031   -1.9644   -1.3121 H   0  0  0  0  0  0  0  0  0  0  0  0
  1  2  1  0
  2  3  1  0
  3  4  1  0
  4  5  1  0
  5  6  1  0
  6  7  1  0
  7  8  1  0
  8  9  1  0
  9 10  1  0
 10 11  1  0
 11 12  1  0
  3 13  2  0
 13 14  1  0
 14 15  1  0
 15 16  2  0
 16 17  1  0
 17 18  2  0
 18 19  1  0
 19 20  2  0
 20 21  1  0
 14 22  2  0
 22 23  1  0
 23 24  2  0
 23  2  1  0
 12  4  1  0
 20 15  1  0
 12  8  1  0
  1 25  1  0
  1 26  1  0
  1 27  1  0
  5 28  1  0
  5 29  1  0
  6 30  1  0
  6 31  1  0
  8 32  1  1
  9 33  1  0
  9 34  1  0
 10 35  1  0
 10 36  1  0
 11 37  1  0
 11 38  1  0
 12 39  1  6
 16 40  1  0
 17 41  1  0
 19 42  1  0
 22 43  1  0
M  END
$$$$
