
     RDKit          3D

 41 44  0  0  0  0  0  0  0  0999 V2000
   -0.2785   -0.5029   -2.6228 N   0  0  0  0  0  0  0  0  0  0  0  0
   -0.8841   -1.0087   -1.7526 C   0  0  0  0  0  0  0  0  0  0  0  0
   -1.6397   -1.6145   -0.6603 C   0  0  0  0  0  0  0  0  0  0  0  0
   -1.8240   -0.5601    0.4141 C   0  0  2  0  0  0  0  0  0  0  0  0
   -2.5728    0.5833   -0.1860 C   0  0  0  0  0  0  0  0  0  0  0  0
   -2.8259    1.7081    0.7795 C   0  0  0  0  0  0  0  0  0  0  0  0
   -4.2427    2.1522    0.5832 C   0  0  0  0  0  0  0  0  0  0  0  0
   -4.8200    1.3569   -0.5618 C   0  0  0  0  0  0  0  0  0  0  0  0
   -3.9647    0.1067   -0.5432 C   0  0  0  0  0  0  0  0  0  0  0  0
   -0.5205   -0.1655    0.9140 N   0  0  0  0  0  0  0  0  0  0  0  0
    0.6867   -0.7274    0.6248 C   0  0  0  0  0  0  0  0  0  0  0  0
    1.6734   -0.0536    1.3071 C   0  0  0  0  0  0  0  0  0  0  0  0
    3.0946   -0.3362    1.2738 C   0  0  0  0  0  0  0  0  0  0  0  0
    3.8201   -0.3641    2.4248 N   0  0  0  0  0  0  0  0  0  0  0  0
    5.1226   -0.6194    2.4299 C   0  0  0  0  0  0  0  0  0  0  0  0
    5.8003   -0.8650    1.2992 N   0  0  0  0  0  0  0  0  0  0  0  0
    5.1437   -0.8522    0.1326 C   0  0  0  0  0  0  0  0  0  0  0  0
    5.5296   -1.0568   -1.1606 N   0  0  0  0  0  0  0  0  0  0  0  0
    4.4637   -0.9270   -1.9589 C   0  0  0  0  0  0  0  0  0  0  0  0
    3.3583   -0.6334   -1.1910 C   0  0  0  0  0  0  0  0  0  0  0  0
    3.7899   -0.5886    0.1104 C   0  0  0  0  0  0  0  0  0  0  0  0
    1.0273    0.9306    2.0161 C   0  0  0  0  0  0  0  0  0  0  0  0
   -0.2986    0.8336    1.7546 N   0  0  0  0  0  0  0  0  0  0  0  0
   -1.0352   -2.4298   -0.1805 H   0  0  0  0  0  0  0  0  0  0  0  0
   -2.6202   -1.9937   -1.0105 H   0  0  0  0  0  0  0  0  0  0  0  0
   -2.4336   -0.9648    1.2468 H   0  0  0  0  0  0  0  0  0  0  0  0
   -2.0816    0.9637   -1.1225 H   0  0  0  0  0  0  0  0  0  0  0  0
   -2.6147    1.3803    1.8210 H   0  0  0  0  0  0  0  0  0  0  0  0
   -2.1560    2.5492    0.5300 H   0  0  0  0  0  0  0  0  0  0  0  0
   -4.3316    3.2294    0.3155 H   0  0  0  0  0  0  0  0  0  0  0  0
   -4.8635    1.9038    1.4917 H   0  0  0  0  0  0  0  0  0  0  0  0
   -5.8806    1.0775   -0.3729 H   0  0  0  0  0  0  0  0  0  0  0  0
   -4.6776    1.8636   -1.5359 H   0  0  0  0  0  0  0  0  0  0  0  0
   -3.9953   -0.4414   -1.4948 H   0  0  0  0  0  0  0  0  0  0  0  0
   -4.3101   -0.5998    0.2521 H   0  0  0  0  0  0  0  0  0  0  0  0
    0.8016   -1.5571   -0.0321 H   0  0  0  0  0  0  0  0  0  0  0  0
    5.7017   -0.6405    3.3597 H   0  0  0  0  0  0  0  0  0  0  0  0
    6.5140   -1.2766   -1.4274 H   0  0  0  0  0  0  0  0  0  0  0  0
    4.4693   -1.0344   -3.0257 H   0  0  0  0  0  0  0  0  0  0  0  0
    2.3451   -0.4666   -1.5124 H   0  0  0  0  0  0  0  0  0  0  0  0
    1.5293    1.6413    2.6614 H   0  0  0  0  0  0  0  0  0  0  0  0
  1  2  3  0
  2  3  1  0
  3  4  1  0
  4  5  1  0
  5  6  1  0
  6  7  1  0
  7  8  1  0
  8  9  1  0
  4 10  1  0
 10 11  1  0
 11 12  2  0
 12 13  1  0
 13 14  2  0
 14 15  1  0
 15 16  2  0
 16 17  1  0
 17 18  1  0
 18 19  1  0
 19 20  2  0
 20 21  1  0
 12 22  1  0
 22 23  2  0
  9  5  1  0
 23 10  1  0
 21 13  1  0
 21 17  2  0
  3 24  1  0
  3 25  1  0
  4 26  1  1
  5 27  1  0
  6 28  1  0
  6 29  1  0
  7 30  1  0
  7 31  1  0
  8 32  1  0
  8 33  1  0
  9 34  1  0
  9 35  1  0
 11 36  1  0
 15 37  1  0
 18 38  1  0
 19 39  1  0
 20 40  1  0
 22 41  1  0
M  END
$$$$
