@<TRIPOS>MOLECULE
*****
 41 44 0 0 0
SMALL
GASTEIGER

@<TRIPOS>ATOM
      1 N          -0.2785   -0.5029   -2.6228 N.1     1  UNL1       -0.1965
      2 C          -0.8841   -1.0087   -1.7526 C.1     1  UNL1        0.0646
      3 C          -1.6397   -1.6145   -0.6603 C.3     1  UNL1        0.0574
      4 C          -1.8240   -0.5601    0.4141 C.3     1  UNL1        0.0682
      5 C          -2.5728    0.5833   -0.1860 C.3     1  UNL1       -0.0176
      6 C          -2.8259    1.7081    0.7795 C.3     1  UNL1       -0.0482
      7 C          -4.2427    2.1522    0.5832 C.3     1  UNL1       -0.0527
      8 C          -4.8200    1.3569   -0.5618 C.3     1  UNL1       -0.0527
      9 C          -3.9647    0.1067   -0.5432 C.3     1  UNL1       -0.0482
     10 N          -0.5205   -0.1655    0.9140 N.ar    1  UNL1       -0.2665
     11 C           0.6867   -0.7274    0.6248 C.ar    1  UNL1        0.0350
     12 C           1.6734   -0.0536    1.3071 C.ar    1  UNL1        0.0385
     13 C           3.0946   -0.3362    1.2738 C.ar    1  UNL1        0.0863
     14 N           3.8201   -0.3641    2.4248 N.ar    1  UNL1       -0.2346
     15 C           5.1226   -0.6194    2.4299 C.ar    1  UNL1        0.1189
     16 N           5.8003   -0.8650    1.2992 N.ar    1  UNL1       -0.2179
     17 C           5.1437   -0.8522    0.1326 C.ar    1  UNL1        0.1419
     18 N           5.5296   -1.0568   -1.1606 N.ar    1  UNL1       -0.3457
     19 C           4.4637   -0.9270   -1.9589 C.ar    1  UNL1        0.0042
     20 C           3.3583   -0.6334   -1.1910 C.ar    1  UNL1       -0.0330
     21 C           3.7899   -0.5886    0.1104 C.ar    1  UNL1        0.0447
     22 C           1.0273    0.9306    2.0161 C.ar    1  UNL1        0.0586
     23 N          -0.2986    0.8336    1.7546 N.ar    1  UNL1       -0.1787
     24 H          -1.0352   -2.4298   -0.1805 H       1  UNL1        0.0439
     25 H          -2.6202   -1.9937   -1.0105 H       1  UNL1        0.0439
     26 H          -2.4336   -0.9648    1.2468 H       1  UNL1        0.0557
     27 H          -2.0816    0.9637   -1.1225 H       1  UNL1        0.0322
     28 H          -2.6147    1.3803    1.8210 H       1  UNL1        0.0269
     29 H          -2.1560    2.5492    0.5300 H       1  UNL1        0.0269
     30 H          -4.3316    3.2294    0.3155 H       1  UNL1        0.0265
     31 H          -4.8635    1.9038    1.4917 H       1  UNL1        0.0265
     32 H          -5.8806    1.0775   -0.3729 H       1  UNL1        0.0265
     33 H          -4.6776    1.8636   -1.5359 H       1  UNL1        0.0265
     34 H          -3.9953   -0.4414   -1.4948 H       1  UNL1        0.0269
     35 H          -4.3101   -0.5998    0.2521 H       1  UNL1        0.0269
     36 H           0.8016   -1.5571   -0.0321 H       1  UNL1        0.0833
     37 H           5.7017   -0.6405    3.3597 H       1  UNL1        0.1048
     38 H           6.5140   -1.2766   -1.4274 H       1  UNL1        0.1668
     39 H           4.4693   -1.0344   -3.0257 H       1  UNL1        0.0807
     40 H           2.3451   -0.4666   -1.5124 H       1  UNL1        0.0640
     41 H           1.5293    1.6413    2.6614 H       1  UNL1        0.0854
@<TRIPOS>BOND
     1     1     2    3
     2     2     3    1
     3     3     4    1
     4     4     5    1
     5     5     6    1
     6     6     7    1
     7     7     8    1
     8     8     9    1
     9     4    10    1
    10    10    11   ar
    11    11    12   ar
    12    12    13    1
    13    13    14   ar
    14    14    15   ar
    15    15    16   ar
    16    16    17   ar
    17    17    18   ar
    18    18    19   ar
    19    19    20   ar
    20    20    21   ar
    21    12    22   ar
    22    22    23   ar
    23     9     5    1
    24    23    10   ar
    25    21    13   ar
    26    21    17   ar
    27     3    24    1
    28     3    25    1
    29     4    26    1
    30     5    27    1
    31     6    28    1
    32     6    29    1
    33     7    30    1
    34     7    31    1
    35     8    32    1
    36     8    33    1
    37     9    34    1
    38     9    35    1
    39    11    36    1
    40    15    37    1
    41    18    38    1
    42    19    39    1
    43    20    40    1
    44    22    41    1
