@<TRIPOS>MOLECULE
*****
 76 81 0 0 0
SMALL
GASTEIGER

@<TRIPOS>ATOM
      1 C          -3.5982    5.7500   -3.2657 C.3     1  UNL1       -0.0151
      2 N          -3.4995    5.1844   -4.5924 N.3     1  UNL1       -0.3089
      3 C          -2.2052    4.6490   -4.9025 C.3     1  UNL1        0.0820
      4 C          -1.1481    5.7373   -4.7873 C.3     1  UNL1       -0.0411
      5 C          -1.8445    3.5247   -3.9601 C.2     1  UNL1        0.2350
      6 O          -0.6499    3.0925   -3.9343 O.2     1  UNL1       -0.2737
      7 N          -2.7457    2.9175   -3.1024 N.am    1  UNL1       -0.2691
      8 C          -2.5774    1.8924   -2.1220 C.ar    1  UNL1        0.1263
      9 C          -3.6822    1.2492   -1.6407 C.ar    1  UNL1       -0.0208
     10 C          -3.5765    0.2878   -0.5746 C.ar    1  UNL1       -0.0466
     11 C          -2.4041    0.1000   -0.1362 C.ar    1  UNL1        0.0349
     12 C          -2.1891   -0.7765    1.0908 C.ar    1  UNL1        0.0837
     13 C          -1.9326   -2.0477    1.1067 C.ar    1  UNL1        0.0992
     14 C          -1.6738   -3.1245    0.2010 C.ar    1  UNL1        0.0208
     15 C          -0.3850   -3.7654    0.4627 C.ar    1  UNL1       -0.0460
     16 C           0.0423   -4.7620   -0.3099 C.ar    1  UNL1        0.0006
     17 C          -0.6649   -5.3071   -1.4173 C.ar    1  UNL1        0.2144
     18 O          -0.1342   -6.3470   -2.1001 O.3     1  UNL1       -0.4796
     19 C          -0.7458   -6.9641   -3.2147 C.3     1  UNL1        0.0804
     20 N          -1.8516   -4.6817   -1.6241 N.ar    1  UNL1       -0.2207
     21 C          -2.2499   -3.6870   -0.8482 C.ar    1  UNL1        0.0406
     22 N          -1.7536   -2.2738    2.5651 N.ar    1  UNL1       -0.2271
     23 C          -1.9535   -1.0990    3.1105 C.ar    1  UNL1        0.1390
     24 C          -1.8377   -0.7501    4.5556 C.ar    1  UNL1       -0.0158
     25 C          -2.0477    0.5270    4.7915 C.ar    1  UNL1       -0.0456
     26 C          -1.8961    0.9316    6.3105 C.3     1  UNL1       -0.0395
     27 C          -2.3353    1.5156    3.9577 C.ar    1  UNL1       -0.0421
     28 C          -2.4434    1.1811    2.5488 C.ar    1  UNL1        0.0120
     29 N          -2.2321   -0.1098    2.2809 N.ar    1  UNL1       -0.2986
     30 C          -1.1843    0.6870   -0.5294 C.ar    1  UNL1        0.1250
     31 C           0.0983    0.3316   -0.0629 C.1     1  UNL1       -0.0404
     32 C           1.2224    0.0169    0.3580 C.1     1  UNL1       -0.0595
     33 C           2.5287   -0.3279    0.8311 C.ar    1  UNL1        0.0260
     34 C           2.9305   -1.6560    1.1387 C.ar    1  UNL1       -0.0443
     35 C           4.1369   -2.0584    1.5667 C.ar    1  UNL1       -0.0364
     36 C           5.0946   -0.9734    1.7170 C.ar    1  UNL1        0.0518
     37 C           4.7877    0.1989    1.4676 C.ar    1  UNL1       -0.0001
     38 C           5.7728    1.2222    1.6526 C.ar    1  UNL1       -0.0475
     39 C           6.9953    0.8892    2.0886 C.ar    1  UNL1        0.0036
     40 C           7.2966   -0.5230    2.3678 C.ar    1  UNL1        0.2515
     41 O           8.4229   -0.6839    2.7502 O.2     1  UNL1       -0.2677
     42 N           6.3363   -1.4262    2.1751 N.ar    1  UNL1       -0.3112
     43 C           6.5798   -2.8284    2.4470 C.3     1  UNL1        0.0153
     44 C           3.5244    0.6770    1.0096 C.ar    1  UNL1       -0.0372
     45 N          -1.3384    1.6097   -1.5654 N.ar    1  UNL1       -0.2229
     46 H          -2.8389    5.3250   -2.5662 H       1  UNL1        0.0388
     47 H          -4.6007    5.5390   -2.8203 H       1  UNL1        0.0388
     48 H          -3.4031    6.8530   -3.2992 H       1  UNL1        0.0388
     49 H          -4.2439    4.4898   -4.7641 H       1  UNL1        0.1223
     50 H          -2.2820    4.2570   -5.9550 H       1  UNL1        0.0554
     51 H          -0.6152    5.7731   -5.7277 H       1  UNL1        0.0249
     52 H          -1.6563    6.7135   -4.6030 H       1  UNL1        0.0249
     53 H          -0.4845    5.5111   -3.9180 H       1  UNL1        0.0249
     54 H          -3.7837    3.2748   -3.1663 H       1  UNL1        0.1563
     55 H          -4.6611    1.4197   -2.0320 H       1  UNL1        0.0652
     56 H          -4.5122   -0.1800   -0.2726 H       1  UNL1        0.0626
     57 H           0.1273   -3.3647    1.3258 H       1  UNL1        0.0626
     58 H           1.0155   -5.2613   -0.1359 H       1  UNL1        0.0671
     59 H          -0.5081   -8.0410   -3.3037 H       1  UNL1        0.0660
     60 H          -0.3483   -6.4454   -4.1470 H       1  UNL1        0.0660
     61 H          -1.8239   -6.7471   -3.1662 H       1  UNL1        0.0660
     62 H          -3.2712   -3.2805   -1.1121 H       1  UNL1        0.0837
     63 H          -1.6304   -1.5334    5.1944 H       1  UNL1        0.0657
     64 H          -2.1054    1.9798    6.4291 H       1  UNL1        0.0278
     65 H          -0.8726    0.5719    6.5327 H       1  UNL1        0.0278
     66 H          -2.6037    0.3068    6.8661 H       1  UNL1        0.0278
     67 H          -2.5113    2.5138    4.2234 H       1  UNL1        0.0635
     68 H          -2.6734    1.9317    1.8822 H       1  UNL1        0.0813
     69 H           2.1569   -2.4277    1.0011 H       1  UNL1        0.0630
     70 H           4.4465   -3.0457    1.7813 H       1  UNL1        0.0639
     71 H           5.4784    2.2561    1.4226 H       1  UNL1        0.0626
     72 H           7.7681    1.5929    2.2350 H       1  UNL1        0.0672
     73 H           7.5752   -2.9246    2.9722 H       1  UNL1        0.0457
     74 H           5.8654   -3.2756    3.1550 H       1  UNL1        0.0457
     75 H           6.6902   -3.4444    1.5353 H       1  UNL1        0.0457
     76 H           3.3169    1.6627    0.8258 H       1  UNL1        0.0636
@<TRIPOS>BOND
     1     1     2    1
     2     2     3    1
     3     3     4    1
     4     3     5    1
     5     5     6    2
     6     5     7   am
     7     7     8    1
     8     8     9   ar
     9     9    10   ar
    10    10    11   ar
    11    11    12    1
    12    12    13   ar
    13    13    14    1
    14    14    15   ar
    15    15    16   ar
    16    16    17   ar
    17    17    18    1
    18    18    19    1
    19    17    20   ar
    20    20    21   ar
    21    13    22   ar
    22    22    23   ar
    23    23    24   ar
    24    24    25   ar
    25    25    26    1
    26    25    27   ar
    27    27    28   ar
    28    28    29   ar
    29    11    30   ar
    30    30    31    1
    31    31    32    3
    32    32    33    1
    33    33    34   ar
    34    34    35   ar
    35    35    36   ar
    36    36    37   ar
    37    37    38   ar
    38    38    39   ar
    39    39    40   ar
    40    40    41    2
    41    40    42   ar
    42    42    43    1
    43    37    44   ar
    44    30    45   ar
    45    45     8   ar
    46    29    12   ar
    47    44    33   ar
    48    21    14   ar
    49    29    23   ar
    50    42    36   ar
    51     1    46    1
    52     1    47    1
    53     1    48    1
    54     2    49    1
    55     3    50    1
    56     4    51    1
    57     4    52    1
    58     4    53    1
    59     7    54    1
    60     9    55    1
    61    10    56    1
    62    15    57    1
    63    16    58    1
    64    19    59    1
    65    19    60    1
    66    19    61    1
    67    21    62    1
    68    24    63    1
    69    26    64    1
    70    26    65    1
    71    26    66    1
    72    27    67    1
    73    28    68    1
    74    34    69    1
    75    35    70    1
    76    38    71    1
    77    39    72    1
    78    43    73    1
    79    43    74    1
    80    43    75    1
    81    44    76    1
