
     RDKit          3D

 76 81  0  0  0  0  0  0  0  0999 V2000
   -3.5982    5.7500   -3.2657 C   0  0  0  0  0  0  0  0  0  0  0  0
   -3.4995    5.1844   -4.5924 N   0  0  0  0  0  0  0  0  0  0  0  0
   -2.2052    4.6490   -4.9025 C   0  0  1  0  0  0  0  0  0  0  0  0
   -1.1481    5.7373   -4.7873 C   0  0  0  0  0  0  0  0  0  0  0  0
   -1.8445    3.5247   -3.9601 C   0  0  0  0  0  0  0  0  0  0  0  0
   -0.6499    3.0925   -3.9343 O   0  0  0  0  0  0  0  0  0  0  0  0
   -2.7457    2.9175   -3.1024 N   0  0  0  0  0  0  0  0  0  0  0  0
   -2.5774    1.8924   -2.1220 C   0  0  0  0  0  0  0  0  0  0  0  0
   -3.6822    1.2492   -1.6407 C   0  0  0  0  0  0  0  0  0  0  0  0
   -3.5765    0.2878   -0.5746 C   0  0  0  0  0  0  0  0  0  0  0  0
   -2.4041    0.1000   -0.1362 C   0  0  0  0  0  0  0  0  0  0  0  0
   -2.1891   -0.7765    1.0908 C   0  0  0  0  0  0  0  0  0  0  0  0
   -1.9326   -2.0477    1.1067 C   0  0  0  0  0  0  0  0  0  0  0  0
   -1.6738   -3.1245    0.2010 C   0  0  0  0  0  0  0  0  0  0  0  0
   -0.3850   -3.7654    0.4627 C   0  0  0  0  0  0  0  0  0  0  0  0
    0.0423   -4.7620   -0.3099 C   0  0  0  0  0  0  0  0  0  0  0  0
   -0.6649   -5.3071   -1.4173 C   0  0  0  0  0  0  0  0  0  0  0  0
   -0.1342   -6.3470   -2.1001 O   0  0  0  0  0  0  0  0  0  0  0  0
   -0.7458   -6.9641   -3.2147 C   0  0  0  0  0  0  0  0  0  0  0  0
   -1.8516   -4.6817   -1.6241 N   0  0  0  0  0  0  0  0  0  0  0  0
   -2.2499   -3.6870   -0.8482 C   0  0  0  0  0  0  0  0  0  0  0  0
   -1.7536   -2.2738    2.5651 N   0  0  0  0  0  0  0  0  0  0  0  0
   -1.9535   -1.0990    3.1105 C   0  0  0  0  0  0  0  0  0  0  0  0
   -1.8377   -0.7501    4.5556 C   0  0  0  0  0  0  0  0  0  0  0  0
   -2.0477    0.5270    4.7915 C   0  0  0  0  0  0  0  0  0  0  0  0
   -1.8961    0.9316    6.3105 C   0  0  0  0  0  0  0  0  0  0  0  0
   -2.3353    1.5156    3.9577 C   0  0  0  0  0  0  0  0  0  0  0  0
   -2.4434    1.1811    2.5488 C   0  0  0  0  0  0  0  0  0  0  0  0
   -2.2321   -0.1098    2.2809 N   0  0  0  0  0  0  0  0  0  0  0  0
   -1.1843    0.6870   -0.5294 C   0  0  0  0  0  0  0  0  0  0  0  0
    0.0983    0.3316   -0.0629 C   0  0  0  0  0  0  0  0  0  0  0  0
    1.2224    0.0169    0.3580 C   0  0  0  0  0  0  0  0  0  0  0  0
    2.5287   -0.3279    0.8311 C   0  0  0  0  0  0  0  0  0  0  0  0
    2.9305   -1.6560    1.1387 C   0  0  0  0  0  0  0  0  0  0  0  0
    4.1369   -2.0584    1.5667 C   0  0  0  0  0  0  0  0  0  0  0  0
    5.0946   -0.9734    1.7170 C   0  0  0  0  0  0  0  0  0  0  0  0
    4.7877    0.1989    1.4676 C   0  0  0  0  0  0  0  0  0  0  0  0
    5.7728    1.2222    1.6526 C   0  0  0  0  0  0  0  0  0  0  0  0
    6.9953    0.8892    2.0886 C   0  0  0  0  0  0  0  0  0  0  0  0
    7.2966   -0.5230    2.3678 C   0  0  0  0  0  0  0  0  0  0  0  0
    8.4229   -0.6839    2.7502 O   0  0  0  0  0  0  0  0  0  0  0  0
    6.3363   -1.4262    2.1751 N   0  0  0  0  0  0  0  0  0  0  0  0
    6.5798   -2.8284    2.4470 C   0  0  0  0  0  0  0  0  0  0  0  0
    3.5244    0.6770    1.0096 C   0  0  0  0  0  0  0  0  0  0  0  0
   -1.3384    1.6097   -1.5654 N   0  0  0  0  0  0  0  0  0  0  0  0
   -2.8389    5.3250   -2.5662 H   0  0  0  0  0  0  0  0  0  0  0  0
   -4.6007    5.5390   -2.8203 H   0  0  0  0  0  0  0  0  0  0  0  0
   -3.4031    6.8530   -3.2992 H   0  0  0  0  0  0  0  0  0  0  0  0
   -4.2439    4.4898   -4.7641 H   0  0  0  0  0  0  0  0  0  0  0  0
   -2.2820    4.2570   -5.9550 H   0  0  0  0  0  0  0  0  0  0  0  0
   -0.6152    5.7731   -5.7277 H   0  0  0  0  0  0  0  0  0  0  0  0
   -1.6563    6.7135   -4.6030 H   0  0  0  0  0  0  0  0  0  0  0  0
   -0.4845    5.5111   -3.9180 H   0  0  0  0  0  0  0  0  0  0  0  0
   -3.7837    3.2748   -3.1663 H   0  0  0  0  0  0  0  0  0  0  0  0
   -4.6611    1.4197   -2.0320 H   0  0  0  0  0  0  0  0  0  0  0  0
   -4.5122   -0.1800   -0.2726 H   0  0  0  0  0  0  0  0  0  0  0  0
    0.1273   -3.3647    1.3258 H   0  0  0  0  0  0  0  0  0  0  0  0
    1.0155   -5.2613   -0.1359 H   0  0  0  0  0  0  0  0  0  0  0  0
   -0.5081   -8.0410   -3.3037 H   0  0  0  0  0  0  0  0  0  0  0  0
   -0.3483   -6.4454   -4.1470 H   0  0  0  0  0  0  0  0  0  0  0  0
   -1.8239   -6.7471   -3.1662 H   0  0  0  0  0  0  0  0  0  0  0  0
   -3.2712   -3.2805   -1.1121 H   0  0  0  0  0  0  0  0  0  0  0  0
   -1.6304   -1.5334    5.1944 H   0  0  0  0  0  0  0  0  0  0  0  0
   -2.1054    1.9798    6.4291 H   0  0  0  0  0  0  0  0  0  0  0  0
   -0.8726    0.5719    6.5327 H   0  0  0  0  0  0  0  0  0  0  0  0
   -2.6037    0.3068    6.8661 H   0  0  0  0  0  0  0  0  0  0  0  0
   -2.5113    2.5138    4.2234 H   0  0  0  0  0  0  0  0  0  0  0  0
   -2.6734    1.9317    1.8822 H   0  0  0  0  0  0  0  0  0  0  0  0
    2.1569   -2.4277    1.0011 H   0  0  0  0  0  0  0  0  0  0  0  0
    4.4465   -3.0457    1.7813 H   0  0  0  0  0  0  0  0  0  0  0  0
    5.4784    2.2561    1.4226 H   0  0  0  0  0  0  0  0  0  0  0  0
    7.7681    1.5929    2.2350 H   0  0  0  0  0  0  0  0  0  0  0  0
    7.5752   -2.9246    2.9722 H   0  0  0  0  0  0  0  0  0  0  0  0
    5.8654   -3.2756    3.1550 H   0  0  0  0  0  0  0  0  0  0  0  0
    6.6902   -3.4444    1.5353 H   0  0  0  0  0  0  0  0  0  0  0  0
    3.3169    1.6627    0.8258 H   0  0  0  0  0  0  0  0  0  0  0  0
  1  2  1  0
  2  3  1  0
  3  4  1  0
  3  5  1  0
  5  6  2  0
  5  7  1  0
  7  8  1  0
  8  9  2  0
  9 10  1  0
 10 11  2  0
 11 12  1  0
 12 13  2  0
 13 14  1  0
 14 15  2  0
 15 16  1  0
 16 17  2  0
 17 18  1  0
 18 19  1  0
 17 20  1  0
 20 21  2  0
 13 22  1  0
 22 23  2  0
 23 24  1  0
 24 25  2  0
 25 26  1  0
 25 27  1  0
 27 28  2  0
 28 29  1  0
 11 30  1  0
 30 31  1  0
 31 32  3  0
 32 33  1  0
 33 34  2  0
 34 35  1  0
 35 36  2  0
 36 37  1  0
 37 38  1  0
 38 39  2  0
 39 40  1  0
 40 41  2  0
 40 42  1  0
 42 43  1  0
 37 44  2  0
 30 45  2  0
 45  8  1  0
 29 12  1  0
 44 33  1  0
 21 14  1  0
 29 23  1  0
 42 36  1  0
  1 46  1  0
  1 47  1  0
  1 48  1  0
  2 49  1  0
  3 50  1  6
  4 51  1  0
  4 52  1  0
  4 53  1  0
  7 54  1  0
  9 55  1  0
 10 56  1  0
 15 57  1  0
 16 58  1  0
 19 59  1  0
 19 60  1  0
 19 61  1  0
 21 62  1  0
 24 63  1  0
 26 64  1  0
 26 65  1  0
 26 66  1  0
 27 67  1  0
 28 68  1  0
 34 69  1  0
 35 70  1  0
 38 71  1  0
 39 72  1  0
 43 73  1  0
 43 74  1  0
 43 75  1  0
 44 76  1  0
M  END
$$$$
