@<TRIPOS>MOLECULE
*****
 43 46 0 0 0
SMALL
GASTEIGER

@<TRIPOS>ATOM
      1 C           3.3056   -1.8507   -1.1765 C.3     1  UNL1       -0.0379
      2 C           4.0439   -0.9702   -0.2399 C.ar    1  UNL1       -0.0265
      3 C           5.4083   -1.2374   -0.0191 C.ar    1  UNL1       -0.0556
      4 C           6.1436   -0.4394    0.8162 C.ar    1  UNL1       -0.0433
      5 C           5.5273    0.6198    1.4301 C.ar    1  UNL1        0.0280
      6 N           4.2421    0.8365    1.1961 N.ar    1  UNL1       -0.2569
      7 C           3.4485    0.0987    0.3891 C.ar    1  UNL1        0.0781
      8 C           1.9715    0.4198    0.2193 C.3     1  UNL1        0.1703
      9 C           1.1420   -0.4618    1.0785 C.3     1  UNL1        0.0476
     10 N          -0.2768   -0.3115    1.0062 N.am    1  UNL1       -0.3059
     11 C          -1.0575   -0.5810   -0.1432 C.2     1  UNL1        0.2795
     12 O          -0.4846   -0.9961   -1.1795 O.2     1  UNL1       -0.2668
     13 C          -2.5043   -0.3944   -0.1687 C.ar    1  UNL1        0.1905
     14 C          -3.3182    0.0450    0.8426 C.ar    1  UNL1       -0.0034
     15 C          -4.6038    0.0554    0.3430 C.ar    1  UNL1        0.0223
     16 C          -5.8309    0.3871    0.8535 C.ar    1  UNL1       -0.0326
     17 C          -6.9996    0.3010    0.1061 C.ar    1  UNL1        0.0418
     18 CL         -8.5656    0.7251    0.7599 Cl      1  UNL1       -0.0835
     19 C          -6.9180   -0.1354   -1.1989 C.ar    1  UNL1       -0.0399
     20 C          -5.6896   -0.4725   -1.7253 C.ar    1  UNL1       -0.0174
     21 C          -4.5227   -0.3810   -0.9621 C.ar    1  UNL1        0.1360
     22 O          -3.2739   -0.6260   -1.1975 O.2     1  UNL1       -0.4502
     23 N           1.6259    0.6478   -1.1208 N.am    1  UNL1       -0.2789
     24 C           0.8473    1.8418   -1.2083 C.2     1  UNL1        0.3070
     25 O           0.1351    2.1946   -2.1769 O.2     1  UNL1       -0.2524
     26 N           1.0146    2.5676   -0.0091 N.am    1  UNL1       -0.2380
     27 C           1.8872    1.8331    0.8133 C.2     1  UNL1        0.2516
     28 O           2.4905    2.2076    1.8250 O.2     1  UNL1       -0.2725
     29 H           3.5403   -1.5866   -2.2460 H       1  UNL1        0.0278
     30 H           3.7651   -2.8849   -1.0800 H       1  UNL1        0.0278
     31 H           2.2540   -1.9888   -0.9925 H       1  UNL1        0.0278
     32 H           5.8643   -2.0847   -0.5216 H       1  UNL1        0.0621
     33 H           7.2004   -0.6105    1.0146 H       1  UNL1        0.0633
     34 H           6.1084    1.2602    2.0971 H       1  UNL1        0.0829
     35 H           1.4619   -1.5344    1.0954 H       1  UNL1        0.0492
     36 H           1.4147   -0.1429    2.1547 H       1  UNL1        0.0492
     37 H          -0.8599    0.0250    1.8424 H       1  UNL1        0.1492
     38 H          -3.0286    0.3364    1.8564 H       1  UNL1        0.0663
     39 H          -5.8820    0.7330    1.8934 H       1  UNL1        0.0639
     40 H          -7.8291   -0.2091   -1.8016 H       1  UNL1        0.0633
     41 H          -5.5965   -0.8190   -2.7497 H       1  UNL1        0.0655
     42 H           1.8569    0.0958   -2.0103 H       1  UNL1        0.1517
     43 H           0.5421    3.4871    0.1722 H       1  UNL1        0.1591
@<TRIPOS>BOND
     1     1     2    1
     2     2     3   ar
     3     3     4   ar
     4     4     5   ar
     5     5     6   ar
     6     6     7   ar
     7     7     8    1
     8     8     9    1
     9     9    10    1
    10    10    11   am
    11    11    12    2
    12    11    13    1
    13    13    14   ar
    14    14    15   ar
    15    15    16   ar
    16    16    17   ar
    17    17    18    1
    18    17    19   ar
    19    19    20   ar
    20    20    21   ar
    21    21    22   ar
    22     8    23    1
    23    23    24   am
    24    24    25    2
    25    24    26   am
    26    26    27   am
    27    27    28    2
    28     7     2   ar
    29    27     8    1
    30    22    13   ar
    31    21    15   ar
    32     1    29    1
    33     1    30    1
    34     1    31    1
    35     3    32    1
    36     4    33    1
    37     5    34    1
    38     9    35    1
    39     9    36    1
    40    10    37    1
    41    14    38    1
    42    16    39    1
    43    19    40    1
    44    20    41    1
    45    23    42    1
    46    26    43    1
