@<TRIPOS>MOLECULE
*****
 60 62 0 0 0
SMALL
GASTEIGER

@<TRIPOS>ATOM
      1 O          -0.1765   -3.0618    0.9157 O.2     1  UNL1       -0.2737
      2 C          -1.1774   -2.8693    1.6801 C.2     1  UNL1        0.2362
      3 C          -1.6360   -1.4778    1.8324 C.3     1  UNL1        0.0372
      4 C          -0.8197   -0.5031    1.0368 C.3     1  UNL1        0.0464
      5 C          -1.2816    0.9123    1.1880 C.3     1  UNL1       -0.0413
      6 C          -2.6942    1.1451    0.7535 C.3     1  UNL1       -0.0521
      7 C          -2.8438    0.7866   -0.7075 C.3     1  UNL1       -0.0502
      8 C          -4.2529    1.0031   -1.1998 C.3     1  UNL1       -0.0410
      9 C          -4.7120    2.4259   -1.0682 C.3     1  UNL1       -0.0502
     10 C          -5.9392    2.5993   -1.9385 C.3     1  UNL1       -0.0528
     11 C          -6.5653    1.2847   -2.2709 C.3     1  UNL1       -0.0530
     12 C          -6.5960    0.3207   -1.1164 C.3     1  UNL1       -0.0528
     13 C          -5.2502    0.1261   -0.4840 C.3     1  UNL1       -0.0502
     14 C           0.5851   -0.5649    1.5580 C.ar    1  UNL1        0.2313
     15 N           1.7151   -0.8599    0.8660 N.ar    1  UNL1       -0.1872
     16 C           2.7671   -0.8132    1.6776 C.ar    1  UNL1        0.2585
     17 C           4.1783   -1.0495    1.4118 C.2     1  UNL1        0.3036
     18 O           5.0409   -0.9575    2.3197 O.2     1  UNL1       -0.2651
     19 N           4.6581   -1.3974    0.1099 N.am    1  UNL1       -0.1788
     20 S           6.3217   -1.6791   -0.2179 S.O2    1  UNL1        0.0747
     21 O           7.0306   -2.2529    0.9961 O.2     1  UNL1       -0.1499
     22 O           6.4031   -2.7363   -1.2878 O.2     1  UNL1       -0.1499
     23 C           7.1555   -0.2187   -0.6899 C.ar    1  UNL1        0.1086
     24 C           7.2182    0.1346   -2.0365 C.ar    1  UNL1       -0.0351
     25 C           7.8771    1.2940   -2.4376 C.ar    1  UNL1       -0.0599
     26 C           8.4806    2.1147   -1.5062 C.ar    1  UNL1       -0.0616
     27 C           8.4172    1.7665   -0.1931 C.ar    1  UNL1       -0.0599
     28 C           7.7625    0.6101    0.2295 C.ar    1  UNL1       -0.0351
     29 N           2.2815   -0.4852    2.8865 N.ar    1  UNL1       -0.0512
     30 O           0.9813   -0.3434    2.7873 O.2     1  UNL1       -0.3373
     31 N          -1.7848   -3.9718    2.3292 N.am    1  UNL1       -0.1975
     32 O          -1.2772   -5.2071    2.1144 O.3     1  UNL1       -0.2952
     33 H          -1.5351   -1.2007    2.9019 H       1  UNL1        0.0366
     34 H          -2.7117   -1.4485    1.5994 H       1  UNL1        0.0366
     35 H          -0.8030   -0.7441   -0.0460 H       1  UNL1        0.0401
     36 H          -1.1301    1.2177    2.2428 H       1  UNL1        0.0273
     37 H          -0.6311    1.5746    0.5813 H       1  UNL1        0.0273
     38 H          -2.8910    2.2359    0.8318 H       1  UNL1        0.0266
     39 H          -3.4419    0.6468    1.3891 H       1  UNL1        0.0266
     40 H          -2.5666   -0.2458   -0.9405 H       1  UNL1        0.0268
     41 H          -2.1848    1.4550   -1.2995 H       1  UNL1        0.0268
     42 H          -4.2680    0.7185   -2.2730 H       1  UNL1        0.0301
     43 H          -3.9193    3.1581   -1.3129 H       1  UNL1        0.0268
     44 H          -5.0365    2.5618    0.0050 H       1  UNL1        0.0268
     45 H          -6.6691    3.3031   -1.4921 H       1  UNL1        0.0265
     46 H          -5.5617    3.0341   -2.9087 H       1  UNL1        0.0265
     47 H          -7.6292    1.4806   -2.5525 H       1  UNL1        0.0265
     48 H          -6.1096    0.7881   -3.1476 H       1  UNL1        0.0265
     49 H          -6.9140   -0.6675   -1.5242 H       1  UNL1        0.0265
     50 H          -7.3765    0.6219   -0.3821 H       1  UNL1        0.0265
     51 H          -5.3268    0.5149    0.5737 H       1  UNL1        0.0268
     52 H          -4.9446   -0.9270   -0.4226 H       1  UNL1        0.0268
     53 H           3.9229   -1.4692   -0.6345 H       1  UNL1        0.1769
     54 H           6.7437   -0.5120   -2.7617 H       1  UNL1        0.0637
     55 H           7.9272    1.5715   -3.4885 H       1  UNL1        0.0618
     56 H           8.9848    3.0143   -1.8798 H       1  UNL1        0.0618
     57 H           8.8782    2.3893    0.5414 H       1  UNL1        0.0618
     58 H           7.7193    0.3421    1.2898 H       1  UNL1        0.0637
     59 H          -2.6032   -3.7852    2.9498 H       1  UNL1        0.1822
     60 H          -1.7899   -5.7029    1.4374 H       1  UNL1        0.2414
@<TRIPOS>BOND
     1     1     2    2
     2     2     3    1
     3     3     4    1
     4     4     5    1
     5     5     6    1
     6     6     7    1
     7     7     8    1
     8     8     9    1
     9     9    10    1
    10    10    11    1
    11    11    12    1
    12    12    13    1
    13     4    14    1
    14    14    15   ar
    15    15    16   ar
    16    16    17    1
    17    17    18    2
    18    17    19   am
    19    19    20    1
    20    20    21    2
    21    20    22    2
    22    20    23    1
    23    23    24   ar
    24    24    25   ar
    25    25    26   ar
    26    26    27   ar
    27    27    28   ar
    28    16    29   ar
    29    29    30   ar
    30     2    31   am
    31    31    32    1
    32    13     8    1
    33    30    14   ar
    34    28    23   ar
    35     3    33    1
    36     3    34    1
    37     4    35    1
    38     5    36    1
    39     5    37    1
    40     6    38    1
    41     6    39    1
    42     7    40    1
    43     7    41    1
    44     8    42    1
    45     9    43    1
    46     9    44    1
    47    10    45    1
    48    10    46    1
    49    11    47    1
    50    11    48    1
    51    12    49    1
    52    12    50    1
    53    13    51    1
    54    13    52    1
    55    19    53    1
    56    24    54    1
    57    25    55    1
    58    26    56    1
    59    27    57    1
    60    28    58    1
    61    31    59    1
    62    32    60    1
