@<TRIPOS>MOLECULE
*****
 44 47 0 0 0
SMALL
GASTEIGER

@<TRIPOS>ATOM
      1 C           3.5253    0.4958   -1.0965 C.3     1  UNL1       -0.0363
      2 C           2.7471   -0.7937   -0.9682 C.3     1  UNL1        0.1000
      3 N           1.6069   -0.5963   -0.0634 N.2     1  UNL1       -0.1772
      4 N           0.8263    0.2096   -0.0126 N.2     1  UNL1       -0.1320
      5 C          -0.1207    1.1386    0.0904 C.ar    1  UNL1        0.1966
      6 N           0.0821    2.2945    0.8265 N.ar    1  UNL1       -0.2233
      7 C          -0.7886    3.2786    0.9590 C.ar    1  UNL1        0.0916
      8 C          -0.5123    4.4150    1.7183 C.ar    1  UNL1       -0.0342
      9 C          -1.4359    5.4145    1.8340 C.ar    1  UNL1       -0.0596
     10 C          -2.6551    5.2939    1.1900 C.ar    1  UNL1       -0.0596
     11 C          -2.9161    4.1574    0.4377 C.ar    1  UNL1       -0.0342
     12 C          -1.9984    3.1404    0.3099 C.ar    1  UNL1        0.0896
     13 N          -2.2504    2.0431   -0.4163 N.ar    1  UNL1       -0.2460
     14 C          -1.3653    1.0411   -0.5515 C.ar    1  UNL1        0.0920
     15 C          -1.7028   -0.1569   -1.3273 C.3     1  UNL1        0.0185
     16 C          -2.1883   -1.3039   -0.5567 C.ar    1  UNL1       -0.0415
     17 C          -1.3925   -2.3493   -0.1817 C.ar    1  UNL1       -0.0582
     18 C          -1.8649   -3.4367    0.5597 C.ar    1  UNL1       -0.0615
     19 C          -3.1675   -3.4831    0.9371 C.ar    1  UNL1       -0.0617
     20 C          -3.9897   -2.4328    0.5656 C.ar    1  UNL1       -0.0615
     21 C          -3.5309   -1.3627   -0.1620 C.ar    1  UNL1       -0.0582
     22 C           3.6320   -1.7832   -0.3120 C.ar    1  UNL1        0.0156
     23 C           3.3374   -2.9665    0.2865 C.ar    1  UNL1       -0.0494
     24 C           4.3228   -3.6952    0.8189 C.ar    1  UNL1       -0.0544
     25 C           5.6085   -3.1979    0.7308 C.ar    1  UNL1       -0.0240
     26 S           5.3819   -1.6802   -0.1216 S.2     1  UNL1       -0.0994
     27 H           3.8666    0.6418   -2.1558 H       1  UNL1        0.0254
     28 H           2.9424    1.3906   -0.8128 H       1  UNL1        0.0254
     29 H           4.4323    0.4829   -0.4565 H       1  UNL1        0.0254
     30 H           2.3709   -1.1559   -1.9341 H       1  UNL1        0.0615
     31 H           0.4300    4.5074    2.2151 H       1  UNL1        0.0639
     32 H          -1.2355    6.3161    2.4274 H       1  UNL1        0.0618
     33 H          -3.3958    6.0841    1.2765 H       1  UNL1        0.0618
     34 H          -3.8720    4.0242   -0.0887 H       1  UNL1        0.0639
     35 H          -2.5157    0.1175   -2.0629 H       1  UNL1        0.0378
     36 H          -0.8398   -0.4568   -1.9898 H       1  UNL1        0.0378
     37 H          -0.3425   -2.4279   -0.4345 H       1  UNL1        0.0620
     38 H          -1.1952   -4.2594    0.8449 H       1  UNL1        0.0618
     39 H          -3.5675   -4.3067    1.5102 H       1  UNL1        0.0618
     40 H          -5.0320   -2.4985    0.8827 H       1  UNL1        0.0618
     41 H          -4.2045   -0.5418   -0.4451 H       1  UNL1        0.0620
     42 H           2.2570   -3.2887    0.3084 H       1  UNL1        0.0626
     43 H           4.1782   -4.6737    1.3267 H       1  UNL1        0.0623
     44 H           6.5326   -3.6393    1.1002 H       1  UNL1        0.0693
@<TRIPOS>BOND
     1     1     2    1
     2     2     3    1
     3     3     4    2
     4     4     5    1
     5     5     6   ar
     6     6     7   ar
     7     7     8   ar
     8     8     9   ar
     9     9    10   ar
    10    10    11   ar
    11    11    12   ar
    12    12    13   ar
    13    13    14   ar
    14    14    15    1
    15    15    16    1
    16    16    17   ar
    17    17    18   ar
    18    18    19   ar
    19    19    20   ar
    20    20    21   ar
    21     2    22    1
    22    22    23   ar
    23    23    24   ar
    24    24    25   ar
    25    25    26   ar
    26    14     5   ar
    27    21    16   ar
    28    26    22   ar
    29    12     7   ar
    30     1    27    1
    31     1    28    1
    32     1    29    1
    33     2    30    1
    34     8    31    1
    35     9    32    1
    36    10    33    1
    37    11    34    1
    38    15    35    1
    39    15    36    1
    40    17    37    1
    41    18    38    1
    42    19    39    1
    43    20    40    1
    44    21    41    1
    45    23    42    1
    46    24    43    1
    47    25    44    1
