
     RDKit          3D

 44 47  0  0  0  0  0  0  0  0999 V2000
    3.5253    0.4958   -1.0965 C   0  0  0  0  0  0  0  0  0  0  0  0
    2.7471   -0.7937   -0.9682 C   0  0  0  0  0  0  0  0  0  0  0  0
    1.6069   -0.5963   -0.0634 N   0  0  0  0  0  0  0  0  0  0  0  0
    0.8263    0.2096   -0.0126 N   0  0  0  0  0  0  0  0  0  0  0  0
   -0.1207    1.1386    0.0904 C   0  0  0  0  0  0  0  0  0  0  0  0
    0.0821    2.2945    0.8265 N   0  0  0  0  0  0  0  0  0  0  0  0
   -0.7886    3.2786    0.9590 C   0  0  0  0  0  0  0  0  0  0  0  0
   -0.5123    4.4150    1.7183 C   0  0  0  0  0  0  0  0  0  0  0  0
   -1.4359    5.4145    1.8340 C   0  0  0  0  0  0  0  0  0  0  0  0
   -2.6551    5.2939    1.1900 C   0  0  0  0  0  0  0  0  0  0  0  0
   -2.9161    4.1574    0.4377 C   0  0  0  0  0  0  0  0  0  0  0  0
   -1.9984    3.1404    0.3099 C   0  0  0  0  0  0  0  0  0  0  0  0
   -2.2504    2.0431   -0.4163 N   0  0  0  0  0  0  0  0  0  0  0  0
   -1.3653    1.0411   -0.5515 C   0  0  0  0  0  0  0  0  0  0  0  0
   -1.7028   -0.1569   -1.3273 C   0  0  0  0  0  0  0  0  0  0  0  0
   -2.1883   -1.3039   -0.5567 C   0  0  0  0  0  0  0  0  0  0  0  0
   -1.3925   -2.3493   -0.1817 C   0  0  0  0  0  0  0  0  0  0  0  0
   -1.8649   -3.4367    0.5597 C   0  0  0  0  0  0  0  0  0  0  0  0
   -3.1675   -3.4831    0.9371 C   0  0  0  0  0  0  0  0  0  0  0  0
   -3.9897   -2.4328    0.5656 C   0  0  0  0  0  0  0  0  0  0  0  0
   -3.5309   -1.3627   -0.1620 C   0  0  0  0  0  0  0  0  0  0  0  0
    3.6320   -1.7832   -0.3120 C   0  0  0  0  0  0  0  0  0  0  0  0
    3.3374   -2.9665    0.2865 C   0  0  0  0  0  0  0  0  0  0  0  0
    4.3228   -3.6952    0.8189 C   0  0  0  0  0  0  0  0  0  0  0  0
    5.6085   -3.1979    0.7308 C   0  0  0  0  0  0  0  0  0  0  0  0
    5.3819   -1.6802   -0.1216 S   0  0  0  0  0  0  0  0  0  0  0  0
    3.8666    0.6418   -2.1558 H   0  0  0  0  0  0  0  0  0  0  0  0
    2.9424    1.3906   -0.8128 H   0  0  0  0  0  0  0  0  0  0  0  0
    4.4323    0.4829   -0.4565 H   0  0  0  0  0  0  0  0  0  0  0  0
    2.3709   -1.1559   -1.9341 H   0  0  0  0  0  0  0  0  0  0  0  0
    0.4300    4.5074    2.2151 H   0  0  0  0  0  0  0  0  0  0  0  0
   -1.2355    6.3161    2.4274 H   0  0  0  0  0  0  0  0  0  0  0  0
   -3.3958    6.0841    1.2765 H   0  0  0  0  0  0  0  0  0  0  0  0
   -3.8720    4.0242   -0.0887 H   0  0  0  0  0  0  0  0  0  0  0  0
   -2.5157    0.1175   -2.0629 H   0  0  0  0  0  0  0  0  0  0  0  0
   -0.8398   -0.4568   -1.9898 H   0  0  0  0  0  0  0  0  0  0  0  0
   -0.3425   -2.4279   -0.4345 H   0  0  0  0  0  0  0  0  0  0  0  0
   -1.1952   -4.2594    0.8449 H   0  0  0  0  0  0  0  0  0  0  0  0
   -3.5675   -4.3067    1.5102 H   0  0  0  0  0  0  0  0  0  0  0  0
   -5.0320   -2.4985    0.8827 H   0  0  0  0  0  0  0  0  0  0  0  0
   -4.2045   -0.5418   -0.4451 H   0  0  0  0  0  0  0  0  0  0  0  0
    2.2570   -3.2887    0.3084 H   0  0  0  0  0  0  0  0  0  0  0  0
    4.1782   -4.6737    1.3267 H   0  0  0  0  0  0  0  0  0  0  0  0
    6.5326   -3.6393    1.1002 H   0  0  0  0  0  0  0  0  0  0  0  0
  1  2  1  0
  2  3  1  0
  3  4  2  3
  4  5  1  0
  5  6  2  0
  6  7  1  0
  7  8  2  0
  8  9  1  0
  9 10  2  0
 10 11  1  0
 11 12  2  0
 12 13  1  0
 13 14  2  0
 14 15  1  0
 15 16  1  0
 16 17  2  0
 17 18  1  0
 18 19  2  0
 19 20  1  0
 20 21  2  0
  2 22  1  0
 22 23  2  0
 23 24  1  0
 24 25  2  0
 25 26  1  0
 14  5  1  0
 21 16  1  0
 26 22  1  0
 12  7  1  0
  1 27  1  0
  1 28  1  0
  1 29  1  0
  2 30  1  0
  8 31  1  0
  9 32  1  0
 10 33  1  0
 11 34  1  0
 15 35  1  0
 15 36  1  0
 17 37  1  0
 18 38  1  0
 19 39  1  0
 20 40  1  0
 21 41  1  0
 23 42  1  0
 24 43  1  0
 25 44  1  0
M  END
$$$$
