@<TRIPOS>MOLECULE
*****
 34 36 0 0 0
SMALL
GASTEIGER

@<TRIPOS>ATOM
      1 C          -2.3901   -2.9925    1.6038 C.3     1  UNL1        0.0820
      2 O          -2.1621   -1.7559    1.0140 O.3     1  UNL1       -0.4646
      3 C          -0.9649   -1.3684    0.3747 C.2     1  UNL1        0.3377
      4 O          -0.0814   -2.2188    0.3575 O.2     1  UNL1       -0.2452
      5 C          -0.9177   -0.0262   -0.1820 C.2     1  UNL1        0.0688
      6 C           0.1830    0.3760   -0.7761 C.2     1  UNL1       -0.0253
      7 C           1.4609   -0.2506   -0.4895 C.ar    1  UNL1       -0.0211
      8 C           1.8198   -0.3962    0.8326 C.ar    1  UNL1       -0.0533
      9 C           3.0026   -1.0023    1.1653 C.ar    1  UNL1       -0.0472
     10 C           3.8662   -1.4820    0.2050 C.ar    1  UNL1        0.0179
     11 BR          5.5345   -2.3315    0.6673 Br      1  UNL1       -0.0503
     12 C           3.4776   -1.3208   -1.1227 C.ar    1  UNL1       -0.0472
     13 C           2.2993   -0.7179   -1.4749 C.ar    1  UNL1       -0.0533
     14 C           0.0494    1.5270   -1.7312 C.3     1  UNL1       -0.0001
     15 C          -1.2325    2.3004   -1.4179 C.3     1  UNL1        0.0636
     16 C          -1.1243    2.9551   -0.0475 C.3     1  UNL1       -0.0236
     17 C          -1.9334    2.0038    0.8354 C.3     1  UNL1       -0.0198
     18 C          -2.1309    0.8431   -0.0866 C.3     1  UNL1        0.0910
     19 O          -2.3163    1.4228   -1.3489 O.3     1  UNL1       -0.3682
     20 H          -2.2510   -3.8588    0.9628 H       1  UNL1        0.0661
     21 H          -3.4604   -2.9816    1.9370 H       1  UNL1        0.0661
     22 H          -1.8140   -3.0653    2.5505 H       1  UNL1        0.0661
     23 H           1.1583   -0.0277    1.6439 H       1  UNL1        0.0624
     24 H           3.2843   -1.1141    2.2219 H       1  UNL1        0.0629
     25 H           4.1502   -1.6990   -1.8812 H       1  UNL1        0.0629
     26 H           2.0012   -0.5968   -2.5251 H       1  UNL1        0.0624
     27 H           0.8748    2.2614   -1.5881 H       1  UNL1        0.0339
     28 H          -0.0369    1.1968   -2.7842 H       1  UNL1        0.0339
     29 H          -1.4289    3.0123   -2.2328 H       1  UNL1        0.0599
     30 H          -1.6373    3.9363   -0.0105 H       1  UNL1        0.0291
     31 H          -0.0707    3.0090    0.2928 H       1  UNL1        0.0291
     32 H          -1.3320    1.6743    1.6984 H       1  UNL1        0.0294
     33 H          -2.8874    2.4744    1.1442 H       1  UNL1        0.0294
     34 H          -2.9898    0.2135    0.1921 H       1  UNL1        0.0649
@<TRIPOS>BOND
     1     1     2    1
     2     2     3    1
     3     3     4    2
     4     3     5    1
     5     5     6    2
     6     6     7    1
     7     7     8   ar
     8     8     9   ar
     9     9    10   ar
    10    10    11    1
    11    10    12   ar
    12    12    13   ar
    13     6    14    1
    14    14    15    1
    15    15    16    1
    16    16    17    1
    17    17    18    1
    18    18    19    1
    19    18     5    1
    20    13     7   ar
    21    19    15    1
    22     1    20    1
    23     1    21    1
    24     1    22    1
    25     8    23    1
    26     9    24    1
    27    12    25    1
    28    13    26    1
    29    14    27    1
    30    14    28    1
    31    15    29    1
    32    16    30    1
    33    16    31    1
    34    17    32    1
    35    17    33    1
    36    18    34    1
