@<TRIPOS>MOLECULE
*****
 21 21 0 0 0
SMALL
GASTEIGER

@<TRIPOS>ATOM
      1 O           4.1678    0.4609   -0.7257 O.3     1  UNL1       -0.4775
      2 C           3.5913   -0.7757   -0.4675 C.2     1  UNL1        0.3296
      3 O           4.3390   -1.7902   -0.3988 O.2     1  UNL1       -0.2458
      4 C           2.1578   -0.9106   -0.2786 C.2     1  UNL1        0.0230
      5 C           1.3475    0.1070   -0.3405 C.2     1  UNL1       -0.0444
      6 C          -0.0978    0.0868   -0.1680 C.ar    1  UNL1        0.0169
      7 C          -0.8769    1.2355   -0.2535 C.ar    1  UNL1        0.1274
      8 O          -0.2533    2.4699   -0.5167 O.3     1  UNL1       -0.5061
      9 C          -2.2437    1.1868   -0.0859 C.ar    1  UNL1        0.0219
     10 C          -2.9074    0.0207    0.1715 C.ar    1  UNL1        0.1204
     11 O          -4.2673   -0.0228    0.3376 O.3     1  UNL1       -0.5066
     12 C          -2.1598   -1.1317    0.2614 C.ar    1  UNL1       -0.0194
     13 C          -0.7986   -1.0647    0.0915 C.ar    1  UNL1       -0.0477
     14 H           5.1814    0.5189   -0.6723 H       1  UNL1        0.2954
     15 H           1.7257   -1.8689   -0.0803 H       1  UNL1        0.0689
     16 H           1.8028    1.0813   -0.5440 H       1  UNL1        0.0627
     17 H          -0.0992    3.1335    0.2333 H       1  UNL1        0.2922
     18 H          -2.7906    2.1153   -0.1648 H       1  UNL1        0.0691
     19 H          -4.8466   -0.7666    0.0181 H       1  UNL1        0.2921
     20 H          -2.6809   -2.0709    0.4671 H       1  UNL1        0.0654
     21 H          -0.2911   -2.0146    0.1783 H       1  UNL1        0.0626
@<TRIPOS>BOND
     1     1     2    1
     2     2     3    2
     3     2     4    1
     4     4     5    2
     5     5     6    1
     6     6     7   ar
     7     7     8    1
     8     7     9   ar
     9     9    10   ar
    10    10    11    1
    11    10    12   ar
    12    12    13   ar
    13    13     6   ar
    14     1    14    1
    15     4    15    1
    16     5    16    1
    17     8    17    1
    18     9    18    1
    19    11    19    1
    20    12    20    1
    21    13    21    1
