@<TRIPOS>MOLECULE
*****
 78 81 0 0 0
SMALL
GASTEIGER

@<TRIPOS>ATOM
      1 C          -1.9096    0.7569   -0.3870 C.3     1  UNL1       -0.0328
      2 C          -1.7142    2.2665   -0.2070 C.3     1  UNL1       -0.0492
      3 C          -0.2357    2.4902   -0.5467 C.3     1  UNL1       -0.0492
      4 C           0.3135    1.1160   -0.6099 C.3     1  UNL1       -0.0320
      5 C           1.7143    0.9734   -0.1726 C.3     1  UNL1       -0.0307
      6 C           2.6055    1.6351   -1.2409 C.3     1  UNL1       -0.0311
      7 C           3.9426    1.7263   -0.5893 C.2     1  UNL1       -0.0839
      8 C           4.2939    0.6651    0.1707 C.2     1  UNL1       -0.0648
      9 C           5.6304    0.7093    0.8474 C.3     1  UNL1       -0.0025
     10 C           6.4417   -0.3730    0.1427 C.3     1  UNL1        0.0935
     11 C           5.7105   -1.6672    0.3000 C.3     1  UNL1       -0.0232
     12 C           4.3193   -1.6863   -0.2328 C.3     1  UNL1       -0.0412
     13 C           3.4912   -0.5666    0.4156 C.3     1  UNL1       -0.0078
     14 C           3.4002   -0.9098    1.8982 C.3     1  UNL1       -0.0556
     15 C           2.1400   -0.4602   -0.1902 C.3     1  UNL1       -0.0285
     16 C           1.1400   -1.3998    0.3856 C.3     1  UNL1       -0.0486
     17 C          -0.2617   -1.1695   -0.1421 C.3     1  UNL1       -0.0468
     18 C          -0.6665    0.2396    0.1886 C.3     1  UNL1       -0.0259
     19 C          -0.4872    0.4055    1.6574 C.3     1  UNL1       -0.0590
     20 O           7.6775   -0.4558    0.7292 O.3     1  UNL1       -0.2122
     21 S           8.9088   -0.0452   -0.3342 S.O2    1  UNL1        0.2078
     22 O           8.7808    1.5509   -0.8439 O.3     1  UNL1       -0.2311
     23 O           8.9324   -0.9122   -1.5528 O.2     1  UNL1       -0.1181
     24 O          10.2295   -0.1442    0.3865 O.2     1  UNL1       -0.1181
     25 C          -3.2452    0.3766    0.1051 C.3     1  UNL1       -0.0405
     26 C          -3.5201    0.6376    1.5423 C.3     1  UNL1       -0.0621
     27 C          -3.7536   -0.9487   -0.3144 C.3     1  UNL1       -0.0502
     28 C          -5.1533   -1.2395    0.2233 C.3     1  UNL1       -0.0526
     29 C          -6.1896   -0.2740   -0.2480 C.3     1  UNL1       -0.0507
     30 C          -7.5698   -0.5796    0.3107 C.3     1  UNL1       -0.0467
     31 C          -8.5663    0.4582   -0.2232 C.3     1  UNL1       -0.0627
     32 C          -8.0815   -1.9082   -0.2049 C.3     1  UNL1       -0.0627
     33 H          -1.8937    0.5923   -1.4832 H       1  UNL1        0.0309
     34 H          -1.8288    2.6069    0.8174 H       1  UNL1        0.0268
     35 H          -2.3516    2.8519   -0.8873 H       1  UNL1        0.0268
     36 H           0.2641    3.1618    0.1590 H       1  UNL1        0.0268
     37 H          -0.1947    2.9531   -1.5669 H       1  UNL1        0.0268
     38 H           0.2449    0.7423   -1.6553 H       1  UNL1        0.0309
     39 H           1.9660    1.5246    0.7573 H       1  UNL1        0.0309
     40 H           2.7062    0.9629   -2.1069 H       1  UNL1        0.0310
     41 H           2.1912    2.6288   -1.4895 H       1  UNL1        0.0310
     42 H           4.6319    2.5528   -0.6764 H       1  UNL1        0.0572
     43 H           5.5885    0.5981    1.9298 H       1  UNL1        0.0336
     44 H           6.0982    1.7176    0.6737 H       1  UNL1        0.0336
     45 H           6.5482   -0.0530   -0.9035 H       1  UNL1        0.0624
     46 H           6.2886   -2.4447   -0.2816 H       1  UNL1        0.0291
     47 H           5.7978   -2.0038    1.3527 H       1  UNL1        0.0291
     48 H           4.3430   -1.5445   -1.3182 H       1  UNL1        0.0274
     49 H           3.8720   -2.6555    0.0199 H       1  UNL1        0.0274
     50 H           4.3814   -0.9675    2.3726 H       1  UNL1        0.0238
     51 H           2.9614   -1.9256    1.9750 H       1  UNL1        0.0238
     52 H           2.8370   -0.1285    2.4465 H       1  UNL1        0.0238
     53 H           2.2540   -0.7574   -1.2746 H       1  UNL1        0.0312
     54 H           1.4137   -2.4330    0.0852 H       1  UNL1        0.0268
     55 H           1.0614   -1.3998    1.4881 H       1  UNL1        0.0268
     56 H          -0.3861   -1.4196   -1.2038 H       1  UNL1        0.0271
     57 H          -0.8951   -1.8692    0.4857 H       1  UNL1        0.0271
     58 H          -0.9637    1.2874    2.1091 H       1  UNL1        0.0235
     59 H           0.6065    0.5399    1.9069 H       1  UNL1        0.0235
     60 H          -0.7250   -0.5602    2.1510 H       1  UNL1        0.0235
     61 H           8.4083    2.1301   -0.1114 H       1  UNL1        0.2469
     62 H          -3.9331    1.1237   -0.4264 H       1  UNL1        0.0301
     63 H          -4.6084    0.5514    1.7197 H       1  UNL1        0.0233
     64 H          -3.0765   -0.1028    2.2440 H       1  UNL1        0.0233
     65 H          -3.3037    1.6974    1.8592 H       1  UNL1        0.0233
     66 H          -3.8910   -0.9698   -1.4329 H       1  UNL1        0.0268
     67 H          -3.1471   -1.8240   -0.0160 H       1  UNL1        0.0268
     68 H          -5.3847   -2.2816   -0.1650 H       1  UNL1        0.0265
     69 H          -5.1908   -1.3161    1.3205 H       1  UNL1        0.0265
     70 H          -5.9204    0.7914   -0.2056 H       1  UNL1        0.0268
     71 H          -6.3044   -0.4712   -1.3626 H       1  UNL1        0.0268
     72 H          -7.5878   -0.6365    1.4183 H       1  UNL1        0.0295
     73 H          -9.5509    0.0074   -0.4389 H       1  UNL1        0.0232
     74 H          -8.2026    0.9263   -1.1478 H       1  UNL1        0.0232
     75 H          -8.7607    1.2545    0.5261 H       1  UNL1        0.0232
     76 H          -8.1953   -1.9411   -1.2905 H       1  UNL1        0.0232
     77 H          -7.4157   -2.6941    0.2007 H       1  UNL1        0.0232
     78 H          -9.0705   -2.0704    0.2972 H       1  UNL1        0.0232
@<TRIPOS>BOND
     1     1     2    1
     2     2     3    1
     3     3     4    1
     4     4     5    1
     5     5     6    1
     6     6     7    1
     7     7     8    2
     8     8     9    1
     9     9    10    1
    10    10    11    1
    11    11    12    1
    12    12    13    1
    13    13    14    1
    14    13    15    1
    15    15    16    1
    16    16    17    1
    17    17    18    1
    18    18    19    1
    19    10    20    1
    20    20    21    1
    21    21    22    1
    22    21    23    2
    23    21    24    2
    24     1    25    1
    25    25    26    1
    26    25    27    1
    27    27    28    1
    28    28    29    1
    29    29    30    1
    30    30    31    1
    31    30    32    1
    32    18     1    1
    33    18     4    1
    34    15     5    1
    35    13     8    1
    36     1    33    1
    37     2    34    1
    38     2    35    1
    39     3    36    1
    40     3    37    1
    41     4    38    1
    42     5    39    1
    43     6    40    1
    44     6    41    1
    45     7    42    1
    46     9    43    1
    47     9    44    1
    48    10    45    1
    49    11    46    1
    50    11    47    1
    51    12    48    1
    52    12    49    1
    53    14    50    1
    54    14    51    1
    55    14    52    1
    56    15    53    1
    57    16    54    1
    58    16    55    1
    59    17    56    1
    60    17    57    1
    61    19    58    1
    62    19    59    1
    63    19    60    1
    64    22    61    1
    65    25    62    1
    66    26    63    1
    67    26    64    1
    68    26    65    1
    69    27    66    1
    70    27    67    1
    71    28    68    1
    72    28    69    1
    73    29    70    1
    74    29    71    1
    75    30    72    1
    76    31    73    1
    77    31    74    1
    78    31    75    1
    79    32    76    1
    80    32    77    1
    81    32    78    1
