
     RDKit          3D

 45 48  0  0  0  0  0  0  0  0999 V2000
    7.6881    0.8262    2.1586 N   0  0  0  0  0  0  0  0  0  0  0  0
    6.4601    0.1146    2.0827 C   0  0  0  0  0  0  0  0  0  0  0  0
    6.2414   -0.7841    2.9819 N   0  0  0  0  0  4  0  0  0  0  0  0
    5.4166    0.2951    1.0898 C   0  0  0  0  0  0  0  0  0  0  0  0
    5.8603    0.7126   -0.1628 C   0  0  0  0  0  0  0  0  0  0  0  0
    4.8803    0.8963   -1.1425 C   0  0  0  0  0  0  0  0  0  0  0  0
    3.5304    0.6657   -0.8539 C   0  0  0  0  0  0  0  0  0  0  0  0
    2.4139    0.7658   -1.6003 N   0  0  0  0  0  0  0  0  0  0  0  0
    1.3630    0.4343   -0.8606 C   0  0  0  0  0  0  0  0  0  0  0  0
    1.8000    0.1128    0.3879 N   0  0  0  0  0  0  0  0  0  0  0  0
    3.1431    0.2496    0.4144 C   0  0  0  0  0  0  0  0  0  0  0  0
    4.0948    0.0594    1.4060 C   0  0  0  0  0  0  0  0  0  0  0  0
   -0.0277    0.4146   -1.3014 C   0  0  0  0  0  0  0  0  0  0  0  0
   -0.2527    0.7777   -2.6137 C   0  0  0  0  0  0  0  0  0  0  0  0
   -1.5642    0.7627   -3.0413 C   0  0  0  0  0  0  0  0  0  0  0  0
   -2.6166    0.4087   -2.2260 C   0  0  0  0  0  0  0  0  0  0  0  0
   -2.4024    0.0449   -0.9150 C   0  0  0  0  0  0  0  0  0  0  0  0
   -3.2440   -0.3472    0.1066 O   0  0  0  0  0  0  0  0  0  0  0  0
   -4.6169   -0.4399   -0.0802 C   0  0  0  0  0  0  0  0  0  0  0  0
   -5.1656   -1.8182    0.2169 C   0  0  0  0  0  0  0  0  0  0  0  0
   -6.6640   -1.5307    0.1998 C   0  0  0  0  0  0  0  0  0  0  0  0
   -6.8150   -0.1009    0.6800 C   0  0  0  0  0  0  0  0  0  0  0  0
   -5.4049    0.4299    0.8781 C   0  0  0  0  0  0  0  0  0  0  0  0
   -1.0777    0.0524   -0.4572 C   0  0  0  0  0  0  0  0  0  0  0  0
   -0.6534   -0.2820    0.8306 O   0  0  0  0  0  1  0  0  0  0  0  0
    8.1186    1.6719    2.6254 H   0  0  0  0  0  0  0  0  0  0  0  0
    8.5390    0.5096    1.6134 H   0  0  0  0  0  0  0  0  0  0  0  0
    6.3497   -1.4120    3.8051 H   0  0  0  0  0  0  0  0  0  0  0  0
    5.3828   -1.3743    3.0383 H   0  0  0  0  0  0  0  0  0  0  0  0
    6.9107    0.8859   -0.3667 H   0  0  0  0  0  0  0  0  0  0  0  0
    5.1988    1.2227   -2.1321 H   0  0  0  0  0  0  0  0  0  0  0  0
    2.4495    1.0675   -2.6095 H   0  0  0  0  0  0  0  0  0  0  0  0
    3.7862   -0.2632    2.3866 H   0  0  0  0  0  0  0  0  0  0  0  0
    0.5240    1.0640   -3.3003 H   0  0  0  0  0  0  0  0  0  0  0  0
   -1.8622    1.0310   -4.0592 H   0  0  0  0  0  0  0  0  0  0  0  0
   -3.6563    0.3742   -2.4883 H   0  0  0  0  0  0  0  0  0  0  0  0
   -4.9839   -0.1814   -1.0907 H   0  0  0  0  0  0  0  0  0  0  0  0
   -4.9406   -2.4697   -0.6431 H   0  0  0  0  0  0  0  0  0  0  0  0
   -4.8113   -2.2483    1.1585 H   0  0  0  0  0  0  0  0  0  0  0  0
   -7.0611   -1.6309   -0.8436 H   0  0  0  0  0  0  0  0  0  0  0  0
   -7.1406   -2.2526    0.8767 H   0  0  0  0  0  0  0  0  0  0  0  0
   -7.3569    0.4820   -0.1132 H   0  0  0  0  0  0  0  0  0  0  0  0
   -7.3997   -0.0748    1.6096 H   0  0  0  0  0  0  0  0  0  0  0  0
   -5.3897    1.4606    0.4488 H   0  0  0  0  0  0  0  0  0  0  0  0
   -5.0442    0.3580    1.9060 H   0  0  0  0  0  0  0  0  0  0  0  0
  1  2  1  0
  2  3  2  0
  2  4  1  0
  4  5  2  0
  5  6  1  0
  6  7  2  0
  7  8  1  0
  8  9  1  0
  9 10  2  0
 10 11  1  0
 11 12  2  0
  9 13  1  0
 13 14  2  0
 14 15  1  0
 15 16  2  0
 16 17  1  0
 17 18  1  0
 18 19  1  0
 19 20  1  0
 20 21  1  0
 21 22  1  0
 22 23  1  0
 17 24  2  0
 24 25  1  0
 12  4  1  0
 24 13  1  0
 11  7  1  0
 23 19  1  0
  1 26  1  0
  1 27  1  0
  3 28  1  0
  3 29  1  0
  5 30  1  0
  6 31  1  0
  8 32  1  0
 12 33  1  0
 14 34  1  0
 15 35  1  0
 16 36  1  0
 19 37  1  0
 20 38  1  0
 20 39  1  0
 21 40  1  0
 21 41  1  0
 22 42  1  0
 22 43  1  0
 23 44  1  0
 23 45  1  0
M  CHG  2   3   1  25  -1
M  END
$$$$
