@<TRIPOS>MOLECULE
*****
 57 61 0 0 0
SMALL
GASTEIGER

@<TRIPOS>ATOM
      1 O           2.2220    1.6173   -0.4356 O.2     1  UNL1       -0.2702
      2 C           2.1905    0.3939   -0.0499 C.2     1  UNL1        0.2441
      3 N           0.9525   -0.2485    0.1538 N.am    1  UNL1       -0.3104
      4 C          -0.2619    0.4746   -0.0730 C.3     1  UNL1        0.0236
      5 C          -1.4921   -0.3213    0.1791 C.3     1  UNL1        0.0389
      6 C          -2.6901    0.5487   -0.0942 C.ar    1  UNL1        0.0867
      7 N          -3.8822    0.4772   -0.0707 N.ar    1  UNL1       -0.2434
      8 C          -4.7610    1.4064   -0.3629 C.ar    1  UNL1        0.0784
      9 C          -6.2495    1.2110   -0.3000 C.ar    1  UNL1        0.0009
     10 C          -7.1029    2.2329   -0.6215 C.ar    1  UNL1       -0.0526
     11 C          -8.4822    2.0647   -0.5673 C.ar    1  UNL1       -0.0611
     12 C          -9.0273    0.8629   -0.1878 C.ar    1  UNL1       -0.0617
     13 C          -8.1814   -0.1694    0.1369 C.ar    1  UNL1       -0.0611
     14 C          -6.7998    0.0139    0.0780 C.ar    1  UNL1       -0.0526
     15 C          -4.2215    2.5996   -0.7396 C.ar    1  UNL1        0.0033
     16 S          -2.4295    2.2641   -0.6354 S.2     1  UNL1       -0.0793
     17 C          -1.5143   -1.4625   -0.8239 C.3     1  UNL1       -0.0163
     18 C          -2.4638   -2.5502   -0.4546 C.3     1  UNL1        0.0486
     19 O          -3.3098   -2.1455    0.5518 O.3     1  UNL1       -0.3797
     20 C          -2.5302   -1.9947    1.7119 C.3     1  UNL1        0.0486
     21 C          -1.6196   -0.7964    1.5882 C.3     1  UNL1       -0.0163
     22 C           3.4475   -0.3067    0.1697 C.ar    1  UNL1        0.0374
     23 C           3.5283   -1.6145    0.5819 C.ar    1  UNL1       -0.0496
     24 C           4.7653   -2.2221    0.7722 C.ar    1  UNL1       -0.0604
     25 C           5.9461   -1.5487    0.5588 C.ar    1  UNL1       -0.0509
     26 C           5.8878   -0.2361    0.1452 C.ar    1  UNL1        0.0232
     27 C           7.1388    0.4738   -0.0798 C.ar    1  UNL1        0.2024
     28 N           7.2802    1.5064   -0.9297 N.ar    1  UNL1       -0.0557
     29 O           8.5077    1.9347   -0.9181 O.2     1  UNL1       -0.3282
     30 C           9.1848    1.2062   -0.0765 C.ar    1  UNL1        0.3320
     31 C          10.6136    1.3532    0.2414 C.3     1  UNL1        0.4721
     32 F          11.3752    1.6756   -0.8670 F       1  UNL1       -0.1619
     33 F          11.1488    0.1794    0.7684 F       1  UNL1       -0.1619
     34 F          10.7751    2.3833    1.1606 F       1  UNL1       -0.1619
     35 N           8.3609    0.2960    0.4549 N.ar    1  UNL1       -0.1837
     36 C           4.6728    0.3410   -0.0356 C.ar    1  UNL1       -0.0388
     37 H           0.9142   -1.2326    0.4641 H       1  UNL1        0.1490
     38 H          -0.2018    1.3932    0.5840 H       1  UNL1        0.0471
     39 H          -0.2082    0.8880   -1.1064 H       1  UNL1        0.0471
     40 H          -6.6776    3.1971   -0.9259 H       1  UNL1        0.0624
     41 H          -9.1348    2.8758   -0.8225 H       1  UNL1        0.0618
     42 H         -10.0991    0.6894   -0.1322 H       1  UNL1        0.0618
     43 H          -8.5669   -1.1321    0.4408 H       1  UNL1        0.0618
     44 H          -6.1366   -0.8065    0.3361 H       1  UNL1        0.0624
     45 H          -4.6529    3.5878   -1.0509 H       1  UNL1        0.0715
     46 H          -1.8138   -1.0740   -1.8236 H       1  UNL1        0.0297
     47 H          -0.5003   -1.9043   -0.9639 H       1  UNL1        0.0297
     48 H          -1.9030   -3.4599   -0.0977 H       1  UNL1        0.0560
     49 H          -3.0322   -2.9130   -1.3565 H       1  UNL1        0.0560
     50 H          -3.1956   -1.8921    2.5930 H       1  UNL1        0.0560
     51 H          -1.9714   -2.9440    1.8423 H       1  UNL1        0.0560
     52 H          -2.0968    0.0360    2.1811 H       1  UNL1        0.0297
     53 H          -0.6494   -1.0662    2.0521 H       1  UNL1        0.0297
     54 H           2.6371   -2.1855    0.7627 H       1  UNL1        0.0625
     55 H           4.8227   -3.2602    1.0994 H       1  UNL1        0.0618
     56 H           6.8831   -2.0689    0.7219 H       1  UNL1        0.0625
     57 H           4.6047    1.3719   -0.3605 H       1  UNL1        0.0632
@<TRIPOS>BOND
     1     1     2    2
     2     2     3   am
     3     3     4    1
     4     4     5    1
     5     5     6    1
     6     6     7   ar
     7     7     8   ar
     8     8     9    1
     9     9    10   ar
    10    10    11   ar
    11    11    12   ar
    12    12    13   ar
    13    13    14   ar
    14     8    15   ar
    15    15    16   ar
    16     5    17    1
    17    17    18    1
    18    18    19    1
    19    19    20    1
    20    20    21    1
    21     2    22    1
    22    22    23   ar
    23    23    24   ar
    24    24    25   ar
    25    25    26   ar
    26    26    27    1
    27    27    28   ar
    28    28    29   ar
    29    29    30   ar
    30    30    31    1
    31    31    32    1
    32    31    33    1
    33    31    34    1
    34    30    35   ar
    35    26    36   ar
    36    21     5    1
    37    36    22   ar
    38    16     6   ar
    39    35    27   ar
    40    14     9   ar
    41     3    37    1
    42     4    38    1
    43     4    39    1
    44    10    40    1
    45    11    41    1
    46    12    42    1
    47    13    43    1
    48    14    44    1
    49    15    45    1
    50    17    46    1
    51    17    47    1
    52    18    48    1
    53    18    49    1
    54    20    50    1
    55    20    51    1
    56    21    52    1
    57    21    53    1
    58    23    54    1
    59    24    55    1
    60    25    56    1
    61    36    57    1
