
     RDKit          3D

 57 61  0  0  0  0  0  0  0  0999 V2000
    2.2220    1.6173   -0.4356 O   0  0  0  0  0  0  0  0  0  0  0  0
    2.1905    0.3939   -0.0499 C   0  0  0  0  0  0  0  0  0  0  0  0
    0.9525   -0.2485    0.1538 N   0  0  0  0  0  0  0  0  0  0  0  0
   -0.2619    0.4746   -0.0730 C   0  0  0  0  0  0  0  0  0  0  0  0
   -1.4921   -0.3213    0.1791 C   0  0  0  0  0  0  0  0  0  0  0  0
   -2.6901    0.5487   -0.0942 C   0  0  0  0  0  0  0  0  0  0  0  0
   -3.8822    0.4772   -0.0707 N   0  0  0  0  0  0  0  0  0  0  0  0
   -4.7610    1.4064   -0.3629 C   0  0  0  0  0  0  0  0  0  0  0  0
   -6.2495    1.2110   -0.3000 C   0  0  0  0  0  0  0  0  0  0  0  0
   -7.1029    2.2329   -0.6215 C   0  0  0  0  0  0  0  0  0  0  0  0
   -8.4822    2.0647   -0.5673 C   0  0  0  0  0  0  0  0  0  0  0  0
   -9.0273    0.8629   -0.1878 C   0  0  0  0  0  0  0  0  0  0  0  0
   -8.1814   -0.1694    0.1369 C   0  0  0  0  0  0  0  0  0  0  0  0
   -6.7998    0.0139    0.0780 C   0  0  0  0  0  0  0  0  0  0  0  0
   -4.2215    2.5996   -0.7396 C   0  0  0  0  0  0  0  0  0  0  0  0
   -2.4295    2.2641   -0.6354 S   0  0  0  0  0  0  0  0  0  0  0  0
   -1.5143   -1.4625   -0.8239 C   0  0  0  0  0  0  0  0  0  0  0  0
   -2.4638   -2.5502   -0.4546 C   0  0  0  0  0  0  0  0  0  0  0  0
   -3.3098   -2.1455    0.5518 O   0  0  0  0  0  0  0  0  0  0  0  0
   -2.5302   -1.9947    1.7119 C   0  0  0  0  0  0  0  0  0  0  0  0
   -1.6196   -0.7964    1.5882 C   0  0  0  0  0  0  0  0  0  0  0  0
    3.4475   -0.3067    0.1697 C   0  0  0  0  0  0  0  0  0  0  0  0
    3.5283   -1.6145    0.5819 C   0  0  0  0  0  0  0  0  0  0  0  0
    4.7653   -2.2221    0.7722 C   0  0  0  0  0  0  0  0  0  0  0  0
    5.9461   -1.5487    0.5588 C   0  0  0  0  0  0  0  0  0  0  0  0
    5.8878   -0.2361    0.1452 C   0  0  0  0  0  0  0  0  0  0  0  0
    7.1388    0.4738   -0.0798 C   0  0  0  0  0  0  0  0  0  0  0  0
    7.2802    1.5064   -0.9297 N   0  0  0  0  0  0  0  0  0  0  0  0
    8.5077    1.9347   -0.9181 O   0  0  0  0  0  0  0  0  0  0  0  0
    9.1848    1.2062   -0.0765 C   0  0  0  0  0  0  0  0  0  0  0  0
   10.6136    1.3532    0.2414 C   0  0  0  0  0  0  0  0  0  0  0  0
   11.3752    1.6756   -0.8670 F   0  0  0  0  0  0  0  0  0  0  0  0
   11.1488    0.1794    0.7684 F   0  0  0  0  0  0  0  0  0  0  0  0
   10.7751    2.3833    1.1606 F   0  0  0  0  0  0  0  0  0  0  0  0
    8.3609    0.2960    0.4549 N   0  0  0  0  0  0  0  0  0  0  0  0
    4.6728    0.3410   -0.0356 C   0  0  0  0  0  0  0  0  0  0  0  0
    0.9142   -1.2326    0.4641 H   0  0  0  0  0  0  0  0  0  0  0  0
   -0.2018    1.3932    0.5840 H   0  0  0  0  0  0  0  0  0  0  0  0
   -0.2082    0.8880   -1.1064 H   0  0  0  0  0  0  0  0  0  0  0  0
   -6.6776    3.1971   -0.9259 H   0  0  0  0  0  0  0  0  0  0  0  0
   -9.1348    2.8758   -0.8225 H   0  0  0  0  0  0  0  0  0  0  0  0
  -10.0991    0.6894   -0.1322 H   0  0  0  0  0  0  0  0  0  0  0  0
   -8.5669   -1.1321    0.4408 H   0  0  0  0  0  0  0  0  0  0  0  0
   -6.1366   -0.8065    0.3361 H   0  0  0  0  0  0  0  0  0  0  0  0
   -4.6529    3.5878   -1.0509 H   0  0  0  0  0  0  0  0  0  0  0  0
   -1.8138   -1.0740   -1.8236 H   0  0  0  0  0  0  0  0  0  0  0  0
   -0.5003   -1.9043   -0.9639 H   0  0  0  0  0  0  0  0  0  0  0  0
   -1.9030   -3.4599   -0.0977 H   0  0  0  0  0  0  0  0  0  0  0  0
   -3.0322   -2.9130   -1.3565 H   0  0  0  0  0  0  0  0  0  0  0  0
   -3.1956   -1.8921    2.5930 H   0  0  0  0  0  0  0  0  0  0  0  0
   -1.9714   -2.9440    1.8423 H   0  0  0  0  0  0  0  0  0  0  0  0
   -2.0968    0.0360    2.1811 H   0  0  0  0  0  0  0  0  0  0  0  0
   -0.6494   -1.0662    2.0521 H   0  0  0  0  0  0  0  0  0  0  0  0
    2.6371   -2.1855    0.7627 H   0  0  0  0  0  0  0  0  0  0  0  0
    4.8227   -3.2602    1.0994 H   0  0  0  0  0  0  0  0  0  0  0  0
    6.8831   -2.0689    0.7219 H   0  0  0  0  0  0  0  0  0  0  0  0
    4.6047    1.3719   -0.3605 H   0  0  0  0  0  0  0  0  0  0  0  0
  1  2  2  0
  2  3  1  0
  3  4  1  0
  4  5  1  0
  5  6  1  0
  6  7  2  0
  7  8  1  0
  8  9  1  0
  9 10  2  0
 10 11  1  0
 11 12  2  0
 12 13  1  0
 13 14  2  0
  8 15  2  0
 15 16  1  0
  5 17  1  0
 17 18  1  0
 18 19  1  0
 19 20  1  0
 20 21  1  0
  2 22  1  0
 22 23  2  0
 23 24  1  0
 24 25  2  0
 25 26  1  0
 26 27  1  0
 27 28  2  0
 28 29  1  0
 29 30  1  0
 30 31  1  0
 31 32  1  0
 31 33  1  0
 31 34  1  0
 30 35  2  0
 26 36  2  0
 21  5  1  0
 36 22  1  0
 16  6  1  0
 35 27  1  0
 14  9  1  0
  3 37  1  0
  4 38  1  0
  4 39  1  0
 10 40  1  0
 11 41  1  0
 12 42  1  0
 13 43  1  0
 14 44  1  0
 15 45  1  0
 17 46  1  0
 17 47  1  0
 18 48  1  0
 18 49  1  0
 20 50  1  0
 20 51  1  0
 21 52  1  0
 21 53  1  0
 23 54  1  0
 24 55  1  0
 25 56  1  0
 36 57  1  0
M  END
$$$$
