
     RDKit          3D

 15 14  0  0  0  0  0  0  0  0999 V2000
   -1.3528   -1.5382   -0.1806 N   0  0  0  0  0  0  0  0  0  0  0  0
   -0.6205   -0.4628    0.3924 C   0  0  1  0  0  0  0  0  0  0  0  0
    0.8535   -0.4932    0.0675 C   0  0  0  0  0  0  0  0  0  0  0  0
    1.5890    0.9505    0.8879 S   0  0  0  0  0  0  0  0  0  0  0  0
    3.2869    1.0089    0.5766 O   0  0  0  0  0  0  0  0  0  0  0  0
   -1.1596    0.7867   -0.2381 C   0  0  0  0  0  0  0  0  0  0  0  0
   -0.7456    2.0812    0.0156 O   0  0  0  0  0  0  0  0  0  0  0  0
   -2.0810    0.6992   -1.0882 O   0  0  0  0  0  0  0  0  0  0  0  0
   -1.6209   -2.3181    0.4062 H   0  0  0  0  0  0  0  0  0  0  0  0
   -1.8483   -1.3487   -1.0469 H   0  0  0  0  0  0  0  0  0  0  0  0
   -0.7714   -0.4468    1.4934 H   0  0  0  0  0  0  0  0  0  0  0  0
    1.3381   -1.4477    0.3566 H   0  0  0  0  0  0  0  0  0  0  0  0
    0.9425   -0.3764   -1.0348 H   0  0  0  0  0  0  0  0  0  0  0  0
    3.6094    0.0669    0.6531 H   0  0  0  0  0  0  0  0  0  0  0  0
   -1.4193    2.8385    0.0848 H   0  0  0  0  0  0  0  0  0  0  0  0
  1  2  1  0
  2  3  1  0
  3  4  1  0
  4  5  1  0
  2  6  1  0
  6  7  1  0
  6  8  2  0
  1  9  1  0
  1 10  1  0
  2 11  1  1
  3 12  1  0
  3 13  1  0
  5 14  1  0
  7 15  1  0
M  END
$$$$
