@<TRIPOS>MOLECULE
*****
 52 56 0 0 0
SMALL
GASTEIGER

@<TRIPOS>ATOM
      1 C           0.3637   -1.2235    2.9550 C.3     1  UNL1       -0.0391
      2 C           1.4700   -0.8414    2.0383 C.ar    1  UNL1       -0.0425
      3 C           2.7847   -0.7766    2.4505 C.ar    1  UNL1       -0.0575
      4 C           3.7909   -0.4112    1.5477 C.ar    1  UNL1       -0.0494
      5 C           3.5183   -0.1056    0.2318 C.ar    1  UNL1        0.0373
      6 C           4.5595    0.2776   -0.7218 C.2     1  UNL1        0.2443
      7 O           4.2155    0.5393   -1.9049 O.2     1  UNL1       -0.2702
      8 N           5.9284    0.3771   -0.4160 N.am    1  UNL1       -0.3085
      9 C           6.9456    0.7584   -1.3742 C.3     1  UNL1        0.0235
     10 C           7.9336    1.8409   -0.8465 C.3     1  UNL1       -0.0328
     11 C           8.3637    0.4505   -1.1002 C.3     1  UNL1       -0.0328
     12 C           2.1858   -0.1774   -0.1624 C.ar    1  UNL1       -0.0415
     13 C           1.1884   -0.5369    0.7218 C.ar    1  UNL1       -0.0091
     14 C          -0.2098   -0.6088    0.2950 C.ar    1  UNL1        0.0476
     15 C          -0.7403   -1.7778   -0.2063 C.ar    1  UNL1       -0.0367
     16 C          -2.0577   -1.8362   -0.6057 C.ar    1  UNL1        0.0381
     17 C          -2.8468   -2.8479   -1.1352 C.ar    1  UNL1        0.0591
     18 N          -4.0512   -2.3502   -1.3366 N.ar    1  UNL1       -0.1721
     19 N          -4.1085   -1.0544   -0.9681 N.ar    1  UNL1       -0.2100
     20 C          -5.2757   -0.2600   -1.0711 C.ar    1  UNL1        0.1377
     21 C          -5.7413    0.2472   -2.2623 C.ar    1  UNL1        0.1516
     22 F          -5.0702    0.0085   -3.4027 F       1  UNL1       -0.2032
     23 C          -6.9005    1.0118   -2.3352 C.ar    1  UNL1       -0.0242
     24 C          -7.6000    1.2692   -1.1953 C.ar    1  UNL1       -0.0562
     25 C          -7.1631    0.7785    0.0073 C.ar    1  UNL1       -0.0242
     26 C          -5.9943    0.0098    0.0678 C.ar    1  UNL1        0.1516
     27 F          -5.5852   -0.4604    1.2517 F       1  UNL1       -0.2032
     28 C          -2.8915   -0.7275   -0.5179 C.ar    1  UNL1        0.1469
     29 N          -2.3693    0.4026   -0.0307 N.ar    1  UNL1       -0.2953
     30 C          -3.2119    1.5802    0.0757 C.3     1  UNL1        0.0167
     31 C          -1.0624    0.4634    0.3664 C.ar    1  UNL1        0.2603
     32 O          -0.6291    1.5444    0.8133 O.2     1  UNL1       -0.2670
     33 H           0.3462   -2.3118    3.1058 H       1  UNL1        0.0278
     34 H           0.5191   -0.7625    3.9623 H       1  UNL1        0.0278
     35 H          -0.5966   -0.8301    2.5549 H       1  UNL1        0.0278
     36 H           3.0434   -1.0079    3.4728 H       1  UNL1        0.0621
     37 H           4.8194   -0.3650    1.8876 H       1  UNL1        0.0625
     38 H           6.2446    0.1671    0.5533 H       1  UNL1        0.1493
     39 H           6.5611    0.9706   -2.3867 H       1  UNL1        0.0498
     40 H           7.7388    2.2269    0.1716 H       1  UNL1        0.0284
     41 H           8.2315    2.6243   -1.5751 H       1  UNL1        0.0284
     42 H           8.5735   -0.1617   -0.2022 H       1  UNL1        0.0284
     43 H           9.0906    0.2936   -1.9105 H       1  UNL1        0.0284
     44 H           1.9364    0.0568   -1.1915 H       1  UNL1        0.0631
     45 H          -0.1289   -2.6661   -0.2930 H       1  UNL1        0.0633
     46 H          -2.4413   -3.8378   -1.3118 H       1  UNL1        0.0855
     47 H          -7.2718    1.4126   -3.2632 H       1  UNL1        0.0647
     48 H          -8.5124    1.8630   -1.2064 H       1  UNL1        0.0619
     49 H          -7.6954    0.9659    0.9237 H       1  UNL1        0.0647
     50 H          -3.7770    1.5309    1.0426 H       1  UNL1        0.0457
     51 H          -3.8612    1.7661   -0.7724 H       1  UNL1        0.0457
     52 H          -2.5591    2.5018    0.2292 H       1  UNL1        0.0457
@<TRIPOS>BOND
     1     1     2    1
     2     2     3   ar
     3     3     4   ar
     4     4     5   ar
     5     5     6    1
     6     6     7    2
     7     6     8   am
     8     8     9    1
     9     9    10    1
    10    10    11    1
    11     5    12   ar
    12    12    13   ar
    13    13    14    1
    14    14    15   ar
    15    15    16   ar
    16    16    17   ar
    17    17    18   ar
    18    18    19   ar
    19    19    20    1
    20    20    21   ar
    21    21    22    1
    22    21    23   ar
    23    23    24   ar
    24    24    25   ar
    25    25    26   ar
    26    26    27    1
    27    19    28   ar
    28    28    29   ar
    29    29    30    1
    30    29    31   ar
    31    31    32    2
    32    13     2   ar
    33    31    14   ar
    34    11     9    1
    35    28    16   ar
    36    26    20   ar
    37     1    33    1
    38     1    34    1
    39     1    35    1
    40     3    36    1
    41     4    37    1
    42     8    38    1
    43     9    39    1
    44    10    40    1
    45    10    41    1
    46    11    42    1
    47    11    43    1
    48    12    44    1
    49    15    45    1
    50    17    46    1
    51    23    47    1
    52    24    48    1
    53    25    49    1
    54    30    50    1
    55    30    51    1
    56    30    52    1
