@<TRIPOS>MOLECULE
*****
 34 35 0 0 0
SMALL
GASTEIGER

@<TRIPOS>ATOM
      1 S           0.4602   -2.4346   -1.3594 S.2     1  UNL1       -0.0186
      2 C           1.3054   -1.1992   -0.7128 C.2     1  UNL1        0.1346
      3 N           0.6955   -0.3231    0.2030 N.am    1  UNL1       -0.3260
      4 C          -0.6896   -0.4660    0.5719 C.3     1  UNL1        0.0147
      5 C          -1.5490   -0.1028   -0.6177 C.3     1  UNL1       -0.0121
      6 C          -3.0051   -0.2322   -0.2729 C.ar    1  UNL1       -0.0459
      7 C          -3.6364   -1.4245   -0.5080 C.ar    1  UNL1       -0.0585
      8 C          -4.9722   -1.5593   -0.1925 C.ar    1  UNL1       -0.0615
      9 C          -5.6281   -0.5015    0.3455 C.ar    1  UNL1       -0.0617
     10 C          -5.0144    0.7268    0.5984 C.ar    1  UNL1       -0.0615
     11 C          -3.6831    0.8449    0.2781 C.ar    1  UNL1       -0.0585
     12 N           2.6598   -1.0699   -1.0924 N.am    1  UNL1       -0.2946
     13 C           3.4283   -0.0302   -0.5139 C.ar    1  UNL1        0.0697
     14 C           3.3284    1.2539   -0.9953 C.ar    1  UNL1        0.0635
     15 CL          2.2167    1.5825   -2.2996 Cl      1  UNL1       -0.0816
     16 C           4.0970    2.2868   -0.4571 C.ar    1  UNL1       -0.0415
     17 C           4.9639    1.9906    0.5744 C.ar    1  UNL1       -0.0589
     18 C           5.0815    0.7136    1.0741 C.ar    1  UNL1       -0.0415
     19 C           4.3197   -0.3038    0.5388 C.ar    1  UNL1        0.0635
     20 CL          4.4102   -1.9569    1.1123 Cl      1  UNL1       -0.0816
     21 H           1.2264    0.4676    0.6520 H       1  UNL1        0.1477
     22 H          -0.8539   -1.5252    0.8762 H       1  UNL1        0.0465
     23 H          -0.9454    0.2013    1.4475 H       1  UNL1        0.0465
     24 H          -1.3702    0.9751   -0.8622 H       1  UNL1        0.0328
     25 H          -1.2987   -0.6973   -1.4917 H       1  UNL1        0.0328
     26 H          -3.1344   -2.2590   -0.9311 H       1  UNL1        0.0620
     27 H          -5.4922   -2.5048   -0.3760 H       1  UNL1        0.0618
     28 H          -6.6705   -0.5775    0.6024 H       1  UNL1        0.0618
     29 H          -5.5441    1.5592    1.0255 H       1  UNL1        0.0618
     30 H          -3.1365    1.7710    0.4454 H       1  UNL1        0.0620
     31 H           3.1149   -1.7117   -1.7808 H       1  UNL1        0.1539
     32 H           3.9830    3.2943   -0.8723 H       1  UNL1        0.0633
     33 H           5.5790    2.7693    1.0152 H       1  UNL1        0.0618
     34 H           5.7538    0.4426    1.8851 H       1  UNL1        0.0633
@<TRIPOS>BOND
     1     1     2    2
     2     2     3    1
     3     3     4    1
     4     4     5    1
     5     5     6    1
     6     6     7   ar
     7     7     8   ar
     8     8     9   ar
     9     9    10   ar
    10    10    11   ar
    11     2    12    1
    12    12    13    1
    13    13    14   ar
    14    14    15    1
    15    14    16   ar
    16    16    17   ar
    17    17    18   ar
    18    18    19   ar
    19    19    20    1
    20    11     6   ar
    21    19    13   ar
    22     3    21    1
    23     4    22    1
    24     4    23    1
    25     5    24    1
    26     5    25    1
    27     7    26    1
    28     8    27    1
    29     9    28    1
    30    10    29    1
    31    11    30    1
    32    12    31    1
    33    16    32    1
    34    17    33    1
    35    18    34    1
