
     RDKit          3D

 29 31  0  0  0  0  0  0  0  0999 V2000
    5.2677    0.1244   -1.9127 O   0  0  0  0  0  0  0  0  0  0  0  0
    4.5338   -0.0766   -0.6671 B   0  0  0  0  0  0  0  0  0  0  0  0
    5.0403    0.0542    0.7023 O   0  0  0  0  0  0  0  0  0  0  0  0
    4.1095   -0.7112    1.4289 C   0  0  0  0  0  0  0  0  0  0  0  0
    2.7940   -0.4507    0.8046 C   0  0  0  0  0  0  0  0  0  0  0  0
    2.9647   -0.0462   -0.5157 C   0  0  0  0  0  0  0  0  0  0  0  0
    1.9164    0.2668   -1.3502 C   0  0  0  0  0  0  0  0  0  0  0  0
    0.6090    0.1770   -0.8560 C   0  0  0  0  0  0  0  0  0  0  0  0
    0.4168   -0.2273    0.4671 C   0  0  0  0  0  0  0  0  0  0  0  0
   -0.8209   -0.3435    1.0349 O   0  0  0  0  0  0  0  0  0  0  0  0
   -2.0503   -0.1201    0.5155 C   0  0  0  0  0  0  0  0  0  0  0  0
   -2.8151   -1.0631   -0.1204 C   0  0  0  0  0  0  0  0  0  0  0  0
   -4.0877   -0.8534   -0.6643 C   0  0  0  0  0  0  0  0  0  0  0  0
   -4.5781    0.4305   -0.5258 C   0  0  0  0  0  0  0  0  0  0  0  0
   -3.8851    1.4489    0.0979 C   0  0  0  0  0  0  0  0  0  0  0  0
   -2.6513    1.1371    0.5937 C   0  0  0  0  0  0  0  0  0  0  0  0
   -5.8961    0.7329   -1.0645 C   0  0  0  0  0  0  0  0  0  0  0  0
   -6.9530    0.9693   -1.5169 N   0  0  0  0  0  0  0  0  0  0  0  0
    1.5054   -0.5389    1.2909 C   0  0  0  0  0  0  0  0  0  0  0  0
    6.1476    0.5323   -1.6681 H   0  0  0  0  0  0  0  0  0  0  0  0
    4.1198   -0.4747    2.5075 H   0  0  0  0  0  0  0  0  0  0  0  0
    4.4352   -1.7679    1.2703 H   0  0  0  0  0  0  0  0  0  0  0  0
    2.1251    0.5755   -2.3703 H   0  0  0  0  0  0  0  0  0  0  0  0
   -0.2254    0.4119   -1.4746 H   0  0  0  0  0  0  0  0  0  0  0  0
   -2.3882   -2.0650   -0.2075 H   0  0  0  0  0  0  0  0  0  0  0  0
   -4.6072   -1.6544   -1.1427 H   0  0  0  0  0  0  0  0  0  0  0  0
   -4.2917    2.4479    0.1937 H   0  0  0  0  0  0  0  0  0  0  0  0
   -2.0831    1.9355    1.0945 H   0  0  0  0  0  0  0  0  0  0  0  0
    1.3481   -0.8509    2.3134 H   0  0  0  0  0  0  0  0  0  0  0  0
  1  2  1  0
  2  3  1  0
  3  4  1  0
  4  5  1  0
  5  6  2  0
  6  7  1  0
  7  8  2  0
  8  9  1  0
  9 10  1  0
 10 11  1  0
 11 12  2  0
 12 13  1  0
 13 14  2  0
 14 15  1  0
 15 16  2  0
 14 17  1  0
 17 18  3  0
  9 19  2  0
  6  2  1  0
 16 11  1  0
 19  5  1  0
  1 20  1  0
  4 21  1  0
  4 22  1  0
  7 23  1  0
  8 24  1  0
 12 25  1  0
 13 26  1  0
 15 27  1  0
 16 28  1  0
 19 29  1  0
M  END
$$$$
