@<TRIPOS>MOLECULE
*****
 37 40 0 0 0
SMALL
GASTEIGER

@<TRIPOS>ATOM
      1 F          -3.2026   -4.5117   -0.6556 F       1  UNL1       -0.2055
      2 C          -2.8559   -3.2368   -0.4319 C.ar    1  UNL1        0.1234
      3 C          -2.1239   -2.5409   -1.3957 C.ar    1  UNL1       -0.0258
      4 C          -1.7770   -1.2314   -1.1514 C.ar    1  UNL1       -0.0498
      5 C          -2.1323   -0.5862    0.0214 C.ar    1  UNL1        0.0026
      6 C          -1.7272    0.7921    0.2079 C.ar    1  UNL1        0.0967
      7 N          -2.4705    1.8938    0.3928 N.ar    1  UNL1       -0.2351
      8 C          -1.6702    2.9642    0.5275 C.ar    1  UNL1        0.0972
      9 N          -0.3637    2.5204    0.4221 N.ar    1  UNL1       -0.3242
     10 C           0.7817    3.3970    0.4925 C.3     1  UNL1        0.0852
     11 C           1.1199    4.0718   -0.7874 C.3     1  UNL1        0.2569
     12 F           1.4187    3.2296   -1.8035 F       1  UNL1       -0.2073
     13 F           0.0406    4.8902   -1.1596 F       1  UNL1       -0.2073
     14 C          -0.3873    1.2088    0.2298 C.ar    1  UNL1        0.0767
     15 C           0.6999    0.2510    0.1030 C.ar    1  UNL1        0.0056
     16 C           1.4579    0.0499   -1.0236 C.ar    1  UNL1       -0.0342
     17 C           2.4681   -0.8655   -1.1372 C.ar    1  UNL1        0.0321
     18 N           2.7602   -1.6384   -0.0808 N.ar    1  UNL1       -0.2204
     19 N           3.6755   -2.5961    0.0768 N.ar    1  UNL1       -0.1536
     20 C           3.5551   -3.0659    1.3190 C.ar    1  UNL1        0.1390
     21 N           2.5648   -2.3926    1.9191 N.ar    1  UNL1       -0.2149
     22 C           2.0525   -1.4899    1.0548 C.ar    1  UNL1        0.1563
     23 C           1.0356   -0.5744    1.1816 C.ar    1  UNL1       -0.0082
     24 C          -2.8525   -1.3142    0.9385 C.ar    1  UNL1       -0.0498
     25 C          -3.2309   -2.6240    0.7555 C.ar    1  UNL1       -0.0258
     26 H          -1.8601   -3.0620   -2.2989 H       1  UNL1        0.0646
     27 H          -1.2126   -0.6747   -1.8817 H       1  UNL1        0.0625
     28 H          -1.9612    3.9966    0.6920 H       1  UNL1        0.1029
     29 H           1.6356    2.8898    0.9779 H       1  UNL1        0.0548
     30 H           0.5088    4.2250    1.2159 H       1  UNL1        0.0548
     31 H           2.0209    4.7149   -0.6027 H       1  UNL1        0.1037
     32 H           1.2433    0.6411   -1.8996 H       1  UNL1        0.0639
     33 H           3.0534   -0.9976   -2.0500 H       1  UNL1        0.0831
     34 H           4.1795   -3.8712    1.7431 H       1  UNL1        0.1066
     35 H           0.4801   -0.4732    2.1044 H       1  UNL1        0.0661
     36 H          -3.1335   -0.8210    1.8553 H       1  UNL1        0.0625
     37 H          -3.7910   -3.1683    1.4892 H       1  UNL1        0.0646
@<TRIPOS>BOND
     1     1     2    1
     2     2     3   ar
     3     3     4   ar
     4     4     5   ar
     5     5     6    1
     6     6     7   ar
     7     7     8   ar
     8     8     9   ar
     9     9    10    1
    10    10    11    1
    11    11    12    1
    12    11    13    1
    13     9    14   ar
    14    14    15    1
    15    15    16   ar
    16    16    17   ar
    17    17    18   ar
    18    18    19   ar
    19    19    20   ar
    20    20    21   ar
    21    21    22   ar
    22    22    23   ar
    23     5    24   ar
    24    24    25   ar
    25    25     2   ar
    26    14     6   ar
    27    23    15   ar
    28    22    18   ar
    29     3    26    1
    30     4    27    1
    31     8    28    1
    32    10    29    1
    33    10    30    1
    34    11    31    1
    35    16    32    1
    36    17    33    1
    37    20    34    1
    38    23    35    1
    39    24    36    1
    40    25    37    1
