
     RDKit          3D

 37 40  0  0  0  0  0  0  0  0999 V2000
   -3.2026   -4.5117   -0.6556 F   0  0  0  0  0  0  0  0  0  0  0  0
   -2.8559   -3.2368   -0.4319 C   0  0  0  0  0  0  0  0  0  0  0  0
   -2.1239   -2.5409   -1.3957 C   0  0  0  0  0  0  0  0  0  0  0  0
   -1.7770   -1.2314   -1.1514 C   0  0  0  0  0  0  0  0  0  0  0  0
   -2.1323   -0.5862    0.0214 C   0  0  0  0  0  0  0  0  0  0  0  0
   -1.7272    0.7921    0.2079 C   0  0  0  0  0  0  0  0  0  0  0  0
   -2.4705    1.8938    0.3928 N   0  0  0  0  0  0  0  0  0  0  0  0
   -1.6702    2.9642    0.5275 C   0  0  0  0  0  0  0  0  0  0  0  0
   -0.3637    2.5204    0.4221 N   0  0  0  0  0  0  0  0  0  0  0  0
    0.7817    3.3970    0.4925 C   0  0  0  0  0  0  0  0  0  0  0  0
    1.1199    4.0718   -0.7874 C   0  0  0  0  0  0  0  0  0  0  0  0
    1.4187    3.2296   -1.8035 F   0  0  0  0  0  0  0  0  0  0  0  0
    0.0406    4.8902   -1.1596 F   0  0  0  0  0  0  0  0  0  0  0  0
   -0.3873    1.2088    0.2298 C   0  0  0  0  0  0  0  0  0  0  0  0
    0.6999    0.2510    0.1030 C   0  0  0  0  0  0  0  0  0  0  0  0
    1.4579    0.0499   -1.0236 C   0  0  0  0  0  0  0  0  0  0  0  0
    2.4681   -0.8655   -1.1372 C   0  0  0  0  0  0  0  0  0  0  0  0
    2.7602   -1.6384   -0.0808 N   0  0  0  0  0  0  0  0  0  0  0  0
    3.6755   -2.5961    0.0768 N   0  0  0  0  0  0  0  0  0  0  0  0
    3.5551   -3.0659    1.3190 C   0  0  0  0  0  0  0  0  0  0  0  0
    2.5648   -2.3926    1.9191 N   0  0  0  0  0  0  0  0  0  0  0  0
    2.0525   -1.4899    1.0548 C   0  0  0  0  0  0  0  0  0  0  0  0
    1.0356   -0.5744    1.1816 C   0  0  0  0  0  0  0  0  0  0  0  0
   -2.8525   -1.3142    0.9385 C   0  0  0  0  0  0  0  0  0  0  0  0
   -3.2309   -2.6240    0.7555 C   0  0  0  0  0  0  0  0  0  0  0  0
   -1.8601   -3.0620   -2.2989 H   0  0  0  0  0  0  0  0  0  0  0  0
   -1.2126   -0.6747   -1.8817 H   0  0  0  0  0  0  0  0  0  0  0  0
   -1.9612    3.9966    0.6920 H   0  0  0  0  0  0  0  0  0  0  0  0
    1.6356    2.8898    0.9779 H   0  0  0  0  0  0  0  0  0  0  0  0
    0.5088    4.2250    1.2159 H   0  0  0  0  0  0  0  0  0  0  0  0
    2.0209    4.7149   -0.6027 H   0  0  0  0  0  0  0  0  0  0  0  0
    1.2433    0.6411   -1.8996 H   0  0  0  0  0  0  0  0  0  0  0  0
    3.0534   -0.9976   -2.0500 H   0  0  0  0  0  0  0  0  0  0  0  0
    4.1795   -3.8712    1.7431 H   0  0  0  0  0  0  0  0  0  0  0  0
    0.4801   -0.4732    2.1044 H   0  0  0  0  0  0  0  0  0  0  0  0
   -3.1335   -0.8210    1.8553 H   0  0  0  0  0  0  0  0  0  0  0  0
   -3.7910   -3.1683    1.4892 H   0  0  0  0  0  0  0  0  0  0  0  0
  1  2  1  0
  2  3  2  0
  3  4  1  0
  4  5  2  0
  5  6  1  0
  6  7  1  0
  7  8  2  0
  8  9  1  0
  9 10  1  0
 10 11  1  0
 11 12  1  0
 11 13  1  0
  9 14  1  0
 14 15  1  0
 15 16  1  0
 16 17  2  0
 17 18  1  0
 18 19  1  0
 19 20  2  0
 20 21  1  0
 21 22  2  0
 22 23  1  0
  5 24  1  0
 24 25  2  0
 25  2  1  0
 14  6  2  0
 23 15  2  0
 22 18  1  0
  3 26  1  0
  4 27  1  0
  8 28  1  0
 10 29  1  0
 10 30  1  0
 11 31  1  0
 16 32  1  0
 17 33  1  0
 20 34  1  0
 23 35  1  0
 24 36  1  0
 25 37  1  0
M  END
$$$$
