@<TRIPOS>MOLECULE
*****
 74 77 0 0 0
SMALL
GASTEIGER

@<TRIPOS>ATOM
      1 C          -5.1334   -1.6082   -2.3509 C.3     1  UNL1       -0.0652
      2 C          -4.1237   -0.5160   -2.2790 C.3     1  UNL1       -0.0545
      3 C          -2.7037   -0.9174   -2.2741 C.3     1  UNL1       -0.0374
      4 C          -2.3063   -1.7126   -1.0829 C.3     1  UNL1        0.0158
      5 N          -2.3833   -1.0693    0.1989 N.am    1  UNL1       -0.2856
      6 C          -3.5340   -1.1908    1.0197 C.2     1  UNL1        0.2367
      7 O          -4.4640   -1.9425    0.6455 O.2     1  UNL1       -0.2735
      8 C          -3.7085   -0.5028    2.2784 C.3     1  UNL1        0.0999
      9 C          -4.3441    0.7930    2.4138 C.3     1  UNL1       -0.0236
     10 C          -5.7260    1.0716    2.0469 C.3     1  UNL1       -0.0446
     11 C          -6.2047    0.9063    0.6613 C.3     1  UNL1       -0.0626
     12 C          -6.1020    2.5208    2.4410 C.3     1  UNL1       -0.0626
     13 N          -2.3817   -0.4092    2.9331 N.am    1  UNL1       -0.3022
     14 C          -1.1870   -0.3922    2.1755 C.2     1  UNL1        0.2374
     15 O          -0.1069   -0.4855    2.7818 O.2     1  UNL1       -0.2734
     16 C          -1.2284   -0.2669    0.7008 C.3     1  UNL1        0.1156
     17 C          -1.3656    1.1771    0.3669 C.3     1  UNL1       -0.0100
     18 C          -0.3482    1.7662   -0.5270 C.3     1  UNL1        0.0016
     19 N           1.0024    1.3471   -0.3577 N.3     1  UNL1       -0.2980
     20 C           1.6708    1.4946   -1.6200 C.3     1  UNL1        0.0240
     21 C           3.0757    1.1152   -1.6732 C.ar    1  UNL1       -0.0331
     22 C           3.5501   -0.1018   -2.0912 C.ar    1  UNL1       -0.0539
     23 C           4.9137   -0.3924   -2.1008 C.ar    1  UNL1       -0.0190
     24 C           5.8381    0.5348   -1.6900 C.ar    1  UNL1        0.1285
     25 O           7.2122    0.2840   -1.6840 O.3     1  UNL1       -0.4560
     26 C           7.7732   -0.2620   -0.5275 C.ar    1  UNL1        0.1284
     27 C           8.2279    0.6203    0.4315 C.ar    1  UNL1       -0.0193
     28 C           8.7955    0.1610    1.6030 C.ar    1  UNL1       -0.0583
     29 C           8.8939   -1.2085    1.7848 C.ar    1  UNL1       -0.0615
     30 C           8.4383   -2.1041    0.8236 C.ar    1  UNL1       -0.0583
     31 C           7.8723   -1.6375   -0.3444 C.ar    1  UNL1       -0.0193
     32 C           5.3832    1.7705   -1.2642 C.ar    1  UNL1       -0.0190
     33 C           4.0333    2.0492   -1.2578 C.ar    1  UNL1       -0.0539
     34 C           1.2341    0.0927    0.2416 C.3     1  UNL1        0.0016
     35 C          -0.0034   -0.7825    0.0062 C.3     1  UNL1       -0.0100
     36 H          -4.8191   -2.5911   -1.9966 H       1  UNL1        0.0230
     37 H          -5.4945   -1.7408   -3.3953 H       1  UNL1        0.0230
     38 H          -6.0027   -1.3178   -1.6977 H       1  UNL1        0.0230
     39 H          -4.3647    0.1841   -1.4367 H       1  UNL1        0.0263
     40 H          -4.2795    0.1252   -3.2029 H       1  UNL1        0.0263
     41 H          -2.0399   -0.0358   -2.4562 H       1  UNL1        0.0280
     42 H          -2.5251   -1.5736   -3.1717 H       1  UNL1        0.0280
     43 H          -1.3216   -2.2391   -1.2269 H       1  UNL1        0.0465
     44 H          -3.0101   -2.6177   -1.1048 H       1  UNL1        0.0465
     45 H          -4.2562   -1.1887    3.0339 H       1  UNL1        0.0595
     46 H          -4.2548    1.0569    3.5280 H       1  UNL1        0.0290
     47 H          -3.7154    1.6538    1.9840 H       1  UNL1        0.0290
     48 H          -6.4600    0.4751    2.6885 H       1  UNL1        0.0296
     49 H          -6.3835   -0.1094    0.3284 H       1  UNL1        0.0232
     50 H          -5.6810    1.5703   -0.0767 H       1  UNL1        0.0232
     51 H          -7.2533    1.3713    0.6559 H       1  UNL1        0.0232
     52 H          -5.3969    3.2166    1.9678 H       1  UNL1        0.0232
     53 H          -7.1566    2.7024    2.2128 H       1  UNL1        0.0232
     54 H          -5.9157    2.5531    3.5425 H       1  UNL1        0.0232
     55 H          -2.2963   -0.3521    3.9781 H       1  UNL1        0.1495
     56 H          -1.4306    1.8261    1.2918 H       1  UNL1        0.0303
     57 H          -2.3657    1.3112   -0.1151 H       1  UNL1        0.0303
     58 H          -0.6641    1.7135   -1.6132 H       1  UNL1        0.0427
     59 H          -0.3407    2.8859   -0.3462 H       1  UNL1        0.0427
     60 H           1.1275    0.9019   -2.4029 H       1  UNL1        0.0476
     61 H           1.6074    2.5483   -2.0058 H       1  UNL1        0.0476
     62 H           2.8201   -0.8376   -2.4255 H       1  UNL1        0.0622
     63 H           5.2371   -1.3667   -2.4394 H       1  UNL1        0.0654
     64 H           8.1333    1.6876    0.2533 H       1  UNL1        0.0654
     65 H           9.1422    0.8758    2.3361 H       1  UNL1        0.0619
     66 H           9.3332   -1.5838    2.6908 H       1  UNL1        0.0618
     67 H           8.5312   -3.1625    0.9989 H       1  UNL1        0.0619
     68 H           7.5062   -2.3140   -1.1163 H       1  UNL1        0.0654
     69 H           6.1314    2.4921   -0.9430 H       1  UNL1        0.0654
     70 H           3.6913    3.0170   -0.9231 H       1  UNL1        0.0622
     71 H           1.5227    0.1382    1.3138 H       1  UNL1        0.0427
     72 H           2.0566   -0.4881   -0.2253 H       1  UNL1        0.0427
     73 H           0.2054   -1.8391    0.1842 H       1  UNL1        0.0303
     74 H          -0.1772   -0.5957   -1.0973 H       1  UNL1        0.0303
@<TRIPOS>BOND
     1     1     2    1
     2     2     3    1
     3     3     4    1
     4     4     5    1
     5     5     6   am
     6     6     7    2
     7     6     8    1
     8     8     9    1
     9     9    10    1
    10    10    11    1
    11    10    12    1
    12     8    13    1
    13    13    14   am
    14    14    15    2
    15    14    16    1
    16    16    17    1
    17    17    18    1
    18    18    19    1
    19    19    20    1
    20    20    21    1
    21    21    22   ar
    22    22    23   ar
    23    23    24   ar
    24    24    25    1
    25    25    26    1
    26    26    27   ar
    27    27    28   ar
    28    28    29   ar
    29    29    30   ar
    30    30    31   ar
    31    24    32   ar
    32    32    33   ar
    33    19    34    1
    34    34    35    1
    35    16     5    1
    36    33    21   ar
    37    35    16    1
    38    31    26   ar
    39     1    36    1
    40     1    37    1
    41     1    38    1
    42     2    39    1
    43     2    40    1
    44     3    41    1
    45     3    42    1
    46     4    43    1
    47     4    44    1
    48     8    45    1
    49     9    46    1
    50     9    47    1
    51    10    48    1
    52    11    49    1
    53    11    50    1
    54    11    51    1
    55    12    52    1
    56    12    53    1
    57    12    54    1
    58    13    55    1
    59    17    56    1
    60    17    57    1
    61    18    58    1
    62    18    59    1
    63    20    60    1
    64    20    61    1
    65    22    62    1
    66    23    63    1
    67    27    64    1
    68    28    65    1
    69    29    66    1
    70    30    67    1
    71    31    68    1
    72    32    69    1
    73    33    70    1
    74    34    71    1
    75    34    72    1
    76    35    73    1
    77    35    74    1
