@<TRIPOS>MOLECULE
*****
 53 56 0 0 0
SMALL
GASTEIGER

@<TRIPOS>ATOM
      1 O          -8.4487    1.0443   -0.0371 O.2     1  UNL1       -0.2510
      2 C          -7.7227    1.9451   -0.5350 C.2     1  UNL1        0.3052
      3 O          -7.3419    3.0319    0.2722 O.3     1  UNL1       -0.4806
      4 C          -7.2631    1.8783   -1.9498 C.3     1  UNL1        0.0530
      5 C          -6.5336    0.5894   -2.2156 C.3     1  UNL1        0.0343
      6 C          -5.3439    0.5604   -1.2877 C.2     1  UNL1        0.2177
      7 O          -5.1807    1.4825   -0.4671 O.2     1  UNL1       -0.2755
      8 N          -4.4377   -0.5120   -1.3683 N.am    1  UNL1       -0.2855
      9 C          -3.2683   -0.6883   -0.5675 C.ar    1  UNL1        0.0334
     10 C          -2.4530   -1.7845   -0.8504 C.ar    1  UNL1       -0.0399
     11 C          -1.3185   -2.0215   -0.1221 C.ar    1  UNL1       -0.0521
     12 C          -0.9130   -1.2183    0.9123 C.ar    1  UNL1       -0.0137
     13 C           0.3041   -1.5190    1.6429 C.ar    1  UNL1        0.0312
     14 C           0.2956   -2.3296    2.7585 C.ar    1  UNL1        0.1251
     15 O          -0.9224   -2.8458    3.1749 O.3     1  UNL1       -0.5061
     16 C           1.4244   -2.6474    3.4734 C.ar    1  UNL1       -0.0190
     17 C           2.6285   -2.1318    3.0561 C.ar    1  UNL1       -0.0505
     18 C           2.6682   -1.3181    1.9441 C.ar    1  UNL1       -0.0165
     19 C           3.8573   -0.7712    1.4815 C.ar    1  UNL1       -0.0463
     20 C           3.9450    0.0453    0.3787 C.ar    1  UNL1       -0.0172
     21 C           5.2317    0.5900   -0.0801 C.ar    1  UNL1       -0.0144
     22 C           6.2740    0.8874    0.7767 C.ar    1  UNL1       -0.0538
     23 C           7.4803    1.3973    0.3714 C.ar    1  UNL1       -0.0577
     24 C           7.6947    1.6382   -0.9680 C.ar    1  UNL1       -0.0201
     25 C           6.6735    1.3527   -1.8512 C.ar    1  UNL1        0.1174
     26 O           6.8796    1.5954   -3.2158 O.3     1  UNL1       -0.5067
     27 C           5.4678    0.8404   -1.4255 C.ar    1  UNL1       -0.0125
     28 C           2.7885    0.3373   -0.3048 C.ar    1  UNL1       -0.0534
     29 C           1.5639   -0.1837    0.1139 C.ar    1  UNL1       -0.0528
     30 C           1.5392   -0.9964    1.2256 C.ar    1  UNL1       -0.0067
     31 C          -1.7049   -0.1373    1.2026 C.ar    1  UNL1       -0.0521
     32 C          -2.8721    0.1095    0.4544 C.ar    1  UNL1       -0.0399
     33 H          -7.1633    2.8383    1.2593 H       1  UNL1        0.2951
     34 H          -8.1571    1.9964   -2.5720 H       1  UNL1        0.0382
     35 H          -6.5986    2.7437   -2.1911 H       1  UNL1        0.0382
     36 H          -7.1483   -0.2977   -2.0598 H       1  UNL1        0.0364
     37 H          -6.1462    0.6204   -3.2542 H       1  UNL1        0.0364
     38 H          -4.6762   -1.2465   -2.1047 H       1  UNL1        0.1548
     39 H          -2.7240   -2.4352   -1.6429 H       1  UNL1        0.0636
     40 H          -0.6757   -2.8810   -0.3432 H       1  UNL1        0.0624
     41 H          -1.3980   -2.4096    3.9847 H       1  UNL1        0.2922
     42 H           1.3475   -3.2992    4.3574 H       1  UNL1        0.0654
     43 H           3.5108   -2.3785    3.6106 H       1  UNL1        0.0625
     44 H           4.7559   -1.0136    2.0340 H       1  UNL1        0.0630
     45 H           6.1228    0.7018    1.8347 H       1  UNL1        0.0624
     46 H           8.3024    1.6298    1.0471 H       1  UNL1        0.0619
     47 H           8.6323    2.0414   -1.3337 H       1  UNL1        0.0654
     48 H           7.7457    1.9999   -3.5422 H       1  UNL1        0.2921
     49 H           4.6832    0.6270   -2.1138 H       1  UNL1        0.0660
     50 H           2.8254    0.9782   -1.1770 H       1  UNL1        0.0624
     51 H           0.6653    0.0581   -0.4378 H       1  UNL1        0.0624
     52 H          -1.4508    0.5441    2.0052 H       1  UNL1        0.0624
     53 H          -3.4450    0.9618    0.7340 H       1  UNL1        0.0636
@<TRIPOS>BOND
     1     1     2    2
     2     2     3    1
     3     2     4    1
     4     4     5    1
     5     5     6    1
     6     6     7    2
     7     6     8   am
     8     8     9    1
     9     9    10   ar
    10    10    11   ar
    11    11    12   ar
    12    12    13    1
    13    13    14   ar
    14    14    15    1
    15    14    16   ar
    16    16    17   ar
    17    17    18   ar
    18    18    19   ar
    19    19    20   ar
    20    20    21    1
    21    21    22   ar
    22    22    23   ar
    23    23    24   ar
    24    24    25   ar
    25    25    26    1
    26    25    27   ar
    27    20    28   ar
    28    28    29   ar
    29    29    30   ar
    30    12    31   ar
    31    31    32   ar
    32    32     9   ar
    33    30    13   ar
    34    30    18   ar
    35    27    21   ar
    36     3    33    1
    37     4    34    1
    38     4    35    1
    39     5    36    1
    40     5    37    1
    41     8    38    1
    42    10    39    1
    43    11    40    1
    44    15    41    1
    45    16    42    1
    46    17    43    1
    47    19    44    1
    48    22    45    1
    49    23    46    1
    50    24    47    1
    51    26    48    1
    52    27    49    1
    53    28    50    1
    54    29    51    1
    55    31    52    1
    56    32    53    1
