@<TRIPOS>MOLECULE
*****
 28 29 0 0 0
SMALL
GASTEIGER

@<TRIPOS>ATOM
      1 N           3.9202    0.4400   -1.0418 N.3     1  UNL1       -0.2035
      2 S           2.8615    1.2738    0.0385 S.O2    1  UNL1        0.0566
      3 O           2.6060    2.6897   -0.4585 O.2     1  UNL1       -0.1532
      4 O           3.5567    1.4486    1.3620 O.2     1  UNL1       -0.1532
      5 C           1.3146    0.4937    0.1814 C.ar    1  UNL1        0.1186
      6 C           0.1206    1.1396   -0.1585 C.ar    1  UNL1       -0.0066
      7 C          -1.1386    0.5834   -0.0707 C.ar    1  UNL1        0.1279
      8 C          -1.2472   -0.7152    0.3880 C.ar    1  UNL1        0.0554
      9 N          -2.4995   -1.3272    0.4967 N.pl3   1  UNL1       -0.3284
     10 C          -3.7114   -0.7339    0.0531 C.3     1  UNL1        0.0798
     11 N          -3.8633    0.6700    0.2542 N.3     1  UNL1       -0.1728
     12 S          -2.5502    1.5139   -0.5329 S.O2    1  UNL1        0.0616
     13 O          -2.4764    2.9407   -0.1275 O.2     1  UNL1       -0.1529
     14 O          -2.7314    1.3073   -2.0085 O.2     1  UNL1       -0.1529
     15 C          -0.0783   -1.3655    0.7274 C.ar    1  UNL1       -0.0254
     16 C           1.2088   -0.8207    0.6461 C.ar    1  UNL1        0.0829
     17 C           2.4083   -1.5913    1.0315 C.3     1  UNL1        0.4193
     18 F           3.1289   -1.0099    2.0584 F       1  UNL1       -0.1658
     19 F           3.2270   -1.8983   -0.0484 F       1  UNL1       -0.1658
     20 F           1.9739   -2.8049    1.5316 F       1  UNL1       -0.1658
     21 H           4.9195    0.5661   -0.6996 H       1  UNL1        0.1442
     22 H           3.8025    0.9079   -1.9804 H       1  UNL1        0.1442
     23 H           0.1771    2.1722   -0.5260 H       1  UNL1        0.0657
     24 H          -2.4949   -2.2905    0.9430 H       1  UNL1        0.1474
     25 H          -3.9096   -0.9258   -1.0367 H       1  UNL1        0.0644
     26 H          -4.5598   -1.2269    0.6068 H       1  UNL1        0.0644
     27 H          -3.8093    0.9568    1.2570 H       1  UNL1        0.1498
     28 H          -0.1557   -2.3936    1.0914 H       1  UNL1        0.0643
@<TRIPOS>BOND
     1     1     2    1
     2     2     3    2
     3     2     4    2
     4     2     5    1
     5     5     6   ar
     6     6     7   ar
     7     7     8   ar
     8     8     9    1
     9     9    10    1
    10    10    11    1
    11    11    12    1
    12    12    13    2
    13    12    14    2
    14     8    15   ar
    15    15    16   ar
    16    16    17    1
    17    17    18    1
    18    17    19    1
    19    17    20    1
    20    16     5   ar
    21    12     7    1
    22     1    21    1
    23     1    22    1
    24     6    23    1
    25     9    24    1
    26    10    25    1
    27    10    26    1
    28    11    27    1
    29    15    28    1
