@<TRIPOS>MOLECULE
*****
 64 68 0 0 0
SMALL
GASTEIGER

@<TRIPOS>ATOM
      1 C         -10.6559    1.3153   -1.3158 C.3     1  UNL1        0.0790
      2 O          -9.9811    0.5197   -0.3611 O.3     1  UNL1       -0.4914
      3 C          -8.5985    0.4338   -0.4435 C.ar    1  UNL1        0.1635
      4 C          -7.8811    1.0924   -1.4146 C.ar    1  UNL1        0.0098
      5 C          -6.4851    0.9792   -1.4629 C.ar    1  UNL1        0.0782
      6 N          -5.8401    1.6422   -2.4297 N.ar    1  UNL1       -0.2546
      7 C          -4.5029    1.5414   -2.4866 C.ar    1  UNL1        0.0318
      8 C          -3.7861    0.7758   -1.5778 C.ar    1  UNL1       -0.0006
      9 C          -4.4645    0.0998   -0.5883 C.ar    1  UNL1        0.1393
     10 O          -3.7829   -0.6882    0.3587 O.3     1  UNL1       -0.4524
     11 C          -2.3986   -0.7230    0.2962 C.ar    1  UNL1        0.1636
     12 C          -1.7507   -1.9139    0.0381 C.ar    1  UNL1       -0.0147
     13 C          -0.3904   -1.9576   -0.0237 C.ar    1  UNL1       -0.0368
     14 C           0.4352   -0.8360    0.1632 C.ar    1  UNL1        0.0366
     15 N           1.8446   -0.9727    0.0810 N.am    1  UNL1       -0.2812
     16 C           2.8138    0.0057    0.2345 C.2     1  UNL1        0.2553
     17 O           2.3963    1.1917    0.4845 O.2     1  UNL1       -0.2696
     18 C           4.2578   -0.1524    0.1459 C.ar    1  UNL1        0.1235
     19 C           5.0211   -1.2492   -0.1276 C.ar    1  UNL1        0.0504
     20 C           4.5503   -2.6373   -0.4278 C.3     1  UNL1       -0.0219
     21 N           6.3344   -0.8672   -0.0849 N.ar    1  UNL1       -0.2833
     22 C           7.4598   -1.7444   -0.3199 C.3     1  UNL1        0.0291
     23 N           6.4315    0.4145    0.2015 N.ar    1  UNL1       -0.2166
     24 C           7.6629    1.1228    0.3206 C.ar    1  UNL1        0.0673
     25 C           8.3091    1.6783   -0.7637 C.ar    1  UNL1       -0.0362
     26 C           9.4977    2.3623   -0.6506 C.ar    1  UNL1       -0.0598
     27 C          10.0913    2.5131    0.5974 C.ar    1  UNL1       -0.0616
     28 C           9.4587    1.9640    1.6928 C.ar    1  UNL1       -0.0598
     29 C           8.2604    1.2784    1.5535 C.ar    1  UNL1       -0.0362
     30 C           5.1893    0.8807    0.3482 C.ar    1  UNL1        0.2843
     31 O           4.9250    2.0583    0.6231 O.2     1  UNL1       -0.2650
     32 C          -0.2231    0.3270    0.4166 C.ar    1  UNL1       -0.0015
     33 C          -1.6229    0.3867    0.4833 C.ar    1  UNL1        0.1672
     34 F          -2.2276    1.5908    0.7599 F       1  UNL1       -0.2016
     35 C          -5.8323    0.2122   -0.5429 C.ar    1  UNL1        0.0463
     36 C          -6.5373   -0.4612    0.4460 C.ar    1  UNL1       -0.0036
     37 C          -7.9050   -0.3379    0.4770 C.ar    1  UNL1        0.1623
     38 O          -8.6430   -0.9906    1.4432 O.3     1  UNL1       -0.4914
     39 C          -7.9981   -1.7920    2.4097 C.3     1  UNL1        0.0790
     40 H         -10.4729    0.9153   -2.3509 H       1  UNL1        0.0660
     41 H         -10.2866    2.3785   -1.2389 H       1  UNL1        0.0660
     42 H         -11.7450    1.3523   -1.1206 H       1  UNL1        0.0660
     43 H          -8.3939    1.6897   -2.1305 H       1  UNL1        0.0677
     44 H          -3.9528    2.0607   -3.2502 H       1  UNL1        0.0831
     45 H          -2.7208    0.7316   -1.6879 H       1  UNL1        0.0670
     46 H          -2.3057   -2.8323   -0.1197 H       1  UNL1        0.0656
     47 H           0.1147   -2.8997   -0.2275 H       1  UNL1        0.0637
     48 H           2.1940   -1.9564   -0.1232 H       1  UNL1        0.1551
     49 H           3.9746   -2.6621   -1.3751 H       1  UNL1        0.0293
     50 H           5.4831   -3.2390   -0.6994 H       1  UNL1        0.0293
     51 H           4.0780   -3.1374    0.4269 H       1  UNL1        0.0293
     52 H           8.3513   -1.1267   -0.4902 H       1  UNL1        0.0472
     53 H           7.2533   -2.3755   -1.2088 H       1  UNL1        0.0472
     54 H           7.6051   -2.4627    0.5376 H       1  UNL1        0.0472
     55 H           7.8476    1.5610   -1.7337 H       1  UNL1        0.0639
     56 H          10.0181    2.8055   -1.4987 H       1  UNL1        0.0618
     57 H          11.0281    3.0521    0.6875 H       1  UNL1        0.0618
     58 H           9.9197    2.0809    2.6631 H       1  UNL1        0.0618
     59 H           7.8023    0.8632    2.4565 H       1  UNL1        0.0639
     60 H           0.2738    1.2641    0.5802 H       1  UNL1        0.0666
     61 H          -5.9732   -1.0452    1.1372 H       1  UNL1        0.0663
     62 H          -7.2674   -2.4462    1.8598 H       1  UNL1        0.0660
     63 H          -7.5335   -1.1572    3.1631 H       1  UNL1        0.0660
     64 H          -8.7240   -2.4772    2.9200 H       1  UNL1        0.0660
@<TRIPOS>BOND
     1     1     2    1
     2     2     3    1
     3     3     4   ar
     4     4     5   ar
     5     5     6   ar
     6     6     7   ar
     7     7     8   ar
     8     8     9   ar
     9     9    10    1
    10    10    11    1
    11    11    12   ar
    12    12    13   ar
    13    13    14   ar
    14    14    15    1
    15    15    16   am
    16    16    17    2
    17    16    18    1
    18    18    19   ar
    19    19    20    1
    20    19    21   ar
    21    21    22    1
    22    21    23   ar
    23    23    24    1
    24    24    25   ar
    25    25    26   ar
    26    26    27   ar
    27    27    28   ar
    28    28    29   ar
    29    23    30   ar
    30    30    31    2
    31    14    32   ar
    32    32    33   ar
    33    33    34    1
    34     9    35   ar
    35    35    36   ar
    36    36    37   ar
    37    37    38    1
    38    38    39    1
    39    37     3   ar
    40    35     5   ar
    41    33    11   ar
    42    30    18   ar
    43    29    24   ar
    44     1    40    1
    45     1    41    1
    46     1    42    1
    47     4    43    1
    48     7    44    1
    49     8    45    1
    50    12    46    1
    51    13    47    1
    52    15    48    1
    53    20    49    1
    54    20    50    1
    55    20    51    1
    56    22    52    1
    57    22    53    1
    58    22    54    1
    59    25    55    1
    60    26    56    1
    61    27    57    1
    62    28    58    1
    63    29    59    1
    64    32    60    1
    65    36    61    1
    66    39    62    1
    67    39    63    1
    68    39    64    1
