
     RDKit          3D

 64 68  0  0  0  0  0  0  0  0999 V2000
  -10.6559    1.3153   -1.3158 C   0  0  0  0  0  0  0  0  0  0  0  0
   -9.9811    0.5197   -0.3611 O   0  0  0  0  0  0  0  0  0  0  0  0
   -8.5985    0.4338   -0.4435 C   0  0  0  0  0  0  0  0  0  0  0  0
   -7.8811    1.0924   -1.4146 C   0  0  0  0  0  0  0  0  0  0  0  0
   -6.4851    0.9792   -1.4629 C   0  0  0  0  0  0  0  0  0  0  0  0
   -5.8401    1.6422   -2.4297 N   0  0  0  0  0  0  0  0  0  0  0  0
   -4.5029    1.5414   -2.4866 C   0  0  0  0  0  0  0  0  0  0  0  0
   -3.7861    0.7758   -1.5778 C   0  0  0  0  0  0  0  0  0  0  0  0
   -4.4645    0.0998   -0.5883 C   0  0  0  0  0  0  0  0  0  0  0  0
   -3.7829   -0.6882    0.3587 O   0  0  0  0  0  0  0  0  0  0  0  0
   -2.3986   -0.7230    0.2962 C   0  0  0  0  0  0  0  0  0  0  0  0
   -1.7507   -1.9139    0.0381 C   0  0  0  0  0  0  0  0  0  0  0  0
   -0.3904   -1.9576   -0.0237 C   0  0  0  0  0  0  0  0  0  0  0  0
    0.4352   -0.8360    0.1632 C   0  0  0  0  0  0  0  0  0  0  0  0
    1.8446   -0.9727    0.0810 N   0  0  0  0  0  0  0  0  0  0  0  0
    2.8138    0.0057    0.2345 C   0  0  0  0  0  0  0  0  0  0  0  0
    2.3963    1.1917    0.4845 O   0  0  0  0  0  0  0  0  0  0  0  0
    4.2578   -0.1524    0.1459 C   0  0  0  0  0  0  0  0  0  0  0  0
    5.0211   -1.2492   -0.1276 C   0  0  0  0  0  0  0  0  0  0  0  0
    4.5503   -2.6373   -0.4278 C   0  0  0  0  0  0  0  0  0  0  0  0
    6.3344   -0.8672   -0.0849 N   0  0  0  0  0  0  0  0  0  0  0  0
    7.4598   -1.7444   -0.3199 C   0  0  0  0  0  0  0  0  0  0  0  0
    6.4315    0.4145    0.2015 N   0  0  0  0  0  0  0  0  0  0  0  0
    7.6629    1.1228    0.3206 C   0  0  0  0  0  0  0  0  0  0  0  0
    8.3091    1.6783   -0.7637 C   0  0  0  0  0  0  0  0  0  0  0  0
    9.4977    2.3623   -0.6506 C   0  0  0  0  0  0  0  0  0  0  0  0
   10.0913    2.5131    0.5974 C   0  0  0  0  0  0  0  0  0  0  0  0
    9.4587    1.9640    1.6928 C   0  0  0  0  0  0  0  0  0  0  0  0
    8.2604    1.2784    1.5535 C   0  0  0  0  0  0  0  0  0  0  0  0
    5.1893    0.8807    0.3482 C   0  0  0  0  0  0  0  0  0  0  0  0
    4.9250    2.0583    0.6231 O   0  0  0  0  0  0  0  0  0  0  0  0
   -0.2231    0.3270    0.4166 C   0  0  0  0  0  0  0  0  0  0  0  0
   -1.6229    0.3867    0.4833 C   0  0  0  0  0  0  0  0  0  0  0  0
   -2.2276    1.5908    0.7599 F   0  0  0  0  0  0  0  0  0  0  0  0
   -5.8323    0.2122   -0.5429 C   0  0  0  0  0  0  0  0  0  0  0  0
   -6.5373   -0.4612    0.4460 C   0  0  0  0  0  0  0  0  0  0  0  0
   -7.9050   -0.3379    0.4770 C   0  0  0  0  0  0  0  0  0  0  0  0
   -8.6430   -0.9906    1.4432 O   0  0  0  0  0  0  0  0  0  0  0  0
   -7.9981   -1.7920    2.4097 C   0  0  0  0  0  0  0  0  0  0  0  0
  -10.4729    0.9153   -2.3509 H   0  0  0  0  0  0  0  0  0  0  0  0
  -10.2866    2.3785   -1.2389 H   0  0  0  0  0  0  0  0  0  0  0  0
  -11.7450    1.3523   -1.1206 H   0  0  0  0  0  0  0  0  0  0  0  0
   -8.3939    1.6897   -2.1305 H   0  0  0  0  0  0  0  0  0  0  0  0
   -3.9528    2.0607   -3.2502 H   0  0  0  0  0  0  0  0  0  0  0  0
   -2.7208    0.7316   -1.6879 H   0  0  0  0  0  0  0  0  0  0  0  0
   -2.3057   -2.8323   -0.1197 H   0  0  0  0  0  0  0  0  0  0  0  0
    0.1147   -2.8997   -0.2275 H   0  0  0  0  0  0  0  0  0  0  0  0
    2.1940   -1.9564   -0.1232 H   0  0  0  0  0  0  0  0  0  0  0  0
    3.9746   -2.6621   -1.3751 H   0  0  0  0  0  0  0  0  0  0  0  0
    5.4831   -3.2390   -0.6994 H   0  0  0  0  0  0  0  0  0  0  0  0
    4.0780   -3.1374    0.4269 H   0  0  0  0  0  0  0  0  0  0  0  0
    8.3513   -1.1267   -0.4902 H   0  0  0  0  0  0  0  0  0  0  0  0
    7.2533   -2.3755   -1.2088 H   0  0  0  0  0  0  0  0  0  0  0  0
    7.6051   -2.4627    0.5376 H   0  0  0  0  0  0  0  0  0  0  0  0
    7.8476    1.5610   -1.7337 H   0  0  0  0  0  0  0  0  0  0  0  0
   10.0181    2.8055   -1.4987 H   0  0  0  0  0  0  0  0  0  0  0  0
   11.0281    3.0521    0.6875 H   0  0  0  0  0  0  0  0  0  0  0  0
    9.9197    2.0809    2.6631 H   0  0  0  0  0  0  0  0  0  0  0  0
    7.8023    0.8632    2.4565 H   0  0  0  0  0  0  0  0  0  0  0  0
    0.2738    1.2641    0.5802 H   0  0  0  0  0  0  0  0  0  0  0  0
   -5.9732   -1.0452    1.1372 H   0  0  0  0  0  0  0  0  0  0  0  0
   -7.2674   -2.4462    1.8598 H   0  0  0  0  0  0  0  0  0  0  0  0
   -7.5335   -1.1572    3.1631 H   0  0  0  0  0  0  0  0  0  0  0  0
   -8.7240   -2.4772    2.9200 H   0  0  0  0  0  0  0  0  0  0  0  0
  1  2  1  0
  2  3  1  0
  3  4  2  0
  4  5  1  0
  5  6  2  0
  6  7  1  0
  7  8  2  0
  8  9  1  0
  9 10  1  0
 10 11  1  0
 11 12  2  0
 12 13  1  0
 13 14  2  0
 14 15  1  0
 15 16  1  0
 16 17  2  0
 16 18  1  0
 18 19  2  0
 19 20  1  0
 19 21  1  0
 21 22  1  0
 21 23  1  0
 23 24  1  0
 24 25  2  0
 25 26  1  0
 26 27  2  0
 27 28  1  0
 28 29  2  0
 23 30  1  0
 30 31  2  0
 14 32  1  0
 32 33  2  0
 33 34  1  0
  9 35  2  0
 35 36  1  0
 36 37  2  0
 37 38  1  0
 38 39  1  0
 37  3  1  0
 35  5  1  0
 33 11  1  0
 30 18  1  0
 29 24  1  0
  1 40  1  0
  1 41  1  0
  1 42  1  0
  4 43  1  0
  7 44  1  0
  8 45  1  0
 12 46  1  0
 13 47  1  0
 15 48  1  0
 20 49  1  0
 20 50  1  0
 20 51  1  0
 22 52  1  0
 22 53  1  0
 22 54  1  0
 25 55  1  0
 26 56  1  0
 27 57  1  0
 28 58  1  0
 29 59  1  0
 32 60  1  0
 36 61  1  0
 39 62  1  0
 39 63  1  0
 39 64  1  0
M  END
$$$$
