@<TRIPOS>MOLECULE
*****
 26 26 0 0 0
SMALL
GASTEIGER

@<TRIPOS>ATOM
      1 C          -0.6078    0.5719   -0.5528 C.3     1  UNL1        0.0065
      2 C          -1.1412    1.5513    0.4491 C.3     1  UNL1        0.0004
      3 N          -2.2493    2.3291   -0.0668 N.3     1  UNL1       -0.3294
      4 C          -1.5858   -0.4274   -1.0238 C.3     1  UNL1        0.0527
      5 C          -2.1975   -1.3183   -0.0536 C.2     1  UNL1        0.3053
      6 O          -2.4564   -1.8700    1.1865 O.3     1  UNL1       -0.4806
      7 O          -3.0167   -2.1186   -0.6184 O.2     1  UNL1       -0.2510
      8 C           0.7211    0.0715   -0.1545 C.ar    1  UNL1       -0.0425
      9 C           1.8684    0.4158   -0.8858 C.ar    1  UNL1       -0.0569
     10 C           3.1371   -0.0187   -0.5655 C.ar    1  UNL1       -0.0431
     11 C           3.2952   -0.8376    0.5336 C.ar    1  UNL1        0.0410
     12 CL          4.9395   -1.3571    0.8885 Cl      1  UNL1       -0.0835
     13 C           2.2159   -1.2074    1.2852 C.ar    1  UNL1       -0.0431
     14 C           0.9839   -0.7497    0.9245 C.ar    1  UNL1       -0.0569
     15 H          -0.3979    1.2019   -1.4710 H       1  UNL1        0.0366
     16 H          -0.3330    2.2563    0.7201 H       1  UNL1        0.0428
     17 H          -1.4935    1.0881    1.3821 H       1  UNL1        0.0428
     18 H          -2.2612    2.1915   -1.1164 H       1  UNL1        0.1182
     19 H          -2.1881    3.3339    0.1780 H       1  UNL1        0.1182
     20 H          -2.4045    0.1505   -1.5260 H       1  UNL1        0.0384
     21 H          -1.1201   -1.0293   -1.8273 H       1  UNL1        0.0384
     22 H          -1.9853   -2.6626    1.5648 H       1  UNL1        0.2951
     23 H           1.7838    1.0604   -1.7598 H       1  UNL1        0.0621
     24 H           3.9819    0.2837   -1.1716 H       1  UNL1        0.0632
     25 H           2.3648   -1.8571    2.1519 H       1  UNL1        0.0632
     26 H           0.1466   -1.0521    1.5291 H       1  UNL1        0.0621
@<TRIPOS>BOND
     1     1     2    1
     2     2     3    1
     3     1     4    1
     4     4     5    1
     5     5     6    1
     6     5     7    2
     7     1     8    1
     8     8     9   ar
     9     9    10   ar
    10    10    11   ar
    11    11    12    1
    12    11    13   ar
    13    13    14   ar
    14    14     8   ar
    15     1    15    1
    16     2    16    1
    17     2    17    1
    18     3    18    1
    19     3    19    1
    20     4    20    1
    21     4    21    1
    22     6    22    1
    23     9    23    1
    24    10    24    1
    25    13    25    1
    26    14    26    1
