
     RDKit          3D

 37 38  0  0  0  0  0  0  0  0999 V2000
   -5.9547    2.1332    0.2263 C   0  0  0  0  0  0  0  0  0  0  0  0
   -4.6795    1.5187   -0.3294 C   0  0  0  0  0  0  0  0  0  0  0  0
   -4.3218    0.2631    0.4823 C   0  0  0  0  0  0  0  0  0  0  0  0
   -3.0816   -0.3647   -0.0407 C   0  0  0  0  0  0  0  0  0  0  0  0
   -1.9417   -0.5111    0.6209 C   0  0  0  0  0  0  0  0  0  0  0  0
   -0.6953   -1.1334    0.1252 C   0  0  0  0  0  0  0  0  0  0  0  0
   -0.4141   -2.2798   -0.5759 C   0  0  0  0  0  0  0  0  0  0  0  0
    0.9556   -2.2719   -0.7193 C   0  0  0  0  0  0  0  0  0  0  0  0
    1.4608   -1.1246   -0.1047 C   0  0  0  0  0  0  0  0  0  0  0  0
    0.4355   -0.5178    0.3622 O   0  0  0  0  0  0  0  0  0  0  0  0
    2.8964   -0.8875   -0.1253 C   0  0  0  0  0  0  0  0  0  0  0  0
    3.3568    0.2798    0.4526 C   0  0  0  0  0  0  0  0  0  0  0  0
    4.7136    0.5444    0.4454 C   0  0  0  0  0  0  0  0  0  0  0  0
    5.6269   -0.3188   -0.1192 C   0  0  0  0  0  0  0  0  0  0  0  0
    5.1724   -1.4827   -0.6954 C   0  0  0  0  0  0  0  0  0  0  0  0
    3.8213   -1.7349   -0.6826 C   0  0  0  0  0  0  0  0  0  0  0  0
    5.3313    1.7423    1.0142 C   0  0  0  0  0  0  0  0  0  0  0  0
    4.8273    2.8531    1.6675 O   0  0  0  0  0  0  0  0  0  0  0  0
    6.5542    2.0278    1.0229 O   0  0  0  0  0  0  0  0  0  0  0  0
   -3.0661   -0.8728   -1.3855 N   0  0  0  0  0  4  0  0  0  0  0  0
   -3.6045   -1.8562   -2.2163 O   0  0  0  0  0  1  0  0  0  0  0  0
   -2.2776   -0.1691   -2.0604 O   0  0  0  0  0  0  0  0  0  0  0  0
   -6.6598    2.4104   -0.5785 H   0  0  0  0  0  0  0  0  0  0  0  0
   -6.4583    1.4285    0.9326 H   0  0  0  0  0  0  0  0  0  0  0  0
   -5.7244    3.0676    0.7889 H   0  0  0  0  0  0  0  0  0  0  0  0
   -3.8536    2.2658   -0.2507 H   0  0  0  0  0  0  0  0  0  0  0  0
   -4.8370    1.3044   -1.3861 H   0  0  0  0  0  0  0  0  0  0  0  0
   -4.2156    0.5397    1.5329 H   0  0  0  0  0  0  0  0  0  0  0  0
   -5.1757   -0.4488    0.3382 H   0  0  0  0  0  0  0  0  0  0  0  0
   -1.9700   -0.1204    1.6322 H   0  0  0  0  0  0  0  0  0  0  0  0
   -1.2037   -2.9469   -0.8769 H   0  0  0  0  0  0  0  0  0  0  0  0
    1.4707   -3.0756   -1.2441 H   0  0  0  0  0  0  0  0  0  0  0  0
    2.7471    1.0146    0.9147 H   0  0  0  0  0  0  0  0  0  0  0  0
    6.7114   -0.1801   -0.1651 H   0  0  0  0  0  0  0  0  0  0  0  0
    5.8232   -2.2279   -1.1683 H   0  0  0  0  0  0  0  0  0  0  0  0
    3.4501   -2.6526   -1.1353 H   0  0  0  0  0  0  0  0  0  0  0  0
    4.7802    3.7845    1.2602 H   0  0  0  0  0  0  0  0  0  0  0  0
  1  2  1  0
  2  3  1  0
  3  4  1  0
  4  5  2  0
  5  6  1  0
  6  7  2  0
  7  8  1  0
  8  9  2  0
  9 10  1  0
  9 11  1  0
 11 12  2  0
 12 13  1  0
 13 14  2  0
 14 15  1  0
 15 16  2  0
 13 17  1  0
 17 18  1  0
 17 19  2  0
  4 20  1  0
 20 21  1  0
 20 22  2  0
 10  6  1  0
 16 11  1  0
  1 23  1  0
  1 24  1  0
  1 25  1  0
  2 26  1  0
  2 27  1  0
  3 28  1  0
  3 29  1  0
  5 30  1  0
  7 31  1  0
  8 32  1  0
 12 33  1  0
 14 34  1  0
 15 35  1  0
 16 36  1  0
 18 37  1  0
M  CHG  2  20   1  21  -1
M  END
$$$$
