@<TRIPOS>MOLECULE
*****
 37 38 0 0 0
SMALL
GASTEIGER

@<TRIPOS>ATOM
      1 C          -5.9547    2.1332    0.2263 C.3     1  UNL1       -0.0648
      2 C          -4.6795    1.5187   -0.3294 C.3     1  UNL1       -0.0462
      3 C          -4.3218    0.2631    0.4823 C.3     1  UNL1        0.0382
      4 C          -3.0816   -0.3647   -0.0407 C.2     1  UNL1        0.2535
      5 C          -1.9417   -0.5111    0.6209 C.2     1  UNL1        0.0533
      6 C          -0.6953   -1.1334    0.1252 C.ar    1  UNL1        0.1347
      7 C          -0.4141   -2.2798   -0.5759 C.ar    1  UNL1       -0.0156
      8 C           0.9556   -2.2719   -0.7193 C.ar    1  UNL1       -0.0153
      9 C           1.4608   -1.1246   -0.1047 C.ar    1  UNL1        0.1357
     10 O           0.4355   -0.5178    0.3622 O.2     1  UNL1       -0.4552
     11 C           2.8964   -0.8875   -0.1253 C.ar    1  UNL1        0.0181
     12 C           3.3568    0.2798    0.4526 C.ar    1  UNL1       -0.0371
     13 C           4.7136    0.5444    0.4454 C.ar    1  UNL1        0.0595
     14 C           5.6269   -0.3188   -0.1192 C.ar    1  UNL1       -0.0477
     15 C           5.1724   -1.4827   -0.6954 C.ar    1  UNL1       -0.0603
     16 C           3.8213   -1.7349   -0.6826 C.ar    1  UNL1       -0.0510
     17 C           5.3313    1.7423    1.0142 C.2     1  UNL1        0.3368
     18 O           4.8273    2.8531    1.6675 O.3     1  UNL1       -0.4771
     19 O           6.5542    2.0278    1.0229 O.2     1  UNL1       -0.2451
     20 N          -3.0661   -0.8728   -1.3855 N.pl3   1  UNL1        0.0752
     21 O          -3.6045   -1.8562   -2.2163 O.co2   1  UNL1       -0.5763
     22 O          -2.2776   -0.1691   -2.0604 O.2     1  UNL1        0.0411
     23 H          -6.6598    2.4104   -0.5785 H       1  UNL1        0.0230
     24 H          -6.4583    1.4285    0.9326 H       1  UNL1        0.0230
     25 H          -5.7244    3.0676    0.7889 H       1  UNL1        0.0230
     26 H          -3.8536    2.2658   -0.2507 H       1  UNL1        0.0268
     27 H          -4.8370    1.3044   -1.3861 H       1  UNL1        0.0268
     28 H          -4.2156    0.5397    1.5329 H       1  UNL1        0.0374
     29 H          -5.1757   -0.4488    0.3382 H       1  UNL1        0.0374
     30 H          -1.9700   -0.1204    1.6322 H       1  UNL1        0.0719
     31 H          -1.2037   -2.9469   -0.8769 H       1  UNL1        0.0655
     32 H           1.4707   -3.0756   -1.2441 H       1  UNL1        0.0656
     33 H           2.7471    1.0146    0.9147 H       1  UNL1        0.0633
     34 H           6.7114   -0.1801   -0.1651 H       1  UNL1        0.0626
     35 H           5.8232   -2.2279   -1.1683 H       1  UNL1        0.0618
     36 H           3.4501   -2.6526   -1.1353 H       1  UNL1        0.0625
     37 H           4.7802    3.7845    1.2602 H       1  UNL1        0.2954
@<TRIPOS>UNITY_ATOM_ATTR
20 1
charge 1
21 1
charge -1
@<TRIPOS>BOND
     1     1     2    1
     2     2     3    1
     3     3     4    1
     4     4     5    2
     5     5     6    1
     6     6     7   ar
     7     7     8   ar
     8     8     9   ar
     9     9    10   ar
    10     9    11    1
    11    11    12   ar
    12    12    13   ar
    13    13    14   ar
    14    14    15   ar
    15    15    16   ar
    16    13    17    1
    17    17    18    1
    18    17    19    2
    19     4    20    1
    20    20    21    1
    21    20    22    2
    22    10     6   ar
    23    16    11   ar
    24     1    23    1
    25     1    24    1
    26     1    25    1
    27     2    26    1
    28     2    27    1
    29     3    28    1
    30     3    29    1
    31     5    30    1
    32     7    31    1
    33     8    32    1
    34    12    33    1
    35    14    34    1
    36    15    35    1
    37    16    36    1
    38    18    37    1
