@<TRIPOS>MOLECULE
*****
 59 63 0 0 0
SMALL
GASTEIGER

@<TRIPOS>ATOM
      1 C           5.2220   -3.1537   -1.3244 C.3     1  UNL1       -0.0376
      2 C           5.1245   -1.7771   -0.7372 C.ar    1  UNL1       -0.0223
      3 C           6.2643   -1.1578   -0.3271 C.ar    1  UNL1       -0.0489
      4 C           6.2484    0.1176    0.2260 C.ar    1  UNL1       -0.0127
      5 C           7.4896    0.7670    0.6617 C.ar    1  UNL1        0.0188
      6 C           8.2417    1.5544   -0.1852 C.ar    1  UNL1        0.0501
      7 CL          7.7328    1.8079   -1.8319 Cl      1  UNL1       -0.0829
      8 C           9.3999    2.1443    0.2682 C.ar    1  UNL1       -0.0427
      9 C           9.8458    1.9732    1.5670 C.ar    1  UNL1       -0.0590
     10 C           9.1053    1.1935    2.4132 C.ar    1  UNL1       -0.0427
     11 C           7.9445    0.6031    1.9564 C.ar    1  UNL1        0.0501
     12 CL          6.9841   -0.3972    3.0228 Cl      1  UNL1       -0.0829
     13 C           5.0355    0.7389    0.3468 C.ar    1  UNL1       -0.0246
     14 C           3.8836    0.1031   -0.0720 C.ar    1  UNL1        0.1125
     15 N           2.7103    0.7332    0.0575 N.ar    1  UNL1       -0.1444
     16 N           1.6309    0.1074   -0.3481 N.ar    1  UNL1       -0.1123
     17 C           1.5793   -1.1147   -0.8864 C.ar    1  UNL1        0.2398
     18 N           0.3699   -1.6946   -1.2870 N.pl3   1  UNL1       -0.2824
     19 C          -0.9146   -1.1433   -1.1309 C.ar    1  UNL1        0.0338
     20 C          -1.9988   -1.7237   -1.8243 C.ar    1  UNL1       -0.0370
     21 C          -3.2815   -1.2593   -1.7181 C.ar    1  UNL1       -0.0182
     22 C          -3.5831   -0.1845   -0.9158 C.ar    1  UNL1        0.1207
     23 O          -4.9008    0.2516   -0.8401 O.3     1  UNL1       -0.4907
     24 C          -5.9459   -0.3642   -1.5541 C.3     1  UNL1        0.1022
     25 C          -7.2574    0.3153   -1.2823 C.3     1  UNL1        0.0331
     26 N          -7.5693    0.2369    0.1082 N.3     1  UNL1       -0.2991
     27 C          -8.8478    0.8555    0.4247 C.3     1  UNL1       -0.0010
     28 C          -8.7440    1.4451    1.7973 C.3     1  UNL1       -0.0390
     29 C          -7.3208    1.2985    2.2239 C.3     1  UNL1       -0.0390
     30 C          -6.5992    0.8108    0.9821 C.3     1  UNL1       -0.0010
     31 C          -2.5643    0.4063   -0.2272 C.ar    1  UNL1       -0.0182
     32 C          -1.2493   -0.0741   -0.3393 C.ar    1  UNL1       -0.0370
     33 N           2.7606   -1.7795   -1.0299 N.ar    1  UNL1       -0.2112
     34 C           3.8813   -1.1653   -0.6243 C.ar    1  UNL1        0.0975
     35 H           4.4183   -3.8072   -0.8978 H       1  UNL1        0.0278
     36 H           5.1104   -3.0545   -2.4075 H       1  UNL1        0.0278
     37 H           6.1928   -3.6117   -1.0201 H       1  UNL1        0.0278
     38 H           7.2311   -1.6369   -0.4164 H       1  UNL1        0.0627
     39 H          10.0293    2.7752   -0.3612 H       1  UNL1        0.0632
     40 H          10.7613    2.4365    1.9344 H       1  UNL1        0.0618
     41 H           9.4567    1.0613    3.4299 H       1  UNL1        0.0632
     42 H           5.0004    1.7427    0.7794 H       1  UNL1        0.0646
     43 H           0.4445   -2.6544   -1.7559 H       1  UNL1        0.1551
     44 H          -1.7729   -2.5677   -2.4572 H       1  UNL1        0.0637
     45 H          -4.1103   -1.7312   -2.2708 H       1  UNL1        0.0655
     46 H          -6.0798   -1.4345   -1.2272 H       1  UNL1        0.0709
     47 H          -5.6979   -0.3907   -2.6358 H       1  UNL1        0.0709
     48 H          -7.2430    1.3806   -1.6498 H       1  UNL1        0.0460
     49 H          -8.0420   -0.2256   -1.8869 H       1  UNL1        0.0460
     50 H          -9.6400    0.0562    0.3735 H       1  UNL1        0.0427
     51 H          -9.0473    1.6066   -0.3603 H       1  UNL1        0.0427
     52 H          -9.0370    2.5123    1.7307 H       1  UNL1        0.0278
     53 H          -9.4509    0.9294    2.5080 H       1  UNL1        0.0278
     54 H          -6.8695    2.2483    2.5697 H       1  UNL1        0.0278
     55 H          -7.1912    0.5218    3.0244 H       1  UNL1        0.0278
     56 H          -6.0613    1.6774    0.5653 H       1  UNL1        0.0427
     57 H          -5.8582    0.0186    1.2384 H       1  UNL1        0.0427
     58 H          -2.7566    1.2524    0.4139 H       1  UNL1        0.0655
     59 H          -0.4649    0.4203    0.2372 H       1  UNL1        0.0637
@<TRIPOS>BOND
     1     1     2    1
     2     2     3   ar
     3     3     4   ar
     4     4     5    1
     5     5     6   ar
     6     6     7    1
     7     6     8   ar
     8     8     9   ar
     9     9    10   ar
    10    10    11   ar
    11    11    12    1
    12     4    13   ar
    13    13    14   ar
    14    14    15   ar
    15    15    16   ar
    16    16    17   ar
    17    17    18    1
    18    18    19    1
    19    19    20   ar
    20    20    21   ar
    21    21    22   ar
    22    22    23    1
    23    23    24    1
    24    24    25    1
    25    25    26    1
    26    26    27    1
    27    27    28    1
    28    28    29    1
    29    29    30    1
    30    22    31   ar
    31    31    32   ar
    32    17    33   ar
    33    33    34   ar
    34    34     2   ar
    35    11     5   ar
    36    34    14   ar
    37    32    19   ar
    38    30    26    1
    39     1    35    1
    40     1    36    1
    41     1    37    1
    42     3    38    1
    43     8    39    1
    44     9    40    1
    45    10    41    1
    46    13    42    1
    47    18    43    1
    48    20    44    1
    49    21    45    1
    50    24    46    1
    51    24    47    1
    52    25    48    1
    53    25    49    1
    54    27    50    1
    55    27    51    1
    56    28    52    1
    57    28    53    1
    58    29    54    1
    59    29    55    1
    60    30    56    1
    61    30    57    1
    62    31    58    1
    63    32    59    1
