
     RDKit          3D

 59 63  0  0  0  0  0  0  0  0999 V2000
    5.2220   -3.1537   -1.3244 C   0  0  0  0  0  0  0  0  0  0  0  0
    5.1245   -1.7771   -0.7372 C   0  0  0  0  0  0  0  0  0  0  0  0
    6.2643   -1.1578   -0.3271 C   0  0  0  0  0  0  0  0  0  0  0  0
    6.2484    0.1176    0.2260 C   0  0  0  0  0  0  0  0  0  0  0  0
    7.4896    0.7670    0.6617 C   0  0  0  0  0  0  0  0  0  0  0  0
    8.2417    1.5544   -0.1852 C   0  0  0  0  0  0  0  0  0  0  0  0
    7.7328    1.8079   -1.8319 Cl  0  0  0  0  0  0  0  0  0  0  0  0
    9.3999    2.1443    0.2682 C   0  0  0  0  0  0  0  0  0  0  0  0
    9.8458    1.9732    1.5670 C   0  0  0  0  0  0  0  0  0  0  0  0
    9.1053    1.1935    2.4132 C   0  0  0  0  0  0  0  0  0  0  0  0
    7.9445    0.6031    1.9564 C   0  0  0  0  0  0  0  0  0  0  0  0
    6.9841   -0.3972    3.0228 Cl  0  0  0  0  0  0  0  0  0  0  0  0
    5.0355    0.7389    0.3468 C   0  0  0  0  0  0  0  0  0  0  0  0
    3.8836    0.1031   -0.0720 C   0  0  0  0  0  0  0  0  0  0  0  0
    2.7103    0.7332    0.0575 N   0  0  0  0  0  0  0  0  0  0  0  0
    1.6309    0.1074   -0.3481 N   0  0  0  0  0  0  0  0  0  0  0  0
    1.5793   -1.1147   -0.8864 C   0  0  0  0  0  0  0  0  0  0  0  0
    0.3699   -1.6946   -1.2870 N   0  0  0  0  0  0  0  0  0  0  0  0
   -0.9146   -1.1433   -1.1309 C   0  0  0  0  0  0  0  0  0  0  0  0
   -1.9988   -1.7237   -1.8243 C   0  0  0  0  0  0  0  0  0  0  0  0
   -3.2815   -1.2593   -1.7181 C   0  0  0  0  0  0  0  0  0  0  0  0
   -3.5831   -0.1845   -0.9158 C   0  0  0  0  0  0  0  0  0  0  0  0
   -4.9008    0.2516   -0.8401 O   0  0  0  0  0  0  0  0  0  0  0  0
   -5.9459   -0.3642   -1.5541 C   0  0  0  0  0  0  0  0  0  0  0  0
   -7.2574    0.3153   -1.2823 C   0  0  0  0  0  0  0  0  0  0  0  0
   -7.5693    0.2369    0.1082 N   0  0  0  0  0  0  0  0  0  0  0  0
   -8.8478    0.8555    0.4247 C   0  0  0  0  0  0  0  0  0  0  0  0
   -8.7440    1.4451    1.7973 C   0  0  0  0  0  0  0  0  0  0  0  0
   -7.3208    1.2985    2.2239 C   0  0  0  0  0  0  0  0  0  0  0  0
   -6.5992    0.8108    0.9821 C   0  0  0  0  0  0  0  0  0  0  0  0
   -2.5643    0.4063   -0.2272 C   0  0  0  0  0  0  0  0  0  0  0  0
   -1.2493   -0.0741   -0.3393 C   0  0  0  0  0  0  0  0  0  0  0  0
    2.7606   -1.7795   -1.0299 N   0  0  0  0  0  0  0  0  0  0  0  0
    3.8813   -1.1653   -0.6243 C   0  0  0  0  0  0  0  0  0  0  0  0
    4.4183   -3.8072   -0.8978 H   0  0  0  0  0  0  0  0  0  0  0  0
    5.1104   -3.0545   -2.4075 H   0  0  0  0  0  0  0  0  0  0  0  0
    6.1928   -3.6117   -1.0201 H   0  0  0  0  0  0  0  0  0  0  0  0
    7.2311   -1.6369   -0.4164 H   0  0  0  0  0  0  0  0  0  0  0  0
   10.0293    2.7752   -0.3612 H   0  0  0  0  0  0  0  0  0  0  0  0
   10.7613    2.4365    1.9344 H   0  0  0  0  0  0  0  0  0  0  0  0
    9.4567    1.0613    3.4299 H   0  0  0  0  0  0  0  0  0  0  0  0
    5.0004    1.7427    0.7794 H   0  0  0  0  0  0  0  0  0  0  0  0
    0.4445   -2.6544   -1.7559 H   0  0  0  0  0  0  0  0  0  0  0  0
   -1.7729   -2.5677   -2.4572 H   0  0  0  0  0  0  0  0  0  0  0  0
   -4.1103   -1.7312   -2.2708 H   0  0  0  0  0  0  0  0  0  0  0  0
   -6.0798   -1.4345   -1.2272 H   0  0  0  0  0  0  0  0  0  0  0  0
   -5.6979   -0.3907   -2.6358 H   0  0  0  0  0  0  0  0  0  0  0  0
   -7.2430    1.3806   -1.6498 H   0  0  0  0  0  0  0  0  0  0  0  0
   -8.0420   -0.2256   -1.8869 H   0  0  0  0  0  0  0  0  0  0  0  0
   -9.6400    0.0562    0.3735 H   0  0  0  0  0  0  0  0  0  0  0  0
   -9.0473    1.6066   -0.3603 H   0  0  0  0  0  0  0  0  0  0  0  0
   -9.0370    2.5123    1.7307 H   0  0  0  0  0  0  0  0  0  0  0  0
   -9.4509    0.9294    2.5080 H   0  0  0  0  0  0  0  0  0  0  0  0
   -6.8695    2.2483    2.5697 H   0  0  0  0  0  0  0  0  0  0  0  0
   -7.1912    0.5218    3.0244 H   0  0  0  0  0  0  0  0  0  0  0  0
   -6.0613    1.6774    0.5653 H   0  0  0  0  0  0  0  0  0  0  0  0
   -5.8582    0.0186    1.2384 H   0  0  0  0  0  0  0  0  0  0  0  0
   -2.7566    1.2524    0.4139 H   0  0  0  0  0  0  0  0  0  0  0  0
   -0.4649    0.4203    0.2372 H   0  0  0  0  0  0  0  0  0  0  0  0
  1  2  1  0
  2  3  2  0
  3  4  1  0
  4  5  1  0
  5  6  2  0
  6  7  1  0
  6  8  1  0
  8  9  2  0
  9 10  1  0
 10 11  2  0
 11 12  1  0
  4 13  2  0
 13 14  1  0
 14 15  2  0
 15 16  1  0
 16 17  2  0
 17 18  1  0
 18 19  1  0
 19 20  2  0
 20 21  1  0
 21 22  2  0
 22 23  1  0
 23 24  1  0
 24 25  1  0
 25 26  1  0
 26 27  1  0
 27 28  1  0
 28 29  1  0
 29 30  1  0
 22 31  1  0
 31 32  2  0
 17 33  1  0
 33 34  2  0
 34  2  1  0
 11  5  1  0
 34 14  1  0
 32 19  1  0
 30 26  1  0
  1 35  1  0
  1 36  1  0
  1 37  1  0
  3 38  1  0
  8 39  1  0
  9 40  1  0
 10 41  1  0
 13 42  1  0
 18 43  1  0
 20 44  1  0
 21 45  1  0
 24 46  1  0
 24 47  1  0
 25 48  1  0
 25 49  1  0
 27 50  1  0
 27 51  1  0
 28 52  1  0
 28 53  1  0
 29 54  1  0
 29 55  1  0
 30 56  1  0
 30 57  1  0
 31 58  1  0
 32 59  1  0
M  END
$$$$
