@<TRIPOS>MOLECULE
*****
 57 60 0 0 0
SMALL
GASTEIGER

@<TRIPOS>ATOM
      1 C           0.4249    1.8675    2.0453 C.3     1  UNL1       -0.0421
      2 C           0.5485    1.6871    0.5177 C.3     1  UNL1        0.0515
      3 C           1.8537    1.1019    0.1757 C.ar    1  UNL1       -0.0271
      4 C           2.7234    1.7611   -0.7110 C.ar    1  UNL1       -0.0562
      5 C           3.9587    1.2520   -1.0271 C.ar    1  UNL1       -0.0536
      6 C           4.4150    0.0673   -0.4935 C.ar    1  UNL1       -0.0151
      7 C           5.7316   -0.4473   -0.8493 C.ar    1  UNL1        0.0175
      8 C           6.8577    0.3692   -0.8856 C.ar    1  UNL1       -0.0486
      9 C           8.0790   -0.1716   -1.2292 C.ar    1  UNL1       -0.0257
     10 C           8.2322   -1.5130   -1.5438 C.ar    1  UNL1        0.1262
     11 F           9.4571   -1.9815   -1.8726 F       1  UNL1       -0.2054
     12 C           7.1158   -2.3253   -1.5084 C.ar    1  UNL1        0.0094
     13 C           5.8900   -1.7839   -1.1639 C.ar    1  UNL1        0.1338
     14 F           4.7761   -2.5644   -1.1222 F       1  UNL1       -0.2048
     15 C           3.5676   -0.5811    0.3749 C.ar    1  UNL1       -0.0536
     16 C           2.3009   -0.0781    0.7121 C.ar    1  UNL1       -0.0562
     17 N          -0.5744    0.9086    0.1259 N.am    1  UNL1       -0.2605
     18 C          -0.7496   -0.4782    0.4627 C.3     1  UNL1        0.0224
     19 C          -2.1062   -1.0092    0.0463 C.3     1  UNL1        0.0075
     20 C          -3.2121    0.0231    0.2484 C.3     1  UNL1        0.1435
     21 C          -3.2539    0.3493    1.6929 C.3     1  UNL1        0.0148
     22 C          -4.2672    1.3423    2.1233 C.3     1  UNL1        0.0482
     23 O          -4.2004    2.5793    1.5890 O.3     1  UNL1       -0.3949
     24 C          -4.4566   -0.6311   -0.2454 C.ar    1  UNL1       -0.0039
     25 C          -5.2879   -1.3624    0.5303 C.ar    1  UNL1       -0.0521
     26 C          -6.4150   -1.9349   -0.0013 C.ar    1  UNL1       -0.0261
     27 C          -6.6766   -1.7461   -1.3406 C.ar    1  UNL1        0.1234
     28 F          -7.7899   -2.3052   -1.8900 F       1  UNL1       -0.2055
     29 C          -5.8495   -1.0051   -2.1633 C.ar    1  UNL1       -0.0261
     30 C          -4.7379   -0.4560   -1.5802 C.ar    1  UNL1       -0.0521
     31 O          -2.8720    1.0924   -0.5850 O.3     1  UNL1       -0.4388
     32 C          -1.5917    1.5801   -0.6624 C.2     1  UNL1        0.4042
     33 O          -1.3360    2.5565   -1.3832 O.2     1  UNL1       -0.2262
     34 H           0.3157    0.8840    2.5456 H       1  UNL1        0.0251
     35 H           1.2458    2.4732    2.4418 H       1  UNL1        0.0251
     36 H          -0.5318    2.4082    2.1955 H       1  UNL1        0.0251
     37 H           0.4635    2.7453    0.1355 H       1  UNL1        0.0549
     38 H           2.3619    2.6880   -1.1261 H       1  UNL1        0.0621
     39 H           4.6119    1.7849   -1.7177 H       1  UNL1        0.0624
     40 H           6.7403    1.4192   -0.6398 H       1  UNL1        0.0625
     41 H           8.9410    0.4747   -1.2524 H       1  UNL1        0.0646
     42 H           7.1959   -3.3776   -1.7478 H       1  UNL1        0.0675
     43 H           3.8530   -1.5092    0.8308 H       1  UNL1        0.0624
     44 H           1.6900   -0.6428    1.4252 H       1  UNL1        0.0621
     45 H          -0.0036   -1.0749   -0.1114 H       1  UNL1        0.0467
     46 H          -0.6515   -0.7042    1.5304 H       1  UNL1        0.0467
     47 H          -2.0380   -1.3165   -1.0157 H       1  UNL1        0.0322
     48 H          -2.2876   -1.9357    0.6254 H       1  UNL1        0.0322
     49 H          -3.3691   -0.5949    2.2626 H       1  UNL1        0.0329
     50 H          -2.2407    0.7359    1.9765 H       1  UNL1        0.0329
     51 H          -4.2648    1.4198    3.2307 H       1  UNL1        0.0558
     52 H          -5.2838    0.9146    1.8722 H       1  UNL1        0.0558
     53 H          -5.0207    3.0450    1.3926 H       1  UNL1        0.2094
     54 H          -5.0589   -1.4961    1.5833 H       1  UNL1        0.0622
     55 H          -7.1022   -2.5360    0.6269 H       1  UNL1        0.0646
     56 H          -6.0477   -0.8507   -3.2209 H       1  UNL1        0.0646
     57 H          -4.0741    0.1359   -2.2297 H       1  UNL1        0.0622
@<TRIPOS>BOND
     1     1     2    1
     2     2     3    1
     3     3     4   ar
     4     4     5   ar
     5     5     6   ar
     6     6     7    1
     7     7     8   ar
     8     8     9   ar
     9     9    10   ar
    10    10    11    1
    11    10    12   ar
    12    12    13   ar
    13    13    14    1
    14     6    15   ar
    15    15    16   ar
    16     2    17    1
    17    17    18    1
    18    18    19    1
    19    19    20    1
    20    20    21    1
    21    21    22    1
    22    22    23    1
    23    20    24    1
    24    24    25   ar
    25    25    26   ar
    26    26    27   ar
    27    27    28    1
    28    27    29   ar
    29    29    30   ar
    30    20    31    1
    31    31    32    1
    32    32    33    2
    33    16     3   ar
    34    32    17   am
    35    13     7   ar
    36    30    24   ar
    37     1    34    1
    38     1    35    1
    39     1    36    1
    40     2    37    1
    41     4    38    1
    42     5    39    1
    43     8    40    1
    44     9    41    1
    45    12    42    1
    46    15    43    1
    47    16    44    1
    48    18    45    1
    49    18    46    1
    50    19    47    1
    51    19    48    1
    52    21    49    1
    53    21    50    1
    54    22    51    1
    55    22    52    1
    56    23    53    1
    57    25    54    1
    58    26    55    1
    59    29    56    1
    60    30    57    1
