
     RDKit          3D

 57 60  0  0  0  0  0  0  0  0999 V2000
    0.4249    1.8675    2.0453 C   0  0  0  0  0  0  0  0  0  0  0  0
    0.5485    1.6871    0.5177 C   0  0  1  0  0  0  0  0  0  0  0  0
    1.8537    1.1019    0.1757 C   0  0  0  0  0  0  0  0  0  0  0  0
    2.7234    1.7611   -0.7110 C   0  0  0  0  0  0  0  0  0  0  0  0
    3.9587    1.2520   -1.0271 C   0  0  0  0  0  0  0  0  0  0  0  0
    4.4150    0.0673   -0.4935 C   0  0  0  0  0  0  0  0  0  0  0  0
    5.7316   -0.4473   -0.8493 C   0  0  0  0  0  0  0  0  0  0  0  0
    6.8577    0.3692   -0.8856 C   0  0  0  0  0  0  0  0  0  0  0  0
    8.0790   -0.1716   -1.2292 C   0  0  0  0  0  0  0  0  0  0  0  0
    8.2322   -1.5130   -1.5438 C   0  0  0  0  0  0  0  0  0  0  0  0
    9.4571   -1.9815   -1.8726 F   0  0  0  0  0  0  0  0  0  0  0  0
    7.1158   -2.3253   -1.5084 C   0  0  0  0  0  0  0  0  0  0  0  0
    5.8900   -1.7839   -1.1639 C   0  0  0  0  0  0  0  0  0  0  0  0
    4.7761   -2.5644   -1.1222 F   0  0  0  0  0  0  0  0  0  0  0  0
    3.5676   -0.5811    0.3749 C   0  0  0  0  0  0  0  0  0  0  0  0
    2.3009   -0.0781    0.7121 C   0  0  0  0  0  0  0  0  0  0  0  0
   -0.5744    0.9086    0.1259 N   0  0  0  0  0  0  0  0  0  0  0  0
   -0.7496   -0.4782    0.4627 C   0  0  0  0  0  0  0  0  0  0  0  0
   -2.1062   -1.0092    0.0463 C   0  0  0  0  0  0  0  0  0  0  0  0
   -3.2121    0.0231    0.2484 C   0  0  2  0  0  0  0  0  0  0  0  0
   -3.2539    0.3493    1.6929 C   0  0  0  0  0  0  0  0  0  0  0  0
   -4.2672    1.3423    2.1233 C   0  0  0  0  0  0  0  0  0  0  0  0
   -4.2004    2.5793    1.5890 O   0  0  0  0  0  0  0  0  0  0  0  0
   -4.4566   -0.6311   -0.2454 C   0  0  0  0  0  0  0  0  0  0  0  0
   -5.2879   -1.3624    0.5303 C   0  0  0  0  0  0  0  0  0  0  0  0
   -6.4150   -1.9349   -0.0013 C   0  0  0  0  0  0  0  0  0  0  0  0
   -6.6766   -1.7461   -1.3406 C   0  0  0  0  0  0  0  0  0  0  0  0
   -7.7899   -2.3052   -1.8900 F   0  0  0  0  0  0  0  0  0  0  0  0
   -5.8495   -1.0051   -2.1633 C   0  0  0  0  0  0  0  0  0  0  0  0
   -4.7379   -0.4560   -1.5802 C   0  0  0  0  0  0  0  0  0  0  0  0
   -2.8720    1.0924   -0.5850 O   0  0  0  0  0  0  0  0  0  0  0  0
   -1.5917    1.5801   -0.6624 C   0  0  0  0  0  0  0  0  0  0  0  0
   -1.3360    2.5565   -1.3832 O   0  0  0  0  0  0  0  0  0  0  0  0
    0.3157    0.8840    2.5456 H   0  0  0  0  0  0  0  0  0  0  0  0
    1.2458    2.4732    2.4418 H   0  0  0  0  0  0  0  0  0  0  0  0
   -0.5318    2.4082    2.1955 H   0  0  0  0  0  0  0  0  0  0  0  0
    0.4635    2.7453    0.1355 H   0  0  0  0  0  0  0  0  0  0  0  0
    2.3619    2.6880   -1.1261 H   0  0  0  0  0  0  0  0  0  0  0  0
    4.6119    1.7849   -1.7177 H   0  0  0  0  0  0  0  0  0  0  0  0
    6.7403    1.4192   -0.6398 H   0  0  0  0  0  0  0  0  0  0  0  0
    8.9410    0.4747   -1.2524 H   0  0  0  0  0  0  0  0  0  0  0  0
    7.1959   -3.3776   -1.7478 H   0  0  0  0  0  0  0  0  0  0  0  0
    3.8530   -1.5092    0.8308 H   0  0  0  0  0  0  0  0  0  0  0  0
    1.6900   -0.6428    1.4252 H   0  0  0  0  0  0  0  0  0  0  0  0
   -0.0036   -1.0749   -0.1114 H   0  0  0  0  0  0  0  0  0  0  0  0
   -0.6515   -0.7042    1.5304 H   0  0  0  0  0  0  0  0  0  0  0  0
   -2.0380   -1.3165   -1.0157 H   0  0  0  0  0  0  0  0  0  0  0  0
   -2.2876   -1.9357    0.6254 H   0  0  0  0  0  0  0  0  0  0  0  0
   -3.3691   -0.5949    2.2626 H   0  0  0  0  0  0  0  0  0  0  0  0
   -2.2407    0.7359    1.9765 H   0  0  0  0  0  0  0  0  0  0  0  0
   -4.2648    1.4198    3.2307 H   0  0  0  0  0  0  0  0  0  0  0  0
   -5.2838    0.9146    1.8722 H   0  0  0  0  0  0  0  0  0  0  0  0
   -5.0207    3.0450    1.3926 H   0  0  0  0  0  0  0  0  0  0  0  0
   -5.0589   -1.4961    1.5833 H   0  0  0  0  0  0  0  0  0  0  0  0
   -7.1022   -2.5360    0.6269 H   0  0  0  0  0  0  0  0  0  0  0  0
   -6.0477   -0.8507   -3.2209 H   0  0  0  0  0  0  0  0  0  0  0  0
   -4.0741    0.1359   -2.2297 H   0  0  0  0  0  0  0  0  0  0  0  0
  1  2  1  0
  2  3  1  0
  3  4  2  0
  4  5  1  0
  5  6  2  0
  6  7  1  0
  7  8  2  0
  8  9  1  0
  9 10  2  0
 10 11  1  0
 10 12  1  0
 12 13  2  0
 13 14  1  0
  6 15  1  0
 15 16  2  0
  2 17  1  0
 17 18  1  0
 18 19  1  0
 19 20  1  0
 20 21  1  1
 21 22  1  0
 22 23  1  0
 20 24  1  0
 24 25  2  0
 25 26  1  0
 26 27  2  0
 27 28  1  0
 27 29  1  0
 29 30  2  0
 20 31  1  0
 31 32  1  0
 32 33  2  0
 16  3  1  0
 32 17  1  0
 13  7  1  0
 30 24  1  0
  1 34  1  0
  1 35  1  0
  1 36  1  0
  2 37  1  6
  4 38  1  0
  5 39  1  0
  8 40  1  0
  9 41  1  0
 12 42  1  0
 15 43  1  0
 16 44  1  0
 18 45  1  0
 18 46  1  0
 19 47  1  0
 19 48  1  0
 21 49  1  0
 21 50  1  0
 22 51  1  0
 22 52  1  0
 23 53  1  0
 25 54  1  0
 26 55  1  0
 29 56  1  0
 30 57  1  0
M  END
$$$$
