
     RDKit          3D

 48 50  0  0  0  0  0  0  0  0999 V2000
   -5.5240    1.9039    0.7978 C   0  0  0  0  0  0  0  0  0  0  0  0
   -4.3345    1.6195    0.0933 O   0  0  0  0  0  0  0  0  0  0  0  0
   -3.1538    1.2378    0.6804 C   0  0  0  0  0  0  0  0  0  0  0  0
   -3.1180    1.1318    1.9228 O   0  0  0  0  0  0  0  0  0  0  0  0
   -1.9372    0.9524   -0.1104 C   0  0  0  0  0  0  0  0  0  0  0  0
   -1.8989    1.0435   -1.4211 C   0  0  0  0  0  0  0  0  0  0  0  0
   -3.1348    1.4283   -2.1768 C   0  0  0  0  0  0  0  0  0  0  0  0
   -0.6462    0.9836   -2.1013 N   0  0  0  0  0  0  0  0  0  0  0  0
    0.5275    0.8286   -1.3015 C   0  0  0  0  0  0  0  0  0  0  0  0
    1.8719    0.7952   -1.9724 C   0  0  0  0  0  0  0  0  0  0  0  0
    0.5088    0.7109    0.0042 C   0  0  0  0  0  0  0  0  0  0  0  0
    1.7564    0.6008    0.8036 C   0  0  0  0  0  0  0  0  0  0  0  0
    1.6476    0.5503    2.0806 O   0  0  0  0  0  0  0  0  0  0  0  0
    3.0160    0.5480    0.3000 O   0  0  0  0  0  0  0  0  0  0  0  0
    4.1914    0.4442    1.0517 C   0  0  0  0  0  0  0  0  0  0  0  0
    5.0774    1.6655    0.8933 C   0  0  0  0  0  0  0  0  0  0  0  0
    4.9845   -0.7939    0.7536 C   0  0  0  0  0  0  0  0  0  0  0  0
   -0.7777    0.3799    0.6677 C   0  0  0  0  0  0  0  0  0  0  0  0
   -0.9966   -1.1302    0.4900 C   0  0  0  0  0  0  0  0  0  0  0  0
   -2.2601   -1.6161    0.1685 C   0  0  0  0  0  0  0  0  0  0  0  0
   -2.5460   -2.9604    0.0016 C   0  0  0  0  0  0  0  0  0  0  0  0
   -1.5226   -3.8552    0.1631 C   0  0  0  0  0  0  0  0  0  0  0  0
   -0.2627   -3.4062    0.4800 C   0  0  0  0  0  0  0  0  0  0  0  0
    0.8921   -4.0845    0.6775 N   0  0  0  0  0  0  0  0  0  0  0  0
    1.8000   -3.2230    0.9410 O   0  0  0  0  0  0  0  0  0  0  0  0
    1.3174   -2.0330    0.9291 N   0  0  0  0  0  0  0  0  0  0  0  0
    0.0077   -2.0316    0.6460 C   0  0  0  0  0  0  0  0  0  0  0  0
   -5.5310    2.9420    1.1945 H   0  0  0  0  0  0  0  0  0  0  0  0
   -5.5843    1.1858    1.6462 H   0  0  0  0  0  0  0  0  0  0  0  0
   -6.3723    1.7289    0.0981 H   0  0  0  0  0  0  0  0  0  0  0  0
   -2.8855    1.4393   -3.2726 H   0  0  0  0  0  0  0  0  0  0  0  0
   -3.4149    2.4430   -1.8650 H   0  0  0  0  0  0  0  0  0  0  0  0
   -3.9526    0.7104   -1.9998 H   0  0  0  0  0  0  0  0  0  0  0  0
   -0.5877    1.0503   -3.1420 H   0  0  0  0  0  0  0  0  0  0  0  0
    1.7565    0.8506   -3.0772 H   0  0  0  0  0  0  0  0  0  0  0  0
    2.5105    1.6104   -1.6684 H   0  0  0  0  0  0  0  0  0  0  0  0
    2.3102   -0.1862   -1.7577 H   0  0  0  0  0  0  0  0  0  0  0  0
    3.8968    0.4139    2.1233 H   0  0  0  0  0  0  0  0  0  0  0  0
    4.7480    2.4479    1.6004 H   0  0  0  0  0  0  0  0  0  0  0  0
    6.1316    1.4208    1.1395 H   0  0  0  0  0  0  0  0  0  0  0  0
    4.9978    2.0913   -0.1401 H   0  0  0  0  0  0  0  0  0  0  0  0
    5.8355   -0.5918    0.0550 H   0  0  0  0  0  0  0  0  0  0  0  0
    5.4549   -1.1572    1.6907 H   0  0  0  0  0  0  0  0  0  0  0  0
    4.3411   -1.6180    0.3834 H   0  0  0  0  0  0  0  0  0  0  0  0
   -0.7971    0.6666    1.7112 H   0  0  0  0  0  0  0  0  0  0  0  0
   -3.0657   -0.9402    0.0301 H   0  0  0  0  0  0  0  0  0  0  0  0
   -3.5490   -3.2738   -0.2475 H   0  0  0  0  0  0  0  0  0  0  0  0
   -1.7284   -4.9243    0.0356 H   0  0  0  0  0  0  0  0  0  0  0  0
  1  2  1  0
  2  3  1  0
  3  4  2  0
  3  5  1  0
  5  6  2  0
  6  7  1  0
  6  8  1  0
  8  9  1  0
  9 10  1  0
  9 11  2  0
 11 12  1  0
 12 13  2  0
 12 14  1  0
 14 15  1  0
 15 16  1  0
 15 17  1  0
 11 18  1  0
 18 19  1  0
 19 20  2  0
 20 21  1  0
 21 22  2  0
 22 23  1  0
 23 24  2  0
 24 25  1  0
 25 26  1  0
 26 27  2  0
 18  5  1  0
 27 19  1  0
 27 23  1  0
  1 28  1  0
  1 29  1  0
  1 30  1  0
  7 31  1  0
  7 32  1  0
  7 33  1  0
  8 34  1  0
 10 35  1  0
 10 36  1  0
 10 37  1  0
 15 38  1  0
 16 39  1  0
 16 40  1  0
 16 41  1  0
 17 42  1  0
 17 43  1  0
 17 44  1  0
 18 45  1  0
 20 46  1  0
 21 47  1  0
 22 48  1  0
M  END
$$$$
