@<TRIPOS>MOLECULE
*****
 48 50 0 0 0
SMALL
GASTEIGER

@<TRIPOS>ATOM
      1 C          -5.5240    1.9039    0.7978 C.3     1  UNL1        0.0820
      2 O          -4.3345    1.6195    0.0933 O.3     1  UNL1       -0.4646
      3 C          -3.1538    1.2378    0.6804 C.2     1  UNL1        0.3373
      4 O          -3.1180    1.1318    1.9228 O.2     1  UNL1       -0.2452
      5 C          -1.9372    0.9524   -0.1104 C.2     1  UNL1        0.0652
      6 C          -1.8989    1.0435   -1.4211 C.2     1  UNL1        0.0157
      7 C          -3.1348    1.4283   -2.1768 C.3     1  UNL1       -0.0260
      8 N          -0.6462    0.9836   -2.1013 N.pl3   1  UNL1       -0.3207
      9 C           0.5275    0.8286   -1.3015 C.2     1  UNL1        0.0157
     10 C           1.8719    0.7952   -1.9724 C.3     1  UNL1       -0.0260
     11 C           0.5088    0.7109    0.0042 C.2     1  UNL1        0.0652
     12 C           1.7564    0.6008    0.8036 C.2     1  UNL1        0.3378
     13 O           1.6476    0.5503    2.0806 O.2     1  UNL1       -0.2452
     14 O           3.0160    0.5480    0.3000 O.3     1  UNL1       -0.4586
     15 C           4.1914    0.4442    1.0517 C.3     1  UNL1        0.0978
     16 C           5.0774    1.6655    0.8933 C.3     1  UNL1       -0.0280
     17 C           4.9845   -0.7939    0.7536 C.3     1  UNL1       -0.0280
     18 C          -0.7777    0.3799    0.6677 C.3     1  UNL1        0.0528
     19 C          -0.9966   -1.1302    0.4900 C.ar    1  UNL1       -0.0043
     20 C          -2.2601   -1.6161    0.1685 C.ar    1  UNL1       -0.0554
     21 C          -2.5460   -2.9604    0.0016 C.ar    1  UNL1       -0.0592
     22 C          -1.5226   -3.8552    0.1631 C.ar    1  UNL1       -0.0308
     23 C          -0.2627   -3.4062    0.4800 C.ar    1  UNL1        0.1345
     24 N           0.8921   -4.0845    0.6775 N.ar    1  UNL1       -0.0489
     25 O           1.8000   -3.2230    0.9410 O.2     1  UNL1       -0.2416
     26 N           1.3174   -2.0330    0.9291 N.ar    1  UNL1       -0.0486
     27 C           0.0077   -2.0316    0.6460 C.ar    1  UNL1        0.1382
     28 H          -5.5310    2.9420    1.1945 H       1  UNL1        0.0661
     29 H          -5.5843    1.1858    1.6462 H       1  UNL1        0.0661
     30 H          -6.3723    1.7289    0.0981 H       1  UNL1        0.0661
     31 H          -2.8855    1.4393   -3.2726 H       1  UNL1        0.0290
     32 H          -3.4149    2.4430   -1.8650 H       1  UNL1        0.0290
     33 H          -3.9526    0.7104   -1.9998 H       1  UNL1        0.0290
     34 H          -0.5877    1.0503   -3.1420 H       1  UNL1        0.1516
     35 H           1.7565    0.8506   -3.0772 H       1  UNL1        0.0290
     36 H           2.5105    1.6104   -1.6684 H       1  UNL1        0.0290
     37 H           2.3102   -0.1862   -1.7577 H       1  UNL1        0.0290
     38 H           3.8968    0.4139    2.1233 H       1  UNL1        0.0728
     39 H           4.7480    2.4479    1.6004 H       1  UNL1        0.0265
     40 H           6.1316    1.4208    1.1395 H       1  UNL1        0.0265
     41 H           4.9978    2.0913   -0.1401 H       1  UNL1        0.0265
     42 H           5.8355   -0.5918    0.0550 H       1  UNL1        0.0265
     43 H           5.4549   -1.1572    1.6907 H       1  UNL1        0.0265
     44 H           4.3411   -1.6180    0.3834 H       1  UNL1        0.0265
     45 H          -0.7971    0.6666    1.7112 H       1  UNL1        0.0452
     46 H          -3.0657   -0.9402    0.0301 H       1  UNL1        0.0621
     47 H          -3.5490   -3.2738   -0.2475 H       1  UNL1        0.0618
     48 H          -1.7284   -4.9243    0.0356 H       1  UNL1        0.0640
@<TRIPOS>BOND
     1     1     2    1
     2     2     3    1
     3     3     4    2
     4     3     5    1
     5     5     6    2
     6     6     7    1
     7     6     8    1
     8     8     9    1
     9     9    10    1
    10     9    11    2
    11    11    12    1
    12    12    13    2
    13    12    14    1
    14    14    15    1
    15    15    16    1
    16    15    17    1
    17    11    18    1
    18    18    19    1
    19    19    20   ar
    20    20    21   ar
    21    21    22   ar
    22    22    23   ar
    23    23    24   ar
    24    24    25   ar
    25    25    26   ar
    26    26    27   ar
    27    18     5    1
    28    27    19   ar
    29    27    23   ar
    30     1    28    1
    31     1    29    1
    32     1    30    1
    33     7    31    1
    34     7    32    1
    35     7    33    1
    36     8    34    1
    37    10    35    1
    38    10    36    1
    39    10    37    1
    40    15    38    1
    41    16    39    1
    42    16    40    1
    43    16    41    1
    44    17    42    1
    45    17    43    1
    46    17    44    1
    47    18    45    1
    48    20    46    1
    49    21    47    1
    50    22    48    1
