@<TRIPOS>MOLECULE
*****
 35 36 0 0 0
SMALL
GASTEIGER

@<TRIPOS>ATOM
      1 C           5.0616    1.9615    0.9802 C.3     1  UNL1       -0.0397
      2 C           4.4440    0.7788    0.3163 C.ar    1  UNL1       -0.0485
      3 C           5.2626   -0.1667   -0.2583 C.ar    1  UNL1       -0.0421
      4 C           4.6855   -1.2555   -0.8691 C.ar    1  UNL1        0.0557
      5 I           5.8949   -2.7260   -1.7605 I       1  UNL1       -0.0400
      6 C           3.3166   -1.3728   -0.8912 C.ar    1  UNL1        0.1420
      7 O           2.7711   -2.5016   -1.5263 O.3     1  UNL1       -0.5050
      8 C           2.4434   -0.4597   -0.3336 C.ar    1  UNL1        0.0796
      9 C           3.0821    0.6051    0.2613 C.ar    1  UNL1       -0.0431
     10 C           1.0030   -0.6463   -0.3934 C.2     1  UNL1        0.2518
     11 O           0.5865   -1.6676   -0.9704 O.2     1  UNL1       -0.2697
     12 N           0.0617    0.2418    0.1518 N.am    1  UNL1       -0.2814
     13 C          -1.3508    0.1774    0.1617 C.ar    1  UNL1        0.0351
     14 C          -2.0650    1.1876    0.7680 C.ar    1  UNL1       -0.0213
     15 C          -3.4406    1.1987    0.8197 C.ar    1  UNL1        0.0575
     16 CL         -4.2404    2.5324    1.6178 Cl      1  UNL1       -0.0826
     17 C          -4.1819    0.1819    0.2574 C.ar    1  UNL1        0.0831
     18 C          -3.5054   -0.8504   -0.3603 C.ar    1  UNL1       -0.0437
     19 C          -2.1277   -0.8165   -0.3860 C.ar    1  UNL1       -0.0396
     20 C          -5.6385    0.1541    0.2852 C.2     1  UNL1        0.3095
     21 N          -6.2807   -1.1307    0.3396 N.pl3   1  UNL1       -0.2466
     22 N          -6.5143    1.0839    0.2706 N.2     1  UNL1       -0.0994
     23 H           5.1715    2.7646    0.2245 H       1  UNL1        0.0278
     24 H           6.0538    1.7136    1.4127 H       1  UNL1        0.0278
     25 H           4.3799    2.3645    1.7718 H       1  UNL1        0.0278
     26 H           6.3338   -0.0699   -0.2380 H       1  UNL1        0.0632
     27 H           2.4736   -3.2792   -0.9722 H       1  UNL1        0.2922
     28 H           2.5036    1.3793    0.7287 H       1  UNL1        0.0629
     29 H           0.5175    1.0614    0.6109 H       1  UNL1        0.1551
     30 H          -1.5262    2.0200    1.2305 H       1  UNL1        0.0651
     31 H          -4.0689   -1.6553   -0.8061 H       1  UNL1        0.0627
     32 H          -1.6723   -1.6394   -0.8756 H       1  UNL1        0.0636
     33 H          -6.8668   -1.4501   -0.4872 H       1  UNL1        0.2884
     34 H          -6.2396   -1.8209    1.1291 H       1  UNL1        0.2884
     35 H          -6.3275    2.1019    0.2333 H       1  UNL1        0.3633
@<TRIPOS>BOND
     1     1     2    1
     2     2     3   ar
     3     3     4   ar
     4     4     5    1
     5     4     6   ar
     6     6     7    1
     7     6     8   ar
     8     8     9   ar
     9     8    10    1
    10    10    11    2
    11    10    12   am
    12    12    13    1
    13    13    14   ar
    14    14    15   ar
    15    15    16    1
    16    15    17   ar
    17    17    18   ar
    18    18    19   ar
    19    17    20    1
    20    20    21    1
    21    20    22    2
    22     9     2   ar
    23    19    13   ar
    24     1    23    1
    25     1    24    1
    26     1    25    1
    27     3    26    1
    28     7    27    1
    29     9    28    1
    30    12    29    1
    31    14    30    1
    32    18    31    1
    33    19    32    1
    34    21    33    1
    35    21    34    1
    36    22    35    1
