@<TRIPOS>MOLECULE
*****
 51 56 0 0 0
SMALL
GASTEIGER

@<TRIPOS>ATOM
      1 N           8.9501    1.1095    0.3737 N.1     1  UNL1       -0.1909
      2 C           7.8732    0.7128    0.2300 C.1     1  UNL1        0.0992
      3 C           6.5216    0.1997    0.0685 C.ar    1  UNL1        0.0538
      4 C           5.6549    0.1059    1.1361 C.ar    1  UNL1       -0.0423
      5 C           4.3980   -0.3907    0.8656 C.ar    1  UNL1       -0.0348
      6 C           3.9840   -0.7872   -0.3999 C.ar    1  UNL1        0.0700
      7 C           4.8751   -0.6807   -1.4457 C.ar    1  UNL1        0.0682
      8 C           6.1509   -0.1825   -1.2000 C.ar    1  UNL1       -0.0188
      9 N           4.2635   -1.1189   -2.5483 N.ar    1  UNL1       -0.3059
     10 C           3.0132   -1.4889   -2.1842 C.ar    1  UNL1        0.3278
     11 O           2.1540   -1.9546   -2.9807 O.2     1  UNL1       -0.2465
     12 N           2.8136   -1.2994   -0.8881 N.ar    1  UNL1       -0.2891
     13 C           1.6926   -1.5265   -0.0409 C.3     1  UNL1        0.0407
     14 C           1.1742   -0.1897    0.5217 C.3     1  UNL1       -0.0221
     15 C           0.4264   -0.0980   -0.8252 C.3     1  UNL1        0.0232
     16 C          -0.7245    0.7819   -0.8688 C.ar    1  UNL1        0.1415
     17 N          -0.6726    1.9490   -1.5721 N.ar    1  UNL1       -0.1333
     18 N          -1.8011    2.5918   -1.4928 N.ar    1  UNL1       -0.1272
     19 C          -2.6344    1.8740   -0.7367 C.ar    1  UNL1        0.1873
     20 C          -4.0057    2.1678   -0.3546 C.ar    1  UNL1        0.1115
     21 C          -4.6492    3.3064   -0.7684 C.ar    1  UNL1       -0.0145
     22 C          -5.9485    3.5782   -0.4052 C.ar    1  UNL1        0.0314
     23 N          -6.5890    2.6958    0.3753 N.ar    1  UNL1       -0.2437
     24 C          -5.9771    1.5834    0.7870 C.ar    1  UNL1        0.1167
     25 N          -4.7062    1.3277    0.4255 N.ar    1  UNL1       -0.2323
     26 N          -1.9504    0.7476   -0.3545 N.ar    1  UNL1       -0.2762
     27 C          -2.4846   -0.2625    0.4389 C.ar    1  UNL1        0.0681
     28 C          -3.0911   -1.3506   -0.1145 C.ar    1  UNL1       -0.0363
     29 C          -3.6363   -2.3603    0.6420 C.ar    1  UNL1       -0.0597
     30 C          -3.5803   -2.2933    2.0141 C.ar    1  UNL1       -0.0603
     31 C          -2.9744   -1.2064    2.6010 C.ar    1  UNL1       -0.0414
     32 C          -2.4267   -0.1906    1.8063 C.ar    1  UNL1        0.0648
     33 CL         -1.6958    1.1467    2.6642 Cl      1  UNL1       -0.0814
     34 C           0.3162   -1.5582   -0.7318 C.3     1  UNL1       -0.0221
     35 H           5.9560    0.4105    2.1382 H       1  UNL1        0.0631
     36 H           3.7081   -0.4734    1.6989 H       1  UNL1        0.0639
     37 H           6.8235   -0.1151   -2.0574 H       1  UNL1        0.0652
     38 H           4.7081   -1.1476   -3.4790 H       1  UNL1        0.1705
     39 H           1.8238   -2.3023    0.7278 H       1  UNL1        0.0530
     40 H           0.5185   -0.3505    1.3768 H       1  UNL1        0.0292
     41 H           1.9064    0.6072    0.6051 H       1  UNL1        0.0292
     42 H           1.2166    0.1693   -1.5853 H       1  UNL1        0.0381
     43 H          -4.1432    4.0225   -1.3972 H       1  UNL1        0.0655
     44 H          -6.4102    4.4735   -0.7486 H       1  UNL1        0.0831
     45 H          -6.4966    0.8890    1.4083 H       1  UNL1        0.1047
     46 H          -3.1491   -1.4301   -1.1851 H       1  UNL1        0.0639
     47 H          -4.1217   -3.2303    0.1572 H       1  UNL1        0.0618
     48 H          -4.0167   -3.1018    2.5951 H       1  UNL1        0.0618
     49 H          -2.9445   -1.1809    3.6812 H       1  UNL1        0.0633
     50 H           0.2696   -2.1660   -1.6408 H       1  UNL1        0.0292
     51 H          -0.3625   -2.0136    0.0219 H       1  UNL1        0.0292
@<TRIPOS>BOND
     1     1     2    3
     2     2     3    1
     3     3     4   ar
     4     4     5   ar
     5     5     6   ar
     6     6     7   ar
     7     7     8   ar
     8     7     9   ar
     9     9    10   ar
    10    10    11    2
    11    10    12   ar
    12    12    13    1
    13    13    14    1
    14    14    15    1
    15    15    16    1
    16    16    17   ar
    17    17    18   ar
    18    18    19   ar
    19    19    20    1
    20    20    21   ar
    21    21    22   ar
    22    22    23   ar
    23    23    24   ar
    24    24    25   ar
    25    19    26   ar
    26    26    27    1
    27    27    28   ar
    28    28    29   ar
    29    29    30   ar
    30    30    31   ar
    31    31    32   ar
    32    32    33    1
    33    15    34    1
    34     8     3   ar
    35    34    13    1
    36    12     6   ar
    37    26    16   ar
    38    32    27   ar
    39    25    20   ar
    40     4    35    1
    41     5    36    1
    42     8    37    1
    43     9    38    1
    44    13    39    1
    45    14    40    1
    46    14    41    1
    47    15    42    1
    48    21    43    1
    49    22    44    1
    50    24    45    1
    51    28    46    1
    52    29    47    1
    53    30    48    1
    54    31    49    1
    55    34    50    1
    56    34    51    1
