@<TRIPOS>MOLECULE
*****
 68 71 0 0 0
SMALL
GASTEIGER

@<TRIPOS>ATOM
      1 C          -5.8635   -3.4890    0.5125 C.3     1  UNL1       -0.0254
      2 C          -4.4361   -3.2726   -0.0248 C.3     1  UNL1        0.1053
      3 C          -4.3926   -3.7375   -1.4606 C.3     1  UNL1       -0.0254
      4 C          -3.5605   -4.1624    0.8449 C.3     1  UNL1       -0.0254
      5 O          -4.1611   -1.9247    0.1422 O.3     1  UNL1       -0.4576
      6 C          -2.9987   -1.2558   -0.2165 C.2     1  UNL1        0.3285
      7 O          -2.1006   -1.9647   -0.7557 O.2     1  UNL1       -0.2487
      8 C          -2.8607    0.1897    0.0304 C.3     1  UNL1        0.1244
      9 C          -4.0877    0.8902   -0.5861 C.3     1  UNL1        0.0012
     10 C          -3.9973    2.3523   -0.3814 C.ar    1  UNL1       -0.0451
     11 C          -3.4177    3.1166   -1.3640 C.ar    1  UNL1       -0.0585
     12 C          -3.2851    4.5033   -1.2449 C.ar    1  UNL1       -0.0615
     13 C          -3.7595    5.0872   -0.0967 C.ar    1  UNL1       -0.0617
     14 C          -4.3451    4.3182    0.8973 C.ar    1  UNL1       -0.0615
     15 C          -4.4695    2.9507    0.7655 C.ar    1  UNL1       -0.0585
     16 N          -1.6353    0.7254   -0.4943 N.am    1  UNL1       -0.3006
     17 C          -0.6798    1.3942    0.2924 C.2     1  UNL1        0.2336
     18 O          -0.8918    1.5250    1.5508 O.2     1  UNL1       -0.2738
     19 C           0.5495    1.9503   -0.2942 C.3     1  UNL1        0.1030
     20 N           1.7668    1.2694    0.0225 N.ar    1  UNL1       -0.2964
     21 C           2.2168    0.2460   -0.7397 C.ar    1  UNL1        0.2739
     22 O           1.4981   -0.1170   -1.7272 O.2     1  UNL1       -0.2657
     23 C           3.3955   -0.4292   -0.5182 C.ar    1  UNL1        0.1105
     24 C           3.8449   -1.5277   -1.4288 C.3     1  UNL1        0.0201
     25 C           5.3032   -1.7051   -1.3932 C.ar    1  UNL1       -0.0414
     26 C           5.8862   -2.7501   -0.7178 C.ar    1  UNL1       -0.0582
     27 C           7.2625   -2.9207   -0.6628 C.ar    1  UNL1       -0.0615
     28 C           8.0511   -2.0053   -1.3107 C.ar    1  UNL1       -0.0617
     29 C           7.5143   -0.9484   -1.9961 C.ar    1  UNL1       -0.0615
     30 C           6.1154   -0.8042   -2.0322 C.ar    1  UNL1       -0.0582
     31 N           4.1182   -0.0148    0.5353 N.ar    1  UNL1       -0.2444
     32 C           3.7319    0.9957    1.3337 C.ar    1  UNL1        0.0879
     33 C           4.5195    1.3976    2.4014 C.ar    1  UNL1       -0.0343
     34 C           4.1555    2.4463    3.2404 C.ar    1  UNL1       -0.0596
     35 C           2.9616    3.0868    2.9719 C.ar    1  UNL1       -0.0597
     36 C           2.1665    2.6932    1.9059 C.ar    1  UNL1       -0.0360
     37 C           2.5317    1.6577    1.0803 C.ar    1  UNL1        0.0708
     38 H          -6.6165   -3.1039   -0.2040 H       1  UNL1        0.0268
     39 H          -5.9180   -2.9154    1.4468 H       1  UNL1        0.0268
     40 H          -5.9416   -4.5542    0.7395 H       1  UNL1        0.0268
     41 H          -5.1726   -4.5067   -1.6116 H       1  UNL1        0.0268
     42 H          -4.6585   -2.8941   -2.1210 H       1  UNL1        0.0268
     43 H          -3.4324   -4.1965   -1.7446 H       1  UNL1        0.0268
     44 H          -2.6019   -4.4157    0.4023 H       1  UNL1        0.0268
     45 H          -4.1479   -5.1126    0.9974 H       1  UNL1        0.0268
     46 H          -3.5180   -3.7054    1.8507 H       1  UNL1        0.0268
     47 H          -2.8979    0.3383    1.1477 H       1  UNL1        0.0618
     48 H          -4.9971    0.5497   -0.0566 H       1  UNL1        0.0337
     49 H          -4.1883    0.6499   -1.6465 H       1  UNL1        0.0337
     50 H          -3.0235    2.7094   -2.3007 H       1  UNL1        0.0620
     51 H          -2.8253    5.0940   -2.0309 H       1  UNL1        0.0618
     52 H          -3.6592    6.1631    0.0058 H       1  UNL1        0.0618
     53 H          -4.7114    4.7797    1.7897 H       1  UNL1        0.0618
     54 H          -4.9286    2.3270    1.5378 H       1  UNL1        0.0620
     55 H          -1.4403    0.6136   -1.5145 H       1  UNL1        0.1496
     56 H           0.4193    1.8499   -1.4271 H       1  UNL1        0.0589
     57 H           0.6093    3.0614   -0.1725 H       1  UNL1        0.0589
     58 H           3.3619   -2.4972   -1.1853 H       1  UNL1        0.0378
     59 H           3.5697   -1.3075   -2.4827 H       1  UNL1        0.0378
     60 H           5.2824   -3.4850   -0.1987 H       1  UNL1        0.0620
     61 H           7.7273   -3.7465   -0.1319 H       1  UNL1        0.0618
     62 H           9.1353   -2.0827   -1.3081 H       1  UNL1        0.0618
     63 H           8.1324   -0.2207   -2.5074 H       1  UNL1        0.0618
     64 H           5.7566    0.0474   -2.5867 H       1  UNL1        0.0620
     65 H           5.4647    0.9028    2.6181 H       1  UNL1        0.0639
     66 H           4.7457    2.7778    4.0720 H       1  UNL1        0.0618
     67 H           2.5919    3.9114    3.5643 H       1  UNL1        0.0618
     68 H           1.2358    3.2022    1.7041 H       1  UNL1        0.0639
@<TRIPOS>BOND
     1     1     2    1
     2     2     3    1
     3     2     4    1
     4     2     5    1
     5     5     6    1
     6     6     7    2
     7     6     8    1
     8     8     9    1
     9     9    10    1
    10    10    11   ar
    11    11    12   ar
    12    12    13   ar
    13    13    14   ar
    14    14    15   ar
    15     8    16    1
    16    16    17   am
    17    17    18    2
    18    17    19    1
    19    19    20    1
    20    20    21   ar
    21    21    22    2
    22    21    23   ar
    23    23    24    1
    24    24    25    1
    25    25    26   ar
    26    26    27   ar
    27    27    28   ar
    28    28    29   ar
    29    29    30   ar
    30    23    31   ar
    31    31    32   ar
    32    32    33   ar
    33    33    34   ar
    34    34    35   ar
    35    35    36   ar
    36    36    37   ar
    37    15    10   ar
    38    37    20   ar
    39    30    25   ar
    40    37    32   ar
    41     1    38    1
    42     1    39    1
    43     1    40    1
    44     3    41    1
    45     3    42    1
    46     3    43    1
    47     4    44    1
    48     4    45    1
    49     4    46    1
    50     8    47    1
    51     9    48    1
    52     9    49    1
    53    11    50    1
    54    12    51    1
    55    13    52    1
    56    14    53    1
    57    15    54    1
    58    16    55    1
    59    19    56    1
    60    19    57    1
    61    24    58    1
    62    24    59    1
    63    26    60    1
    64    27    61    1
    65    28    62    1
    66    29    63    1
    67    30    64    1
    68    33    65    1
    69    34    66    1
    70    35    67    1
    71    36    68    1
