
     RDKit          3D

 68 71  0  0  0  0  0  0  0  0999 V2000
   -5.8635   -3.4890    0.5125 C   0  0  0  0  0  0  0  0  0  0  0  0
   -4.4361   -3.2726   -0.0248 C   0  0  0  0  0  0  0  0  0  0  0  0
   -4.3926   -3.7375   -1.4606 C   0  0  0  0  0  0  0  0  0  0  0  0
   -3.5605   -4.1624    0.8449 C   0  0  0  0  0  0  0  0  0  0  0  0
   -4.1611   -1.9247    0.1422 O   0  0  0  0  0  0  0  0  0  0  0  0
   -2.9987   -1.2558   -0.2165 C   0  0  0  0  0  0  0  0  0  0  0  0
   -2.1006   -1.9647   -0.7557 O   0  0  0  0  0  0  0  0  0  0  0  0
   -2.8607    0.1897    0.0304 C   0  0  0  0  0  0  0  0  0  0  0  0
   -4.0877    0.8902   -0.5861 C   0  0  0  0  0  0  0  0  0  0  0  0
   -3.9973    2.3523   -0.3814 C   0  0  0  0  0  0  0  0  0  0  0  0
   -3.4177    3.1166   -1.3640 C   0  0  0  0  0  0  0  0  0  0  0  0
   -3.2851    4.5033   -1.2449 C   0  0  0  0  0  0  0  0  0  0  0  0
   -3.7595    5.0872   -0.0967 C   0  0  0  0  0  0  0  0  0  0  0  0
   -4.3451    4.3182    0.8973 C   0  0  0  0  0  0  0  0  0  0  0  0
   -4.4695    2.9507    0.7655 C   0  0  0  0  0  0  0  0  0  0  0  0
   -1.6353    0.7254   -0.4943 N   0  0  0  0  0  0  0  0  0  0  0  0
   -0.6798    1.3942    0.2924 C   0  0  0  0  0  0  0  0  0  0  0  0
   -0.8918    1.5250    1.5508 O   0  0  0  0  0  0  0  0  0  0  0  0
    0.5495    1.9503   -0.2942 C   0  0  0  0  0  0  0  0  0  0  0  0
    1.7668    1.2694    0.0225 N   0  0  0  0  0  0  0  0  0  0  0  0
    2.2168    0.2460   -0.7397 C   0  0  0  0  0  0  0  0  0  0  0  0
    1.4981   -0.1170   -1.7272 O   0  0  0  0  0  0  0  0  0  0  0  0
    3.3955   -0.4292   -0.5182 C   0  0  0  0  0  0  0  0  0  0  0  0
    3.8449   -1.5277   -1.4288 C   0  0  0  0  0  0  0  0  0  0  0  0
    5.3032   -1.7051   -1.3932 C   0  0  0  0  0  0  0  0  0  0  0  0
    5.8862   -2.7501   -0.7178 C   0  0  0  0  0  0  0  0  0  0  0  0
    7.2625   -2.9207   -0.6628 C   0  0  0  0  0  0  0  0  0  0  0  0
    8.0511   -2.0053   -1.3107 C   0  0  0  0  0  0  0  0  0  0  0  0
    7.5143   -0.9484   -1.9961 C   0  0  0  0  0  0  0  0  0  0  0  0
    6.1154   -0.8042   -2.0322 C   0  0  0  0  0  0  0  0  0  0  0  0
    4.1182   -0.0148    0.5353 N   0  0  0  0  0  0  0  0  0  0  0  0
    3.7319    0.9957    1.3337 C   0  0  0  0  0  0  0  0  0  0  0  0
    4.5195    1.3976    2.4014 C   0  0  0  0  0  0  0  0  0  0  0  0
    4.1555    2.4463    3.2404 C   0  0  0  0  0  0  0  0  0  0  0  0
    2.9616    3.0868    2.9719 C   0  0  0  0  0  0  0  0  0  0  0  0
    2.1665    2.6932    1.9059 C   0  0  0  0  0  0  0  0  0  0  0  0
    2.5317    1.6577    1.0803 C   0  0  0  0  0  0  0  0  0  0  0  0
   -6.6165   -3.1039   -0.2040 H   0  0  0  0  0  0  0  0  0  0  0  0
   -5.9180   -2.9154    1.4468 H   0  0  0  0  0  0  0  0  0  0  0  0
   -5.9416   -4.5542    0.7395 H   0  0  0  0  0  0  0  0  0  0  0  0
   -5.1726   -4.5067   -1.6116 H   0  0  0  0  0  0  0  0  0  0  0  0
   -4.6585   -2.8941   -2.1210 H   0  0  0  0  0  0  0  0  0  0  0  0
   -3.4324   -4.1965   -1.7446 H   0  0  0  0  0  0  0  0  0  0  0  0
   -2.6019   -4.4157    0.4023 H   0  0  0  0  0  0  0  0  0  0  0  0
   -4.1479   -5.1126    0.9974 H   0  0  0  0  0  0  0  0  0  0  0  0
   -3.5180   -3.7054    1.8507 H   0  0  0  0  0  0  0  0  0  0  0  0
   -2.8979    0.3383    1.1477 H   0  0  0  0  0  0  0  0  0  0  0  0
   -4.9971    0.5497   -0.0566 H   0  0  0  0  0  0  0  0  0  0  0  0
   -4.1883    0.6499   -1.6465 H   0  0  0  0  0  0  0  0  0  0  0  0
   -3.0235    2.7094   -2.3007 H   0  0  0  0  0  0  0  0  0  0  0  0
   -2.8253    5.0940   -2.0309 H   0  0  0  0  0  0  0  0  0  0  0  0
   -3.6592    6.1631    0.0058 H   0  0  0  0  0  0  0  0  0  0  0  0
   -4.7114    4.7797    1.7897 H   0  0  0  0  0  0  0  0  0  0  0  0
   -4.9286    2.3270    1.5378 H   0  0  0  0  0  0  0  0  0  0  0  0
   -1.4403    0.6136   -1.5145 H   0  0  0  0  0  0  0  0  0  0  0  0
    0.4193    1.8499   -1.4271 H   0  0  0  0  0  0  0  0  0  0  0  0
    0.6093    3.0614   -0.1725 H   0  0  0  0  0  0  0  0  0  0  0  0
    3.3619   -2.4972   -1.1853 H   0  0  0  0  0  0  0  0  0  0  0  0
    3.5697   -1.3075   -2.4827 H   0  0  0  0  0  0  0  0  0  0  0  0
    5.2824   -3.4850   -0.1987 H   0  0  0  0  0  0  0  0  0  0  0  0
    7.7273   -3.7465   -0.1319 H   0  0  0  0  0  0  0  0  0  0  0  0
    9.1353   -2.0827   -1.3081 H   0  0  0  0  0  0  0  0  0  0  0  0
    8.1324   -0.2207   -2.5074 H   0  0  0  0  0  0  0  0  0  0  0  0
    5.7566    0.0474   -2.5867 H   0  0  0  0  0  0  0  0  0  0  0  0
    5.4647    0.9028    2.6181 H   0  0  0  0  0  0  0  0  0  0  0  0
    4.7457    2.7778    4.0720 H   0  0  0  0  0  0  0  0  0  0  0  0
    2.5919    3.9114    3.5643 H   0  0  0  0  0  0  0  0  0  0  0  0
    1.2358    3.2022    1.7041 H   0  0  0  0  0  0  0  0  0  0  0  0
  1  2  1  0
  2  3  1  0
  2  4  1  0
  2  5  1  0
  5  6  1  0
  6  7  2  0
  6  8  1  0
  8  9  1  0
  9 10  1  0
 10 11  2  0
 11 12  1  0
 12 13  2  0
 13 14  1  0
 14 15  2  0
  8 16  1  0
 16 17  1  0
 17 18  2  0
 17 19  1  0
 19 20  1  0
 20 21  1  0
 21 22  2  0
 21 23  1  0
 23 24  1  0
 24 25  1  0
 25 26  2  0
 26 27  1  0
 27 28  2  0
 28 29  1  0
 29 30  2  0
 23 31  2  0
 31 32  1  0
 32 33  2  0
 33 34  1  0
 34 35  2  0
 35 36  1  0
 36 37  2  0
 15 10  1  0
 37 20  1  0
 30 25  1  0
 37 32  1  0
  1 38  1  0
  1 39  1  0
  1 40  1  0
  3 41  1  0
  3 42  1  0
  3 43  1  0
  4 44  1  0
  4 45  1  0
  4 46  1  0
  8 47  1  0
  9 48  1  0
  9 49  1  0
 11 50  1  0
 12 51  1  0
 13 52  1  0
 14 53  1  0
 15 54  1  0
 16 55  1  0
 19 56  1  0
 19 57  1  0
 24 58  1  0
 24 59  1  0
 26 60  1  0
 27 61  1  0
 28 62  1  0
 29 63  1  0
 30 64  1  0
 33 65  1  0
 34 66  1  0
 35 67  1  0
 36 68  1  0
M  END
$$$$
