@<TRIPOS>MOLECULE
*****
 65 66 0 0 0
SMALL
GASTEIGER

@<TRIPOS>ATOM
      1 C           2.5892   -0.2279   -0.9367 C.3     1  UNL1        0.0746
      2 C           3.3114   -1.2331   -1.7898 C.3     1  UNL1       -0.0370
      3 C           3.3850    0.1011    0.3228 C.3     1  UNL1        0.0521
      4 N           4.6713    0.6505   -0.0012 N.ar    1  UNL1       -0.3124
      5 C           4.9677    1.9634   -0.1760 C.ar    1  UNL1        0.0984
      6 N           6.2742    2.1015   -0.4696 N.ar    1  UNL1       -0.2306
      7 C           6.8146    0.8703   -0.4824 C.ar    1  UNL1        0.1472
      8 C           8.0958    0.3625   -0.7160 C.ar    1  UNL1        0.1472
      9 N           9.1632    1.2698   -1.0230 N.pl3   1  UNL1       -0.3413
     10 N           8.3138   -0.9830   -0.6495 N.ar    1  UNL1       -0.2188
     11 C           7.2913   -1.8311   -0.3572 C.ar    1  UNL1        0.1205
     12 N           6.0261   -1.3808   -0.1221 N.ar    1  UNL1       -0.2160
     13 C           5.8178   -0.0376   -0.1906 C.ar    1  UNL1        0.1654
     14 O           1.4149   -0.8586   -0.4978 O.3     1  UNL1       -0.3630
     15 C           0.3071   -0.0810   -0.8900 C.3     1  UNL1        0.1493
     16 P          -1.1621   -0.9282   -0.3068 P.3     1  UNL1        0.3635
     17 O          -1.5427   -2.0205   -1.3033 O.2     1  UNL1       -0.2559
     18 O          -0.8812   -1.6092    1.2197 O.3     1  UNL1       -0.2682
     19 C          -2.0623   -1.5762    1.9912 C.3     1  UNL1        0.2057
     20 O          -3.0071   -2.3428    1.2412 O.3     1  UNL1       -0.4064
     21 C          -2.7971   -3.6628    0.9321 C.2     1  UNL1        0.5124
     22 O          -1.7012   -4.0348    1.3994 O.2     1  UNL1       -0.2028
     23 O          -3.8401   -4.2102    0.1995 O.3     1  UNL1       -0.4310
     24 C          -3.8207   -5.5718   -0.2248 C.3     1  UNL1        0.1009
     25 C          -4.9446   -6.3517    0.4119 C.3     1  UNL1       -0.0279
     26 C          -3.8272   -5.7046   -1.7152 C.3     1  UNL1       -0.0279
     27 O          -2.4613    0.1482   -0.2067 O.3     1  UNL1       -0.2682
     28 C          -1.9606    1.4211    0.0544 C.3     1  UNL1        0.2057
     29 O          -3.0636    2.3132    0.1359 O.3     1  UNL1       -0.4064
     30 C          -2.8588    3.6613    0.3897 C.2     1  UNL1        0.5124
     31 O          -1.7143    4.1532    0.5570 O.2     1  UNL1       -0.2028
     32 O          -3.9964    4.4363    0.4479 O.3     1  UNL1       -0.4310
     33 C          -4.0229    5.8175    0.6915 C.3     1  UNL1        0.1009
     34 C          -4.7862    6.0161    1.9862 C.3     1  UNL1       -0.0279
     35 C          -4.7049    6.6164   -0.3788 C.3     1  UNL1       -0.0279
     36 H           2.3482    0.6989   -1.4672 H       1  UNL1        0.0611
     37 H           3.4676   -2.1381   -1.1526 H       1  UNL1        0.0255
     38 H           4.2487   -0.8597   -2.2431 H       1  UNL1        0.0255
     39 H           2.6447   -1.5014   -2.6268 H       1  UNL1        0.0255
     40 H           2.7522    0.8446    0.8901 H       1  UNL1        0.0518
     41 H           3.4279   -0.8200    0.9366 H       1  UNL1        0.0518
     42 H           4.2224    2.7419   -0.0808 H       1  UNL1        0.1029
     43 H           9.1859    2.0572   -0.3470 H       1  UNL1        0.1438
     44 H           9.8903    1.2669   -1.7841 H       1  UNL1        0.1438
     45 H           7.4321   -2.9007   -0.2973 H       1  UNL1        0.1048
     46 H           0.3179    0.0847   -1.9754 H       1  UNL1        0.0687
     47 H           0.4242    0.8669   -0.2947 H       1  UNL1        0.0687
     48 H          -2.4162   -0.5495    2.1558 H       1  UNL1        0.1023
     49 H          -1.8825   -2.0658    2.9480 H       1  UNL1        0.1023
     50 H          -2.8668   -5.9860    0.1532 H       1  UNL1        0.0729
     51 H          -5.8509   -5.7204    0.5215 H       1  UNL1        0.0265
     52 H          -4.6041   -6.7143    1.4146 H       1  UNL1        0.0265
     53 H          -5.1419   -7.2689   -0.1927 H       1  UNL1        0.0265
     54 H          -2.8184   -5.4910   -2.1442 H       1  UNL1        0.0265
     55 H          -4.6022   -5.1030   -2.2164 H       1  UNL1        0.0265
     56 H          -4.0509   -6.7671   -1.9535 H       1  UNL1        0.0265
     57 H          -1.3401    1.7455   -0.8203 H       1  UNL1        0.1023
     58 H          -1.3952    1.4275    0.9951 H       1  UNL1        0.1023
     59 H          -3.0171    6.2610    0.8405 H       1  UNL1        0.0729
     60 H          -5.7615    5.4720    1.8549 H       1  UNL1        0.0265
     61 H          -4.9594    7.0703    2.2193 H       1  UNL1        0.0265
     62 H          -4.2614    5.4710    2.8063 H       1  UNL1        0.0265
     63 H          -3.9912    7.0279   -1.1307 H       1  UNL1        0.0265
     64 H          -5.1403    7.5264    0.1150 H       1  UNL1        0.0265
     65 H          -5.5499    6.0666   -0.8298 H       1  UNL1        0.0265
@<TRIPOS>BOND
     1     1     2    1
     2     1     3    1
     3     3     4    1
     4     4     5   ar
     5     5     6   ar
     6     6     7   ar
     7     7     8   ar
     8     8     9    1
     9     8    10   ar
    10    10    11   ar
    11    11    12   ar
    12    12    13   ar
    13     1    14    1
    14    14    15    1
    15    15    16    1
    16    16    17    2
    17    16    18    1
    18    18    19    1
    19    19    20    1
    20    20    21    1
    21    21    22    2
    22    21    23    1
    23    23    24    1
    24    24    25    1
    25    24    26    1
    26    16    27    1
    27    27    28    1
    28    28    29    1
    29    29    30    1
    30    30    31    2
    31    30    32    1
    32    32    33    1
    33    33    34    1
    34    33    35    1
    35    13     4   ar
    36    13     7   ar
    37     1    36    1
    38     2    37    1
    39     2    38    1
    40     2    39    1
    41     3    40    1
    42     3    41    1
    43     5    42    1
    44     9    43    1
    45     9    44    1
    46    11    45    1
    47    15    46    1
    48    15    47    1
    49    19    48    1
    50    19    49    1
    51    24    50    1
    52    25    51    1
    53    25    52    1
    54    25    53    1
    55    26    54    1
    56    26    55    1
    57    26    56    1
    58    28    57    1
    59    28    58    1
    60    33    59    1
    61    34    60    1
    62    34    61    1
    63    34    62    1
    64    35    63    1
    65    35    64    1
    66    35    65    1
