@<TRIPOS>MOLECULE
*****
 55 57 0 0 0
SMALL
GASTEIGER

@<TRIPOS>ATOM
      1 C          -2.9488   -2.6777    1.4823 C.3     1  UNL1       -0.0605
      2 C          -1.5417   -2.7196    0.8768 C.3     1  UNL1       -0.0197
      3 C          -1.1833   -4.1491    0.6169 C.3     1  UNL1       -0.0605
      4 C          -1.5509   -1.9555   -0.4458 C.3     1  UNL1        0.1021
      5 N          -1.9811   -0.6002   -0.1388 N.am    1  UNL1       -0.2998
      6 C          -3.1307   -0.0397   -0.7245 C.2     1  UNL1        0.2447
      7 O          -3.7769   -0.7829   -1.5398 O.2     1  UNL1       -0.2702
      8 C          -3.6242    1.2978   -0.4722 C.ar    1  UNL1        0.0367
      9 C          -4.7777    1.7551   -1.1062 C.ar    1  UNL1       -0.0496
     10 C          -5.2134    3.0186   -0.8456 C.ar    1  UNL1       -0.0610
     11 C          -4.5674    3.8807    0.0220 C.ar    1  UNL1       -0.0617
     12 C          -3.4249    3.4307    0.6514 C.ar    1  UNL1       -0.0610
     13 C          -2.9623    2.1374    0.3968 C.ar    1  UNL1       -0.0496
     14 C          -0.2297   -2.0545   -1.0622 C.2     1  UNL1        0.2362
     15 O           0.1534   -3.2878   -1.2610 O.2     1  UNL1       -0.2736
     16 N           0.6894   -1.1127   -1.4731 N.am    1  UNL1       -0.2999
     17 C           2.0118   -1.5353   -2.0112 C.3     1  UNL1        0.0153
     18 C           3.0237   -0.4787   -1.5526 C.3     1  UNL1       -0.0303
     19 C           2.6083   -0.0382   -0.1702 C.3     1  UNL1       -0.0130
     20 C           3.6325    0.7549    0.5104 C.ar    1  UNL1       -0.0441
     21 C           4.1395    0.2923    1.7068 C.ar    1  UNL1       -0.0569
     22 C           5.0979    0.9401    2.4388 C.ar    1  UNL1       -0.0431
     23 C           5.5876    2.1361    1.9433 C.ar    1  UNL1        0.0410
     24 CL          6.8137    2.9879    2.8562 Cl      1  UNL1       -0.0835
     25 C           5.0959    2.6216    0.7459 C.ar    1  UNL1       -0.0431
     26 C           4.1299    1.9473    0.0298 C.ar    1  UNL1       -0.0569
     27 C           1.3686    0.8386   -0.3128 C.3     1  UNL1       -0.0303
     28 C           0.5118    0.3049   -1.4610 C.3     1  UNL1        0.0153
     29 H          -3.6511   -2.9687    0.6646 H       1  UNL1        0.0233
     30 H          -2.9624   -3.4442    2.2751 H       1  UNL1        0.0233
     31 H          -3.1305   -1.6797    1.8828 H       1  UNL1        0.0233
     32 H          -0.8502   -2.2794    1.5852 H       1  UNL1        0.0318
     33 H          -1.5244   -4.4941   -0.3747 H       1  UNL1        0.0233
     34 H          -0.1035   -4.2886    0.7376 H       1  UNL1        0.0233
     35 H          -1.6555   -4.8227    1.4136 H       1  UNL1        0.0233
     36 H          -2.3373   -2.3987   -1.1034 H       1  UNL1        0.0597
     37 H          -1.4426   -0.0225    0.5533 H       1  UNL1        0.1498
     38 H          -5.2726    1.0823   -1.7766 H       1  UNL1        0.0625
     39 H          -6.1153    3.3876   -1.3361 H       1  UNL1        0.0618
     40 H          -4.9533    4.8779    0.1970 H       1  UNL1        0.0618
     41 H          -2.9034    4.0704    1.3260 H       1  UNL1        0.0618
     42 H          -2.0637    1.8565    0.9251 H       1  UNL1        0.0625
     43 H           1.9852   -1.6589   -3.0918 H       1  UNL1        0.0465
     44 H           2.2743   -2.4639   -1.4656 H       1  UNL1        0.0465
     45 H           4.0054   -0.9953   -1.5244 H       1  UNL1        0.0286
     46 H           2.9820    0.3411   -2.2880 H       1  UNL1        0.0286
     47 H           2.3735   -0.9489    0.4066 H       1  UNL1        0.0350
     48 H           3.7755   -0.6542    2.1330 H       1  UNL1        0.0621
     49 H           5.4761    0.5432    3.3832 H       1  UNL1        0.0632
     50 H           5.4974    3.5704    0.3717 H       1  UNL1        0.0632
     51 H           3.7432    2.3210   -0.9037 H       1  UNL1        0.0621
     52 H           1.6378    1.8796   -0.5389 H       1  UNL1        0.0286
     53 H           0.8262    0.8058    0.6346 H       1  UNL1        0.0286
     54 H          -0.4853    0.7023   -1.3756 H       1  UNL1        0.0465
     55 H           0.9236    0.7694   -2.4112 H       1  UNL1        0.0465
@<TRIPOS>BOND
     1     1     2    1
     2     2     3    1
     3     2     4    1
     4     4     5    1
     5     5     6   am
     6     6     7    2
     7     6     8    1
     8     8     9   ar
     9     9    10   ar
    10    10    11   ar
    11    11    12   ar
    12    12    13   ar
    13     4    14    1
    14    14    15    2
    15    14    16   am
    16    16    17    1
    17    17    18    1
    18    18    19    1
    19    19    20    1
    20    20    21   ar
    21    21    22   ar
    22    22    23   ar
    23    23    24    1
    24    23    25   ar
    25    25    26   ar
    26    19    27    1
    27    27    28    1
    28    13     8   ar
    29    28    16    1
    30    26    20   ar
    31     1    29    1
    32     1    30    1
    33     1    31    1
    34     2    32    1
    35     3    33    1
    36     3    34    1
    37     3    35    1
    38     4    36    1
    39     5    37    1
    40     9    38    1
    41    10    39    1
    42    11    40    1
    43    12    41    1
    44    13    42    1
    45    17    43    1
    46    17    44    1
    47    18    45    1
    48    18    46    1
    49    19    47    1
    50    21    48    1
    51    22    49    1
    52    25    50    1
    53    26    51    1
    54    27    52    1
    55    27    53    1
    56    28    54    1
    57    28    55    1
