
     RDKit          3D

 55 57  0  0  0  0  0  0  0  0999 V2000
   -2.9488   -2.6777    1.4823 C   0  0  0  0  0  0  0  0  0  0  0  0
   -1.5417   -2.7196    0.8768 C   0  0  0  0  0  0  0  0  0  0  0  0
   -1.1833   -4.1491    0.6169 C   0  0  0  0  0  0  0  0  0  0  0  0
   -1.5509   -1.9555   -0.4458 C   0  0  1  0  0  0  0  0  0  0  0  0
   -1.9811   -0.6002   -0.1388 N   0  0  0  0  0  0  0  0  0  0  0  0
   -3.1307   -0.0397   -0.7245 C   0  0  0  0  0  0  0  0  0  0  0  0
   -3.7769   -0.7829   -1.5398 O   0  0  0  0  0  0  0  0  0  0  0  0
   -3.6242    1.2978   -0.4722 C   0  0  0  0  0  0  0  0  0  0  0  0
   -4.7777    1.7551   -1.1062 C   0  0  0  0  0  0  0  0  0  0  0  0
   -5.2134    3.0186   -0.8456 C   0  0  0  0  0  0  0  0  0  0  0  0
   -4.5674    3.8807    0.0220 C   0  0  0  0  0  0  0  0  0  0  0  0
   -3.4249    3.4307    0.6514 C   0  0  0  0  0  0  0  0  0  0  0  0
   -2.9623    2.1374    0.3968 C   0  0  0  0  0  0  0  0  0  0  0  0
   -0.2297   -2.0545   -1.0622 C   0  0  0  0  0  0  0  0  0  0  0  0
    0.1534   -3.2878   -1.2610 O   0  0  0  0  0  0  0  0  0  0  0  0
    0.6894   -1.1127   -1.4731 N   0  0  0  0  0  0  0  0  0  0  0  0
    2.0118   -1.5353   -2.0112 C   0  0  0  0  0  0  0  0  0  0  0  0
    3.0237   -0.4787   -1.5526 C   0  0  0  0  0  0  0  0  0  0  0  0
    2.6083   -0.0382   -0.1702 C   0  0  0  0  0  0  0  0  0  0  0  0
    3.6325    0.7549    0.5104 C   0  0  0  0  0  0  0  0  0  0  0  0
    4.1395    0.2923    1.7068 C   0  0  0  0  0  0  0  0  0  0  0  0
    5.0979    0.9401    2.4388 C   0  0  0  0  0  0  0  0  0  0  0  0
    5.5876    2.1361    1.9433 C   0  0  0  0  0  0  0  0  0  0  0  0
    6.8137    2.9879    2.8562 Cl  0  0  0  0  0  0  0  0  0  0  0  0
    5.0959    2.6216    0.7459 C   0  0  0  0  0  0  0  0  0  0  0  0
    4.1299    1.9473    0.0298 C   0  0  0  0  0  0  0  0  0  0  0  0
    1.3686    0.8386   -0.3128 C   0  0  0  0  0  0  0  0  0  0  0  0
    0.5118    0.3049   -1.4610 C   0  0  0  0  0  0  0  0  0  0  0  0
   -3.6511   -2.9687    0.6646 H   0  0  0  0  0  0  0  0  0  0  0  0
   -2.9624   -3.4442    2.2751 H   0  0  0  0  0  0  0  0  0  0  0  0
   -3.1305   -1.6797    1.8828 H   0  0  0  0  0  0  0  0  0  0  0  0
   -0.8502   -2.2794    1.5852 H   0  0  0  0  0  0  0  0  0  0  0  0
   -1.5244   -4.4941   -0.3747 H   0  0  0  0  0  0  0  0  0  0  0  0
   -0.1035   -4.2886    0.7376 H   0  0  0  0  0  0  0  0  0  0  0  0
   -1.6555   -4.8227    1.4136 H   0  0  0  0  0  0  0  0  0  0  0  0
   -2.3373   -2.3987   -1.1034 H   0  0  0  0  0  0  0  0  0  0  0  0
   -1.4426   -0.0225    0.5533 H   0  0  0  0  0  0  0  0  0  0  0  0
   -5.2726    1.0823   -1.7766 H   0  0  0  0  0  0  0  0  0  0  0  0
   -6.1153    3.3876   -1.3361 H   0  0  0  0  0  0  0  0  0  0  0  0
   -4.9533    4.8779    0.1970 H   0  0  0  0  0  0  0  0  0  0  0  0
   -2.9034    4.0704    1.3260 H   0  0  0  0  0  0  0  0  0  0  0  0
   -2.0637    1.8565    0.9251 H   0  0  0  0  0  0  0  0  0  0  0  0
    1.9852   -1.6589   -3.0918 H   0  0  0  0  0  0  0  0  0  0  0  0
    2.2743   -2.4639   -1.4656 H   0  0  0  0  0  0  0  0  0  0  0  0
    4.0054   -0.9953   -1.5244 H   0  0  0  0  0  0  0  0  0  0  0  0
    2.9820    0.3411   -2.2880 H   0  0  0  0  0  0  0  0  0  0  0  0
    2.3735   -0.9489    0.4066 H   0  0  0  0  0  0  0  0  0  0  0  0
    3.7755   -0.6542    2.1330 H   0  0  0  0  0  0  0  0  0  0  0  0
    5.4761    0.5432    3.3832 H   0  0  0  0  0  0  0  0  0  0  0  0
    5.4974    3.5704    0.3717 H   0  0  0  0  0  0  0  0  0  0  0  0
    3.7432    2.3210   -0.9037 H   0  0  0  0  0  0  0  0  0  0  0  0
    1.6378    1.8796   -0.5389 H   0  0  0  0  0  0  0  0  0  0  0  0
    0.8262    0.8058    0.6346 H   0  0  0  0  0  0  0  0  0  0  0  0
   -0.4853    0.7023   -1.3756 H   0  0  0  0  0  0  0  0  0  0  0  0
    0.9236    0.7694   -2.4112 H   0  0  0  0  0  0  0  0  0  0  0  0
  1  2  1  0
  2  3  1  0
  2  4  1  0
  4  5  1  0
  5  6  1  0
  6  7  2  0
  6  8  1  0
  8  9  2  0
  9 10  1  0
 10 11  2  0
 11 12  1  0
 12 13  2  0
  4 14  1  0
 14 15  2  0
 14 16  1  0
 16 17  1  0
 17 18  1  0
 18 19  1  0
 19 20  1  0
 20 21  2  0
 21 22  1  0
 22 23  2  0
 23 24  1  0
 23 25  1  0
 25 26  2  0
 19 27  1  0
 27 28  1  0
 13  8  1  0
 28 16  1  0
 26 20  1  0
  1 29  1  0
  1 30  1  0
  1 31  1  0
  2 32  1  0
  3 33  1  0
  3 34  1  0
  3 35  1  0
  4 36  1  6
  5 37  1  0
  9 38  1  0
 10 39  1  0
 11 40  1  0
 12 41  1  0
 13 42  1  0
 17 43  1  0
 17 44  1  0
 18 45  1  0
 18 46  1  0
 19 47  1  0
 21 48  1  0
 22 49  1  0
 25 50  1  0
 26 51  1  0
 27 52  1  0
 27 53  1  0
 28 54  1  0
 28 55  1  0
M  END
$$$$
