
     RDKit          3D

 54 55  0  0  0  0  0  0  0  0999 V2000
   -6.2978   -2.8132    2.2627 C   0  0  0  0  0  0  0  0  0  0  0  0
   -5.1695   -3.4224    1.6832 O   0  0  0  0  0  0  0  0  0  0  0  0
   -4.4013   -2.6511    0.8052 C   0  0  0  0  0  0  0  0  0  0  0  0
   -3.2787   -3.2023    0.2063 C   0  0  0  0  0  0  0  0  0  0  0  0
   -2.5139   -2.4604   -0.6574 C   0  0  0  0  0  0  0  0  0  0  0  0
   -2.8625   -1.1524   -0.9350 C   0  0  0  0  0  0  0  0  0  0  0  0
   -2.0312   -0.3710   -1.8645 C   0  0  0  0  0  0  0  0  0  0  0  0
   -0.9191    0.3716   -1.1474 C   0  0  0  0  0  0  0  0  0  0  0  0
   -0.1009    1.1307   -2.0154 N   0  0  0  0  0  0  0  0  0  0  0  0
   -0.0456    2.5286   -1.8253 C   0  0  0  0  0  0  0  0  0  0  0  0
    0.4243    2.9994   -0.4798 C   0  0  0  0  0  0  0  0  0  0  0  0
    0.4015    4.5036   -0.5029 C   0  0  0  0  0  0  0  0  0  0  0  0
    0.0328    5.1476   -1.5259 O   0  0  0  0  0  0  0  0  0  0  0  0
    0.7955    5.2740    0.6298 N   0  0  0  0  0  0  0  0  0  0  0  0
    0.7662    6.6225    0.5835 O   0  0  0  0  0  0  0  0  0  0  0  0
    1.2502    0.3626   -2.6732 S   0  0  0  0  0  6  0  0  0  0  0  0
    1.9648    1.1743   -3.6981 O   0  0  0  0  0  0  0  0  0  0  0  0
    0.8095   -0.9136   -3.3692 O   0  0  0  0  0  0  0  0  0  0  0  0
    2.3335   -0.1352   -1.3772 C   0  0  0  0  0  0  0  0  0  0  0  0
    2.1638   -1.3668   -0.7869 C   0  0  0  0  0  0  0  0  0  0  0  0
    3.0133   -1.7518    0.2186 C   0  0  0  0  0  0  0  0  0  0  0  0
    4.0419   -0.9676    0.6799 C   0  0  0  0  0  0  0  0  0  0  0  0
    4.9358   -1.3891    1.7476 C   0  0  0  0  0  0  0  0  0  0  0  0
    6.1410   -0.9785    1.7821 N   0  0  0  0  0  0  0  0  0  0  0  0
    4.4754   -2.2744    2.7797 N   0  0  0  0  0  0  0  0  0  0  0  0
    5.2862   -2.6767    3.7944 O   0  0  0  0  0  0  0  0  0  0  0  0
    4.2065    0.2641    0.0847 C   0  0  0  0  0  0  0  0  0  0  0  0
    3.3534    0.6772   -0.9409 C   0  0  0  0  0  0  0  0  0  0  0  0
   -3.9777   -0.5662   -0.3557 C   0  0  0  0  0  0  0  0  0  0  0  0
   -4.7181   -1.3466    0.5057 C   0  0  0  0  0  0  0  0  0  0  0  0
   -6.9554   -2.4773    1.4176 H   0  0  0  0  0  0  0  0  0  0  0  0
   -6.0255   -1.9342    2.9035 H   0  0  0  0  0  0  0  0  0  0  0  0
   -6.8583   -3.5022    2.9261 H   0  0  0  0  0  0  0  0  0  0  0  0
   -3.0493   -4.2301    0.4571 H   0  0  0  0  0  0  0  0  0  0  0  0
   -1.6268   -2.9225   -1.1196 H   0  0  0  0  0  0  0  0  0  0  0  0
   -2.6983    0.2981   -2.4344 H   0  0  0  0  0  0  0  0  0  0  0  0
   -1.5948   -1.0818   -2.5948 H   0  0  0  0  0  0  0  0  0  0  0  0
   -0.3236   -0.4000   -0.6173 H   0  0  0  0  0  0  0  0  0  0  0  0
   -1.3275    1.0249   -0.3450 H   0  0  0  0  0  0  0  0  0  0  0  0
    0.5520    3.0711   -2.5863 H   0  0  0  0  0  0  0  0  0  0  0  0
   -1.1053    2.9154   -1.9293 H   0  0  0  0  0  0  0  0  0  0  0  0
    1.4531    2.7110   -0.2424 H   0  0  0  0  0  0  0  0  0  0  0  0
   -0.2173    2.6430    0.3508 H   0  0  0  0  0  0  0  0  0  0  0  0
    1.1095    4.7576    1.5027 H   0  0  0  0  0  0  0  0  0  0  0  0
    0.0151    6.9607    0.0265 H   0  0  0  0  0  0  0  0  0  0  0  0
    1.3540   -2.0290   -1.1250 H   0  0  0  0  0  0  0  0  0  0  0  0
    2.8714   -2.7294    0.6804 H   0  0  0  0  0  0  0  0  0  0  0  0
    6.7969   -1.2668    2.5355 H   0  0  0  0  0  0  0  0  0  0  0  0
    3.4790   -2.5931    2.7065 H   0  0  0  0  0  0  0  0  0  0  0  0
    5.3712   -1.9688    4.4816 H   0  0  0  0  0  0  0  0  0  0  0  0
    5.0106    0.8870    0.4396 H   0  0  0  0  0  0  0  0  0  0  0  0
    3.5018    1.6556   -1.3974 H   0  0  0  0  0  0  0  0  0  0  0  0
   -4.2279    0.4670   -0.5934 H   0  0  0  0  0  0  0  0  0  0  0  0
   -5.5841   -0.8732    0.9482 H   0  0  0  0  0  0  0  0  0  0  0  0
  1  2  1  0
  2  3  1  0
  3  4  2  0
  4  5  1  0
  5  6  2  0
  6  7  1  0
  7  8  1  0
  8  9  1  0
  9 10  1  0
 10 11  1  0
 11 12  1  0
 12 13  2  0
 12 14  1  0
 14 15  1  0
  9 16  1  0
 16 17  2  0
 16 18  2  0
 16 19  1  0
 19 20  2  0
 20 21  1  0
 21 22  2  0
 22 23  1  0
 23 24  2  3
 23 25  1  0
 25 26  1  0
 22 27  1  0
 27 28  2  0
  6 29  1  0
 29 30  2  0
 30  3  1  0
 28 19  1  0
  1 31  1  0
  1 32  1  0
  1 33  1  0
  4 34  1  0
  5 35  1  0
  7 36  1  0
  7 37  1  0
  8 38  1  0
  8 39  1  0
 10 40  1  0
 10 41  1  0
 11 42  1  0
 11 43  1  0
 14 44  1  0
 15 45  1  0
 20 46  1  0
 21 47  1  0
 24 48  1  0
 25 49  1  0
 26 50  1  0
 27 51  1  0
 28 52  1  0
 29 53  1  0
 30 54  1  0
M  END
$$$$
