@<TRIPOS>MOLECULE
*****
 54 55 0 0 0
SMALL
GASTEIGER

@<TRIPOS>ATOM
      1 C          -6.2978   -2.8132    2.2627 C.3     1  UNL1        0.0788
      2 O          -5.1695   -3.4224    1.6832 O.3     1  UNL1       -0.4951
      3 C          -4.4013   -2.6511    0.8052 C.ar    1  UNL1        0.1201
      4 C          -3.2787   -3.2023    0.2063 C.ar    1  UNL1       -0.0197
      5 C          -2.5139   -2.4604   -0.6574 C.ar    1  UNL1       -0.0551
      6 C          -2.8625   -1.1524   -0.9350 C.ar    1  UNL1       -0.0459
      7 C          -2.0312   -0.3710   -1.8645 C.3     1  UNL1       -0.0132
      8 C          -0.9191    0.3716   -1.1474 C.3     1  UNL1        0.0245
      9 N          -0.1009    1.1307   -2.0154 N.3     1  UNL1       -0.1758
     10 C          -0.0456    2.5286   -1.8253 C.3     1  UNL1        0.0288
     11 C           0.4243    2.9994   -0.4798 C.3     1  UNL1        0.0403
     12 C           0.4015    4.5036   -0.5029 C.2     1  UNL1        0.2367
     13 O           0.0328    5.1476   -1.5259 O.2     1  UNL1       -0.2737
     14 N           0.7955    5.2740    0.6298 N.am    1  UNL1       -0.1975
     15 O           0.7662    6.6225    0.5835 O.3     1  UNL1       -0.2952
     16 S           1.2502    0.3626   -2.6732 S.O2    1  UNL1        0.0609
     17 O           1.9648    1.1743   -3.6981 O.2     1  UNL1       -0.1528
     18 O           0.8095   -0.9136   -3.3692 O.2     1  UNL1       -0.1528
     19 C           2.3335   -0.1352   -1.3772 C.ar    1  UNL1        0.1055
     20 C           2.1638   -1.3668   -0.7869 C.ar    1  UNL1       -0.0345
     21 C           3.0133   -1.7518    0.2186 C.ar    1  UNL1       -0.0448
     22 C           4.0419   -0.9676    0.6799 C.ar    1  UNL1        0.0696
     23 C           4.9358   -1.3891    1.7476 C.2     1  UNL1        0.3476
     24 N           6.1410   -0.9785    1.7821 N.2     1  UNL1       -0.0954
     25 N           4.4754   -2.2744    2.7797 N.3     1  UNL1       -0.1291
     26 O           5.2862   -2.6767    3.7944 O.3     1  UNL1       -0.2093
     27 C           4.2065    0.2641    0.0847 C.ar    1  UNL1       -0.0448
     28 C           3.3534    0.6772   -0.9409 C.ar    1  UNL1       -0.0345
     29 C          -3.9777   -0.5662   -0.3557 C.ar    1  UNL1       -0.0551
     30 C          -4.7181   -1.3466    0.5057 C.ar    1  UNL1       -0.0197
     31 H          -6.9554   -2.4773    1.4176 H       1  UNL1        0.0660
     32 H          -6.0255   -1.9342    2.9035 H       1  UNL1        0.0660
     33 H          -6.8583   -3.5022    2.9261 H       1  UNL1        0.0660
     34 H          -3.0493   -4.2301    0.4571 H       1  UNL1        0.0654
     35 H          -1.6268   -2.9225   -1.1196 H       1  UNL1        0.0621
     36 H          -2.6983    0.2981   -2.4344 H       1  UNL1        0.0326
     37 H          -1.5948   -1.0818   -2.5948 H       1  UNL1        0.0326
     38 H          -0.3236   -0.4000   -0.6173 H       1  UNL1        0.0447
     39 H          -1.3275    1.0249   -0.3450 H       1  UNL1        0.0447
     40 H           0.5520    3.0711   -2.5863 H       1  UNL1        0.0448
     41 H          -1.1053    2.9154   -1.9293 H       1  UNL1        0.0448
     42 H           1.4531    2.7110   -0.2424 H       1  UNL1        0.0372
     43 H          -0.2173    2.6430    0.3508 H       1  UNL1        0.0372
     44 H           1.1095    4.7576    1.5027 H       1  UNL1        0.1822
     45 H           0.0151    6.9607    0.0265 H       1  UNL1        0.2414
     46 H           1.3540   -2.0290   -1.1250 H       1  UNL1        0.0637
     47 H           2.8714   -2.7294    0.6804 H       1  UNL1        0.0627
     48 H           6.7969   -1.2668    2.5355 H       1  UNL1        0.3635
     49 H           3.4790   -2.5931    2.7065 H       1  UNL1        0.3483
     50 H           5.3712   -1.9688    4.4816 H       1  UNL1        0.2712
     51 H           5.0106    0.8870    0.4396 H       1  UNL1        0.0627
     52 H           3.5018    1.6556   -1.3974 H       1  UNL1        0.0637
     53 H          -4.2279    0.4670   -0.5934 H       1  UNL1        0.0621
     54 H          -5.5841   -0.8732    0.9482 H       1  UNL1        0.0654
@<TRIPOS>BOND
     1     1     2    1
     2     2     3    1
     3     3     4   ar
     4     4     5   ar
     5     5     6   ar
     6     6     7    1
     7     7     8    1
     8     8     9    1
     9     9    10    1
    10    10    11    1
    11    11    12    1
    12    12    13    2
    13    12    14   am
    14    14    15    1
    15     9    16    1
    16    16    17    2
    17    16    18    2
    18    16    19    1
    19    19    20   ar
    20    20    21   ar
    21    21    22   ar
    22    22    23    1
    23    23    24    2
    24    23    25    1
    25    25    26    1
    26    22    27   ar
    27    27    28   ar
    28     6    29   ar
    29    29    30   ar
    30    30     3   ar
    31    28    19   ar
    32     1    31    1
    33     1    32    1
    34     1    33    1
    35     4    34    1
    36     5    35    1
    37     7    36    1
    38     7    37    1
    39     8    38    1
    40     8    39    1
    41    10    40    1
    42    10    41    1
    43    11    42    1
    44    11    43    1
    45    14    44    1
    46    15    45    1
    47    20    46    1
    48    21    47    1
    49    24    48    1
    50    25    49    1
    51    26    50    1
    52    27    51    1
    53    28    52    1
    54    29    53    1
    55    30    54    1
