@<TRIPOS>MOLECULE
*****
 40 42 0 0 0
SMALL
GASTEIGER

@<TRIPOS>ATOM
      1 C          -3.9322   -3.1467   -0.9373 C.3     1  UNL1       -0.0397
      2 C          -3.1819   -1.8925   -0.6421 C.ar    1  UNL1       -0.0504
      3 C          -3.4924   -0.7057   -1.2764 C.ar    1  UNL1       -0.0582
      4 C          -2.7977    0.4275   -0.9948 C.ar    1  UNL1       -0.0523
      5 C          -1.7510    0.4673   -0.0696 C.ar    1  UNL1        0.0005
      6 C          -1.0511    1.7201    0.1808 C.ar    1  UNL1        0.0752
      7 C          -1.6173    2.9625    0.3719 C.ar    1  UNL1       -0.0039
      8 C          -0.5916    3.8620    0.5754 C.ar    1  UNL1        0.1662
      9 C          -0.7083    5.3373    0.8275 C.3     1  UNL1        0.4360
     10 F           0.2316    6.0358    0.0936 F       1  UNL1       -0.1644
     11 F          -1.9492    5.7439    0.3800 F       1  UNL1       -0.1644
     12 F          -0.5085    5.6009    2.1528 F       1  UNL1       -0.1644
     13 N           0.5417    3.1456    0.5018 N.ar    1  UNL1       -0.1618
     14 N           0.2851    1.8606    0.2659 N.ar    1  UNL1       -0.2316
     15 C           1.2976    0.8827    0.1413 C.ar    1  UNL1        0.0661
     16 C           1.9895    0.4898    1.2604 C.ar    1  UNL1       -0.0344
     17 C           2.9933   -0.4613    1.2175 C.ar    1  UNL1       -0.0334
     18 C           3.3266   -1.0480    0.0187 C.ar    1  UNL1        0.1051
     19 S           4.6026   -2.2441    0.0211 S.O2    1  UNL1        0.0559
     20 N           3.8747   -3.7868    0.2929 N.3     1  UNL1       -0.2035
     21 O           5.5487   -1.9424    1.1475 O.2     1  UNL1       -0.1533
     22 O           5.3793   -2.2271   -1.2639 O.2     1  UNL1       -0.1533
     23 C           2.6533   -0.6743   -1.1082 C.ar    1  UNL1       -0.0334
     24 C           1.6433    0.2865   -1.0483 C.ar    1  UNL1       -0.0344
     25 C          -1.4404   -0.7165    0.5639 C.ar    1  UNL1       -0.0523
     26 C          -2.1559   -1.8813    0.2730 C.ar    1  UNL1       -0.0582
     27 H          -4.3251   -3.5638    0.0108 H       1  UNL1        0.0278
     28 H          -3.3509   -3.8661   -1.5127 H       1  UNL1        0.0278
     29 H          -4.8244   -2.8642   -1.5474 H       1  UNL1        0.0278
     30 H          -4.2983   -0.7064   -1.9977 H       1  UNL1        0.0620
     31 H          -3.0569    1.3466   -1.5027 H       1  UNL1        0.0624
     32 H          -2.6763    3.2294    0.3704 H       1  UNL1        0.0660
     33 H           1.7378    0.9416    2.2038 H       1  UNL1        0.0639
     34 H           3.4981   -0.7192    2.1598 H       1  UNL1        0.0638
     35 H           3.6089   -4.1619   -0.6578 H       1  UNL1        0.1442
     36 H           3.0196   -3.6378    0.8630 H       1  UNL1        0.1442
     37 H           2.9145   -1.1334   -2.0448 H       1  UNL1        0.0638
     38 H           1.1058    0.5858   -1.9439 H       1  UNL1        0.0639
     39 H          -0.6384   -0.7375    1.2882 H       1  UNL1        0.0624
     40 H          -1.9041   -2.8086    0.7769 H       1  UNL1        0.0620
@<TRIPOS>BOND
     1     1     2    1
     2     2     3   ar
     3     3     4   ar
     4     4     5   ar
     5     5     6    1
     6     6     7   ar
     7     7     8   ar
     8     8     9    1
     9     9    10    1
    10     9    11    1
    11     9    12    1
    12     8    13   ar
    13    13    14   ar
    14    14    15    1
    15    15    16   ar
    16    16    17   ar
    17    17    18   ar
    18    18    19    1
    19    19    20    1
    20    19    21    2
    21    19    22    2
    22    18    23   ar
    23    23    24   ar
    24     5    25   ar
    25    25    26   ar
    26    26     2   ar
    27    14     6   ar
    28    24    15   ar
    29     1    27    1
    30     1    28    1
    31     1    29    1
    32     3    30    1
    33     4    31    1
    34     7    32    1
    35    16    33    1
    36    17    34    1
    37    20    35    1
    38    20    36    1
    39    23    37    1
    40    24    38    1
    41    25    39    1
    42    26    40    1
