
     RDKit          3D

 26 26  0  0  0  0  0  0  0  0999 V2000
    1.5743   -2.0060   -0.7539 C   0  0  0  0  0  0  0  0  0  0  0  0
    1.7794   -0.5228   -0.8620 C   0  0  0  0  0  0  0  0  0  0  0  0
    1.1604    0.2050    0.3210 C   0  0  2  0  0  0  0  0  0  0  0  0
   -0.2540   -0.0564    0.3688 N   0  0  0  0  0  0  0  0  0  0  0  0
   -1.1809    0.4076   -0.6474 C   0  0  0  0  0  0  0  0  0  0  0  0
   -2.5161    0.2439    0.0490 C   0  0  0  0  0  0  0  0  0  0  0  0
   -2.2991   -1.0576    0.7919 C   0  0  0  0  0  0  0  0  0  0  0  0
   -0.9457   -0.7914    1.3934 C   0  0  0  0  0  0  0  0  0  0  0  0
   -0.4512   -1.0986    2.5126 O   0  0  0  0  0  0  0  0  0  0  0  0
    1.4656    1.6386    0.2888 C   0  0  0  0  0  0  0  0  0  0  0  0
    0.7764    2.8814    0.2903 N   0  0  0  0  0  0  0  0  0  0  0  0
    2.7319    1.7377    0.2482 O   0  0  0  0  0  0  0  0  0  0  0  0
    2.2413   -2.4930   -1.5171 H   0  0  0  0  0  0  0  0  0  0  0  0
    0.5207   -2.2428   -0.9565 H   0  0  0  0  0  0  0  0  0  0  0  0
    1.8868   -2.3053    0.2827 H   0  0  0  0  0  0  0  0  0  0  0  0
    1.3519   -0.1086   -1.7975 H   0  0  0  0  0  0  0  0  0  0  0  0
    2.8673   -0.3241   -0.8547 H   0  0  0  0  0  0  0  0  0  0  0  0
    1.6067   -0.2746    1.2326 H   0  0  0  0  0  0  0  0  0  0  0  0
   -1.0707    1.4667   -0.9126 H   0  0  0  0  0  0  0  0  0  0  0  0
   -1.1274   -0.2460   -1.5426 H   0  0  0  0  0  0  0  0  0  0  0  0
   -2.6307    1.0397    0.7945 H   0  0  0  0  0  0  0  0  0  0  0  0
   -3.3556    0.1824   -0.6673 H   0  0  0  0  0  0  0  0  0  0  0  0
   -2.1844   -1.9141    0.0889 H   0  0  0  0  0  0  0  0  0  0  0  0
   -3.0720   -1.2479    1.5577 H   0  0  0  0  0  0  0  0  0  0  0  0
    1.0149    3.4309    1.1670 H   0  0  0  0  0  0  0  0  0  0  0  0
    0.1100    3.4553   -0.2704 H   0  0  0  0  0  0  0  0  0  0  0  0
  1  2  1  0
  2  3  1  0
  3  4  1  0
  4  5  1  0
  5  6  1  0
  6  7  1  0
  7  8  1  0
  8  9  2  0
  3 10  1  0
 10 11  1  0
 10 12  2  0
  8  4  1  0
  1 13  1  0
  1 14  1  0
  1 15  1  0
  2 16  1  0
  2 17  1  0
  3 18  1  1
  5 19  1  0
  5 20  1  0
  6 21  1  0
  6 22  1  0
  7 23  1  0
  7 24  1  0
 11 25  1  0
 11 26  1  0
M  END
$$$$
