@<TRIPOS>MOLECULE
*****
 26 26 0 0 0
SMALL
GASTEIGER

@<TRIPOS>ATOM
      1 C           1.5743   -2.0060   -0.7539 C.3     1  UNL1       -0.0631
      2 C           1.7794   -0.5228   -0.8620 C.3     1  UNL1       -0.0286
      3 C           1.1604    0.2050    0.3210 C.3     1  UNL1        0.1017
      4 N          -0.2540   -0.0564    0.3688 N.am    1  UNL1       -0.2899
      5 C          -1.1809    0.4076   -0.6474 C.3     1  UNL1        0.0159
      6 C          -2.5161    0.2439    0.0490 C.3     1  UNL1       -0.0289
      7 C          -2.2991   -1.0576    0.7919 C.3     1  UNL1        0.0256
      8 C          -0.9457   -0.7914    1.3934 C.2     1  UNL1        0.2162
      9 O          -0.4512   -1.0986    2.5126 O.2     1  UNL1       -0.2756
     10 C           1.4656    1.6386    0.2888 C.2     1  UNL1        0.2310
     11 N           0.7764    2.8814    0.2903 N.am    1  UNL1       -0.3278
     12 O           2.7319    1.7377    0.2482 O.2     1  UNL1       -0.2740
     13 H           2.2413   -2.4930   -1.5171 H       1  UNL1        0.0230
     14 H           0.5207   -2.2428   -0.9565 H       1  UNL1        0.0230
     15 H           1.8868   -2.3053    0.2827 H       1  UNL1        0.0230
     16 H           1.3519   -0.1086   -1.7975 H       1  UNL1        0.0285
     17 H           2.8673   -0.3241   -0.8547 H       1  UNL1        0.0285
     18 H           1.6067   -0.2746    1.2326 H       1  UNL1        0.0596
     19 H          -1.0707    1.4667   -0.9126 H       1  UNL1        0.0465
     20 H          -1.1274   -0.2460   -1.5426 H       1  UNL1        0.0465
     21 H          -2.6307    1.0397    0.7945 H       1  UNL1        0.0285
     22 H          -3.3556    0.1824   -0.6673 H       1  UNL1        0.0285
     23 H          -2.1844   -1.9141    0.0889 H       1  UNL1        0.0359
     24 H          -3.0720   -1.2479    1.5577 H       1  UNL1        0.0359
     25 H           1.0149    3.4309    1.1670 H       1  UNL1        0.1450
     26 H           0.1100    3.4553   -0.2704 H       1  UNL1        0.1450
@<TRIPOS>BOND
     1     1     2    1
     2     2     3    1
     3     3     4    1
     4     4     5    1
     5     5     6    1
     6     6     7    1
     7     7     8    1
     8     8     9    2
     9     3    10    1
    10    10    11   am
    11    10    12    2
    12     8     4   am
    13     1    13    1
    14     1    14    1
    15     1    15    1
    16     2    16    1
    17     2    17    1
    18     3    18    1
    19     5    19    1
    20     5    20    1
    21     6    21    1
    22     6    22    1
    23     7    23    1
    24     7    24    1
    25    11    25    1
    26    11    26    1
