
     RDKit          3D

 40 42  0  0  0  0  0  0  0  0999 V2000
    2.6805   -0.4143    2.4203 O   0  0  0  0  0  0  0  0  0  0  0  0
    1.8989   -0.4451    1.4250 C   0  0  0  0  0  0  0  0  0  0  0  0
    2.1845   -1.4288    0.4485 N   0  0  0  0  0  0  0  0  0  0  0  0
    3.2796   -2.3335    0.5599 C   0  0  0  0  0  0  0  0  0  0  0  0
    3.0811   -3.5573    1.2200 C   0  0  0  0  0  0  0  0  0  0  0  0
    1.5379   -3.9823    1.8974 Cl  0  0  0  0  0  0  0  0  0  0  0  0
    4.2046   -4.3674    1.2745 C   0  0  0  0  0  0  0  0  0  0  0  0
    5.3964   -4.0421    0.7519 N   0  0  0  0  0  0  0  0  0  0  0  0
    5.5857   -2.8608    0.1160 C   0  0  0  0  0  0  0  0  0  0  0  0
    4.5016   -2.0001    0.0248 C   0  0  0  0  0  0  0  0  0  0  0  0
    4.6272   -0.4442   -0.7766 Cl  0  0  0  0  0  0  0  0  0  0  0  0
    0.7835    0.5070    1.3470 C   0  0  0  0  0  0  0  0  0  0  0  0
    0.5574    1.4025    2.3720 C   0  0  0  0  0  0  0  0  0  0  0  0
   -0.4851    2.3091    2.3252 C   0  0  0  0  0  0  0  0  0  0  0  0
   -1.3538    2.3819    1.2755 C   0  0  0  0  0  0  0  0  0  0  0  0
   -2.4174    3.2604    1.1574 O   0  0  0  0  0  0  0  0  0  0  0  0
   -2.7277    4.2025    2.1286 C   0  0  0  0  0  0  0  0  0  0  0  0
   -2.7267    5.4688    1.5032 F   0  0  0  0  0  0  0  0  0  0  0  0
   -4.0694    4.0631    2.5433 F   0  0  0  0  0  0  0  0  0  0  0  0
   -1.1369    1.4651    0.2068 C   0  0  0  0  0  0  0  0  0  0  0  0
   -1.9248    1.4845   -0.8134 O   0  0  0  0  0  0  0  0  0  0  0  0
   -2.5527    1.2935   -1.9405 C   0  0  0  0  0  0  0  0  0  0  0  0
   -3.1495   -0.0905   -2.1766 C   0  0  0  0  0  0  0  0  0  0  0  0
   -3.9008   -0.3287   -3.4921 C   0  0  0  0  0  0  0  0  0  0  0  0
   -2.5979   -0.9767   -3.2345 C   0  0  0  0  0  0  0  0  0  0  0  0
   -0.0770    0.5663    0.2878 C   0  0  0  0  0  0  0  0  0  0  0  0
    1.5755   -1.5015   -0.3878 H   0  0  0  0  0  0  0  0  0  0  0  0
    4.0897   -5.3325    1.7832 H   0  0  0  0  0  0  0  0  0  0  0  0
    6.5230   -2.5509   -0.3206 H   0  0  0  0  0  0  0  0  0  0  0  0
    1.2224    1.3726    3.2182 H   0  0  0  0  0  0  0  0  0  0  0  0
   -0.6272    3.0008    3.1602 H   0  0  0  0  0  0  0  0  0  0  0  0
   -2.1082    4.2497    3.0163 H   0  0  0  0  0  0  0  0  0  0  0  0
   -1.8443    1.4281   -2.8248 H   0  0  0  0  0  0  0  0  0  0  0  0
   -3.3808    2.0209   -2.2180 H   0  0  0  0  0  0  0  0  0  0  0  0
   -3.6054   -0.5516   -1.2973 H   0  0  0  0  0  0  0  0  0  0  0  0
   -4.8202   -0.9461   -3.4745 H   0  0  0  0  0  0  0  0  0  0  0  0
   -3.9636    0.5342   -4.2069 H   0  0  0  0  0  0  0  0  0  0  0  0
   -1.7327   -0.6311   -3.8651 H   0  0  0  0  0  0  0  0  0  0  0  0
   -2.6214   -2.0805   -3.0832 H   0  0  0  0  0  0  0  0  0  0  0  0
    0.0940   -0.1451   -0.5407 H   0  0  0  0  0  0  0  0  0  0  0  0
  1  2  2  0
  2  3  1  0
  3  4  1  0
  4  5  2  0
  5  6  1  0
  5  7  1  0
  7  8  2  0
  8  9  1  0
  9 10  2  0
 10 11  1  0
  2 12  1  0
 12 13  2  0
 13 14  1  0
 14 15  2  0
 15 16  1  0
 16 17  1  0
 17 18  1  0
 17 19  1  0
 15 20  1  0
 20 21  1  0
 21 22  1  0
 22 23  1  0
 23 24  1  0
 24 25  1  0
 20 26  2  0
 10  4  1  0
 26 12  1  0
 25 23  1  0
  3 27  1  0
  7 28  1  0
  9 29  1  0
 13 30  1  0
 14 31  1  0
 17 32  1  0
 22 33  1  0
 22 34  1  0
 23 35  1  0
 24 36  1  0
 24 37  1  0
 25 38  1  0
 25 39  1  0
 26 40  1  0
M  END
$$$$
