@<TRIPOS>MOLECULE
*****
 40 42 0 0 0
SMALL
GASTEIGER

@<TRIPOS>ATOM
      1 O           2.6805   -0.4143    2.4203 O.2     1  UNL1       -0.2698
      2 C           1.8989   -0.4451    1.4250 C.2     1  UNL1        0.2484
      3 N           2.1845   -1.4288    0.4485 N.am    1  UNL1       -0.2790
      4 C           3.2796   -2.3335    0.5599 C.ar    1  UNL1        0.0736
      5 C           3.0811   -3.5573    1.2200 C.ar    1  UNL1        0.0816
      6 CL          1.5379   -3.9823    1.8974 Cl      1  UNL1       -0.0800
      7 C           4.2046   -4.3674    1.2745 C.ar    1  UNL1        0.0478
      8 N           5.3964   -4.0421    0.7519 N.ar    1  UNL1       -0.2602
      9 C           5.5857   -2.8608    0.1160 C.ar    1  UNL1        0.0478
     10 C           4.5016   -2.0001    0.0248 C.ar    1  UNL1        0.0816
     11 CL          4.6272   -0.4442   -0.7766 Cl      1  UNL1       -0.0800
     12 C           0.7835    0.5070    1.3470 C.ar    1  UNL1        0.0407
     13 C           0.5574    1.4025    2.3720 C.ar    1  UNL1       -0.0459
     14 C          -0.4851    2.3091    2.3252 C.ar    1  UNL1       -0.0154
     15 C          -1.3538    2.3819    1.2755 C.ar    1  UNL1        0.1683
     16 O          -2.4174    3.2604    1.1574 O.3     1  UNL1       -0.4305
     17 C          -2.7277    4.2025    2.1286 C.3     1  UNL1        0.3894
     18 F          -2.7267    5.4688    1.5032 F       1  UNL1       -0.1663
     19 F          -4.0694    4.0631    2.5433 F       1  UNL1       -0.1663
     20 C          -1.1369    1.4651    0.2068 C.ar    1  UNL1        0.1628
     21 O          -1.9248    1.4845   -0.8134 O.3     1  UNL1       -0.4880
     22 C          -2.5527    1.2935   -1.9405 C.3     1  UNL1        0.0926
     23 C          -3.1495   -0.0905   -2.1766 C.3     1  UNL1       -0.0068
     24 C          -3.9008   -0.3287   -3.4921 C.3     1  UNL1       -0.0468
     25 C          -2.5979   -0.9767   -3.2345 C.3     1  UNL1       -0.0468
     26 C          -0.0770    0.5663    0.2878 C.ar    1  UNL1       -0.0042
     27 H           1.5755   -1.5015   -0.3878 H       1  UNL1        0.1552
     28 H           4.0897   -5.3325    1.7832 H       1  UNL1        0.0845
     29 H           6.5230   -2.5509   -0.3206 H       1  UNL1        0.0845
     30 H           1.2224    1.3726    3.2182 H       1  UNL1        0.0626
     31 H          -0.6272    3.0008    3.1602 H       1  UNL1        0.0655
     32 H          -2.1082    4.2497    3.0163 H       1  UNL1        0.1520
     33 H          -1.8443    1.4281   -2.8248 H       1  UNL1        0.0699
     34 H          -3.3808    2.0209   -2.2180 H       1  UNL1        0.0699
     35 H          -3.6054   -0.5516   -1.2973 H       1  UNL1        0.0334
     36 H          -4.8202   -0.9461   -3.4745 H       1  UNL1        0.0269
     37 H          -3.9636    0.5342   -4.2069 H       1  UNL1        0.0269
     38 H          -1.7327   -0.6311   -3.8651 H       1  UNL1        0.0269
     39 H          -2.6214   -2.0805   -3.0832 H       1  UNL1        0.0269
     40 H           0.0940   -0.1451   -0.5407 H       1  UNL1        0.0663
@<TRIPOS>BOND
     1     1     2    2
     2     2     3   am
     3     3     4    1
     4     4     5   ar
     5     5     6    1
     6     5     7   ar
     7     7     8   ar
     8     8     9   ar
     9     9    10   ar
    10    10    11    1
    11     2    12    1
    12    12    13   ar
    13    13    14   ar
    14    14    15   ar
    15    15    16    1
    16    16    17    1
    17    17    18    1
    18    17    19    1
    19    15    20   ar
    20    20    21    1
    21    21    22    1
    22    22    23    1
    23    23    24    1
    24    24    25    1
    25    20    26   ar
    26    10     4   ar
    27    26    12   ar
    28    25    23    1
    29     3    27    1
    30     7    28    1
    31     9    29    1
    32    13    30    1
    33    14    31    1
    34    17    32    1
    35    22    33    1
    36    22    34    1
    37    23    35    1
    38    24    36    1
    39    24    37    1
    40    25    38    1
    41    25    39    1
    42    26    40    1
