
     RDKit          3D

 46 47  0  0  0  0  0  0  0  0999 V2000
    4.6614   -0.9009    3.0370 C   0  0  0  0  0  0  0  0  0  0  0  0
    5.2724   -0.3033    1.9519 O   0  0  0  0  0  0  0  0  0  0  0  0
    4.7314    0.9052    1.5637 C   0  0  0  0  0  0  0  0  0  0  0  0
    3.3042    0.8459    1.1651 C   0  0  0  0  0  0  0  0  0  0  0  0
    3.0321   -0.0111    0.0774 O   0  0  0  0  0  0  0  0  0  0  0  0
    1.7342   -0.1888   -0.4143 C   0  0  0  0  0  0  0  0  0  0  0  0
    1.1607    0.5605   -1.3977 C   0  0  0  0  0  0  0  0  0  0  0  0
    1.9458    1.5766   -1.9419 O   0  0  0  0  0  0  0  0  0  0  0  0
    1.3558    2.3581   -2.9572 C   0  0  0  0  0  0  0  0  0  0  0  0
   -0.1259    0.2813   -1.7876 C   0  0  0  0  0  0  0  0  0  0  0  0
   -0.8813   -0.7268   -1.2339 C   0  0  0  0  0  0  0  0  0  0  0  0
   -2.2565   -0.9634   -1.7039 C   0  0  0  0  0  0  0  0  0  0  0  0
   -3.3393   -0.4354   -0.8904 C   0  0  0  0  0  0  0  0  0  0  0  0
   -4.1006   -1.2512   -0.0415 C   0  0  0  0  0  0  0  0  0  0  0  0
   -5.0930   -0.6623    0.6619 N   0  0  0  0  0  0  0  0  0  0  0  0
   -5.3947    0.6226    0.6079 C   0  0  0  0  0  0  0  0  0  0  0  0
   -6.4455    1.2225    1.3511 N   0  0  0  0  0  0  0  0  0  0  0  0
   -4.6747    1.4392   -0.2056 N   0  0  0  0  0  0  0  0  0  0  0  0
   -3.6643    0.8861   -0.9331 C   0  0  0  0  0  0  0  0  0  0  0  0
   -2.9853    1.8519   -1.7545 N   0  0  0  0  0  0  0  0  0  0  0  0
   -0.3084   -1.4802   -0.2469 C   0  0  0  0  0  0  0  0  0  0  0  0
    1.0077   -1.2464    0.1999 C   0  0  0  0  0  0  0  0  0  0  0  0
    1.5954   -1.9427    1.1400 O   0  0  0  0  0  0  0  0  0  0  0  0
    1.4179   -2.9695    2.0040 C   0  0  0  0  0  0  0  0  0  0  0  0
    3.5927   -1.1068    2.8398 H   0  0  0  0  0  0  0  0  0  0  0  0
    4.8484   -0.4190    3.9926 H   0  0  0  0  0  0  0  0  0  0  0  0
    5.1321   -1.9322    3.1121 H   0  0  0  0  0  0  0  0  0  0  0  0
    4.7890    1.5939    2.4559 H   0  0  0  0  0  0  0  0  0  0  0  0
    5.4239    1.3285    0.8142 H   0  0  0  0  0  0  0  0  0  0  0  0
    2.6873    0.6359    2.0540 H   0  0  0  0  0  0  0  0  0  0  0  0
    3.0207    1.8909    0.8329 H   0  0  0  0  0  0  0  0  0  0  0  0
    0.3522    2.7106   -2.6992 H   0  0  0  0  0  0  0  0  0  0  0  0
    2.0233    3.1804   -3.2993 H   0  0  0  0  0  0  0  0  0  0  0  0
    1.2462    1.6756   -3.8278 H   0  0  0  0  0  0  0  0  0  0  0  0
   -0.5362    0.8896   -2.5724 H   0  0  0  0  0  0  0  0  0  0  0  0
   -2.4145   -2.0823   -1.8070 H   0  0  0  0  0  0  0  0  0  0  0  0
   -2.3645   -0.5760   -2.7454 H   0  0  0  0  0  0  0  0  0  0  0  0
   -3.8500   -2.2801   -0.0052 H   0  0  0  0  0  0  0  0  0  0  0  0
   -7.2789    0.6661    1.5829 H   0  0  0  0  0  0  0  0  0  0  0  0
   -6.3637    2.2024    1.6532 H   0  0  0  0  0  0  0  0  0  0  0  0
   -2.1153    2.2608   -1.3972 H   0  0  0  0  0  0  0  0  0  0  0  0
   -3.3950    2.1088   -2.6653 H   0  0  0  0  0  0  0  0  0  0  0  0
   -0.9035   -2.2748    0.1957 H   0  0  0  0  0  0  0  0  0  0  0  0
    2.1938   -3.7556    1.8579 H   0  0  0  0  0  0  0  0  0  0  0  0
    1.5262   -2.6747    3.0846 H   0  0  0  0  0  0  0  0  0  0  0  0
    0.4364   -3.5099    1.8646 H   0  0  0  0  0  0  0  0  0  0  0  0
  1  2  1  0
  2  3  1  0
  3  4  1  0
  4  5  1  0
  5  6  1  0
  6  7  2  0
  7  8  1  0
  8  9  1  0
  7 10  1  0
 10 11  2  0
 11 12  1  0
 12 13  1  0
 13 14  2  0
 14 15  1  0
 15 16  2  0
 16 17  1  0
 16 18  1  0
 18 19  2  0
 19 20  1  0
 11 21  1  0
 21 22  2  0
 22 23  1  0
 23 24  1  0
 22  6  1  0
 19 13  1  0
  1 25  1  0
  1 26  1  0
  1 27  1  0
  3 28  1  0
  3 29  1  0
  4 30  1  0
  4 31  1  0
  9 32  1  0
  9 33  1  0
  9 34  1  0
 10 35  1  0
 12 36  1  0
 12 37  1  0
 14 38  1  0
 17 39  1  0
 17 40  1  0
 20 41  1  0
 20 42  1  0
 21 43  1  0
 24 44  1  0
 24 45  1  0
 24 46  1  0
M  END
$$$$
