@<TRIPOS>MOLECULE
*****
 46 47 0 0 0
SMALL
GASTEIGER

@<TRIPOS>ATOM
      1 C           4.6614   -0.9009    3.0370 C.3     1  UNL1        0.0366
      2 O           5.2724   -0.3033    1.9519 O.3     1  UNL1       -0.3796
      3 C           4.7314    0.9052    1.5637 C.3     1  UNL1        0.0814
      4 C           3.3042    0.8459    1.1651 C.3     1  UNL1        0.1131
      5 O           3.0321   -0.0111    0.0774 O.3     1  UNL1       -0.4829
      6 C           1.7342   -0.1888   -0.4143 C.ar    1  UNL1        0.2038
      7 C           1.1607    0.5605   -1.3977 C.ar    1  UNL1        0.1654
      8 O           1.9458    1.5766   -1.9419 O.3     1  UNL1       -0.4913
      9 C           1.3558    2.3581   -2.9572 C.3     1  UNL1        0.0790
     10 C          -0.1259    0.2813   -1.7876 C.ar    1  UNL1       -0.0126
     11 C          -0.8813   -0.7268   -1.2339 C.ar    1  UNL1       -0.0358
     12 C          -2.2565   -0.9634   -1.7039 C.3     1  UNL1        0.0025
     13 C          -3.3393   -0.4354   -0.8904 C.ar    1  UNL1        0.0146
     14 C          -4.1006   -1.2512   -0.0415 C.ar    1  UNL1        0.0379
     15 N          -5.0930   -0.6623    0.6619 N.ar    1  UNL1       -0.2227
     16 C          -5.3947    0.6226    0.6079 C.ar    1  UNL1        0.2142
     17 N          -6.4455    1.2225    1.3511 N.pl3   1  UNL1       -0.3274
     18 N          -4.6747    1.4392   -0.2056 N.ar    1  UNL1       -0.1999
     19 C          -3.6643    0.8861   -0.9331 C.ar    1  UNL1        0.1247
     20 N          -2.9853    1.8519   -1.7545 N.pl3   1  UNL1       -0.3428
     21 C          -0.3084   -1.4802   -0.2469 C.ar    1  UNL1       -0.0126
     22 C           1.0077   -1.2464    0.1999 C.ar    1  UNL1        0.1654
     23 O           1.5954   -1.9427    1.1400 O.3     1  UNL1       -0.4913
     24 C           1.4179   -2.9695    2.0040 C.3     1  UNL1        0.0790
     25 H           3.5927   -1.1068    2.8398 H       1  UNL1        0.0524
     26 H           4.8484   -0.4190    3.9926 H       1  UNL1        0.0524
     27 H           5.1321   -1.9322    3.1121 H       1  UNL1        0.0524
     28 H           4.7890    1.5939    2.4559 H       1  UNL1        0.0593
     29 H           5.4239    1.3285    0.8142 H       1  UNL1        0.0593
     30 H           2.6873    0.6359    2.0540 H       1  UNL1        0.0720
     31 H           3.0207    1.8909    0.8329 H       1  UNL1        0.0720
     32 H           0.3522    2.7106   -2.6992 H       1  UNL1        0.0660
     33 H           2.0233    3.1804   -3.2993 H       1  UNL1        0.0660
     34 H           1.2462    1.6756   -3.8278 H       1  UNL1        0.0660
     35 H          -0.5362    0.8896   -2.5724 H       1  UNL1        0.0658
     36 H          -2.4145   -2.0823   -1.8070 H       1  UNL1        0.0363
     37 H          -2.3645   -0.5760   -2.7454 H       1  UNL1        0.0363
     38 H          -3.8500   -2.2801   -0.0052 H       1  UNL1        0.0834
     39 H          -7.2789    0.6661    1.5829 H       1  UNL1        0.1452
     40 H          -6.3637    2.2024    1.6532 H       1  UNL1        0.1452
     41 H          -2.1153    2.2608   -1.3972 H       1  UNL1        0.1437
     42 H          -3.3950    2.1088   -2.6653 H       1  UNL1        0.1437
     43 H          -0.9035   -2.2748    0.1957 H       1  UNL1        0.0658
     44 H           2.1938   -3.7556    1.8579 H       1  UNL1        0.0660
     45 H           1.5262   -2.6747    3.0846 H       1  UNL1        0.0660
     46 H           0.4364   -3.5099    1.8646 H       1  UNL1        0.0660
@<TRIPOS>BOND
     1     1     2    1
     2     2     3    1
     3     3     4    1
     4     4     5    1
     5     5     6    1
     6     6     7   ar
     7     7     8    1
     8     8     9    1
     9     7    10   ar
    10    10    11   ar
    11    11    12    1
    12    12    13    1
    13    13    14   ar
    14    14    15   ar
    15    15    16   ar
    16    16    17    1
    17    16    18   ar
    18    18    19   ar
    19    19    20    1
    20    11    21   ar
    21    21    22   ar
    22    22    23    1
    23    23    24    1
    24    22     6   ar
    25    19    13   ar
    26     1    25    1
    27     1    26    1
    28     1    27    1
    29     3    28    1
    30     3    29    1
    31     4    30    1
    32     4    31    1
    33     9    32    1
    34     9    33    1
    35     9    34    1
    36    10    35    1
    37    12    36    1
    38    12    37    1
    39    14    38    1
    40    17    39    1
    41    17    40    1
    42    20    41    1
    43    20    42    1
    44    21    43    1
    45    24    44    1
    46    24    45    1
    47    24    46    1
