
     RDKit          3D

 51 55  0  0  0  0  0  0  0  0999 V2000
   -7.1012   -1.9725    2.3724 N   0  0  0  0  0  0  0  0  0  0  0  0
   -6.4964   -1.1779    1.3606 C   0  0  0  0  0  0  0  0  0  0  0  0
   -5.2504   -1.2164    1.1398 N   0  0  0  0  0  0  0  0  0  0  0  0
   -4.5246   -0.4574    0.1421 C   0  0  1  0  0  0  0  0  0  0  0  0
   -3.4937    0.3946    0.8012 C   0  0  0  0  0  0  0  0  0  0  0  0
   -2.1232    0.2559    0.5361 C   0  0  0  0  0  0  0  0  0  0  0  0
   -1.1683    1.0307    1.1456 C   0  0  0  0  0  0  0  0  0  0  0  0
    0.2211    0.9502    0.9304 N   0  0  0  0  0  0  0  0  0  0  0  0
    0.8833    0.0722    0.0576 C   0  0  0  0  0  0  0  0  0  0  0  0
    0.2435   -0.7417   -0.6240 O   0  0  0  0  0  0  0  0  0  0  0  0
    2.3611    0.0857   -0.0802 C   0  0  0  0  0  0  0  0  0  0  0  0
    3.0029   -0.7631   -0.9241 C   0  0  0  0  0  0  0  0  0  0  0  0
    4.3501   -0.7017   -1.0048 N   0  0  0  0  0  0  0  0  0  0  0  0
    5.0878    0.1645   -0.2851 C   0  0  0  0  0  0  0  0  0  0  0  0
    6.4786    0.2125   -0.3825 O   0  0  0  0  0  0  0  0  0  0  0  0
    7.1824   -0.6548   -1.2496 C   0  0  0  0  0  0  0  0  0  0  0  0
    8.6359   -0.4008   -1.1644 C   0  0  0  0  0  0  0  0  0  0  0  0
    9.5155   -0.9984   -0.3141 N   0  0  0  0  0  0  0  0  0  0  0  0
   10.7179   -0.4813   -0.5699 C   0  0  0  0  0  0  0  0  0  0  0  0
   10.5842    0.4403   -1.5823 C   0  0  0  0  0  0  0  0  0  0  0  0
    9.3050    0.4403   -1.8950 O   0  0  0  0  0  0  0  0  0  0  0  0
    4.4028    1.0105    0.5606 C   0  0  0  0  0  0  0  0  0  0  0  0
    3.0613    0.9507    0.6421 N   0  0  0  0  0  0  0  0  0  0  0  0
   -1.6701    1.9731    2.0559 C   0  0  0  0  0  0  0  0  0  0  0  0
   -3.0113    2.1130    2.3195 C   0  0  0  0  0  0  0  0  0  0  0  0
   -3.9554    1.3294    1.7005 C   0  0  0  0  0  0  0  0  0  0  0  0
   -5.2735    1.4712    1.9634 F   0  0  0  0  0  0  0  0  0  0  0  0
   -3.8170   -1.4417   -0.7545 C   0  0  0  0  0  0  0  0  0  0  0  0
   -4.7333   -2.3028   -1.3682 F   0  0  0  0  0  0  0  0  0  0  0  0
   -3.3030   -0.6893   -1.8098 F   0  0  0  0  0  0  0  0  0  0  0  0
   -5.3927    0.4092   -0.7184 C   0  0  1  0  0  0  0  0  0  0  0  0
   -6.3791   -0.1113   -1.6687 C   0  0  0  0  0  0  0  0  0  0  0  0
   -6.7872    0.5624   -0.3381 C   0  0  1  0  0  0  0  0  0  0  0  0
   -7.2963   -0.3492    0.6084 O   0  0  0  0  0  0  0  0  0  0  0  0
   -6.5104   -2.3132    3.1480 H   0  0  0  0  0  0  0  0  0  0  0  0
   -8.1092   -2.2355    2.3825 H   0  0  0  0  0  0  0  0  0  0  0  0
   -1.8254   -0.4845   -0.1599 H   0  0  0  0  0  0  0  0  0  0  0  0
    0.8244    1.6241    1.4873 H   0  0  0  0  0  0  0  0  0  0  0  0
    2.4188   -1.4700   -1.5132 H   0  0  0  0  0  0  0  0  0  0  0  0
    6.9565   -1.7256   -1.0024 H   0  0  0  0  0  0  0  0  0  0  0  0
    6.8739   -0.5027   -2.3085 H   0  0  0  0  0  0  0  0  0  0  0  0
   11.6422   -0.7262   -0.0836 H   0  0  0  0  0  0  0  0  0  0  0  0
   11.3362    1.0531   -2.0500 H   0  0  0  0  0  0  0  0  0  0  0  0
    4.9686    1.7279    1.1611 H   0  0  0  0  0  0  0  0  0  0  0  0
   -0.9421    2.6034    2.5568 H   0  0  0  0  0  0  0  0  0  0  0  0
   -3.3735    2.8547    3.0326 H   0  0  0  0  0  0  0  0  0  0  0  0
   -3.0767   -2.0741   -0.2574 H   0  0  0  0  0  0  0  0  0  0  0  0
   -4.8727    1.3547   -1.0612 H   0  0  0  0  0  0  0  0  0  0  0  0
   -6.6397    0.5083   -2.5700 H   0  0  0  0  0  0  0  0  0  0  0  0
   -6.6565   -1.1552   -1.8061 H   0  0  0  0  0  0  0  0  0  0  0  0
   -7.2712    1.5546   -0.4028 H   0  0  0  0  0  0  0  0  0  0  0  0
  1  2  1  0
  2  3  2  0
  3  4  1  0
  4  5  1  0
  5  6  2  0
  6  7  1  0
  7  8  1  0
  8  9  1  0
  9 10  2  0
  9 11  1  0
 11 12  2  0
 12 13  1  0
 13 14  2  0
 14 15  1  0
 15 16  1  0
 16 17  1  0
 17 18  2  0
 18 19  1  0
 19 20  2  0
 20 21  1  0
 14 22  1  0
 22 23  2  0
  7 24  2  0
 24 25  1  0
 25 26  2  0
 26 27  1  0
  4 28  1  6
 28 29  1  0
 28 30  1  0
  4 31  1  0
 31 32  1  0
 32 33  1  0
 33 34  1  0
 34  2  1  0
 26  5  1  0
 33 31  1  0
 23 11  1  0
 21 17  1  0
  1 35  1  0
  1 36  1  0
  6 37  1  0
  8 38  1  0
 12 39  1  0
 16 40  1  0
 16 41  1  0
 19 42  1  0
 20 43  1  0
 22 44  1  0
 24 45  1  0
 25 46  1  0
 28 47  1  0
 31 48  1  6
 32 49  1  0
 32 50  1  0
 33 51  1  6
M  END
$$$$
