@<TRIPOS>MOLECULE
*****
 51 55 0 0 0
SMALL
GASTEIGER

@<TRIPOS>ATOM
      1 N          -7.1012   -1.9725    2.3724 N.pl3   1  UNL1       -0.3134
      2 C          -6.4964   -1.1779    1.3606 C.2     1  UNL1        0.2764
      3 N          -5.2504   -1.2164    1.1398 N.2     1  UNL1       -0.2194
      4 C          -4.5246   -0.4574    0.1421 C.3     1  UNL1        0.1603
      5 C          -3.4937    0.3946    0.8012 C.ar    1  UNL1        0.0228
      6 C          -2.1232    0.2559    0.5361 C.ar    1  UNL1       -0.0321
      7 C          -1.1683    1.0307    1.1456 C.ar    1  UNL1        0.0342
      8 N           0.2211    0.9502    0.9304 N.am    1  UNL1       -0.2802
      9 C           0.8833    0.0722    0.0576 C.2     1  UNL1        0.2681
     10 O           0.2435   -0.7417   -0.6240 O.2     1  UNL1       -0.2681
     11 C           2.3611    0.0857   -0.0802 C.ar    1  UNL1        0.1439
     12 C           3.0029   -0.7631   -0.9241 C.ar    1  UNL1        0.0619
     13 N           4.3501   -0.7017   -1.0048 N.ar    1  UNL1       -0.2177
     14 C           5.0878    0.1645   -0.2851 C.ar    1  UNL1        0.2339
     15 O           6.4786    0.2125   -0.3825 O.3     1  UNL1       -0.4658
     16 C           7.1824   -0.6548   -1.2496 C.3     1  UNL1        0.1668
     17 C           8.6359   -0.4008   -1.1644 C.ar    1  UNL1        0.2333
     18 N           9.5155   -0.9984   -0.3141 N.ar    1  UNL1       -0.2189
     19 C          10.7179   -0.4813   -0.5699 C.ar    1  UNL1        0.0660
     20 C          10.5842    0.4403   -1.5823 C.ar    1  UNL1        0.1123
     21 O           9.3050    0.4403   -1.8950 O.2     1  UNL1       -0.4446
     22 C           4.4028    1.0105    0.5606 C.ar    1  UNL1        0.0899
     23 N           3.0613    0.9507    0.6421 N.ar    1  UNL1       -0.2435
     24 C          -1.6701    1.9731    2.0559 C.ar    1  UNL1       -0.0377
     25 C          -3.0113    2.1130    2.3195 C.ar    1  UNL1       -0.0243
     26 C          -3.9554    1.3294    1.7005 C.ar    1  UNL1        0.1292
     27 F          -5.2735    1.4712    1.9634 F       1  UNL1       -0.2051
     28 C          -3.8170   -1.4417   -0.7545 C.3     1  UNL1        0.2686
     29 F          -4.7333   -2.3028   -1.3682 F       1  UNL1       -0.2062
     30 F          -3.3030   -0.6893   -1.8098 F       1  UNL1       -0.2062
     31 C          -5.3927    0.4092   -0.7184 C.3     1  UNL1        0.0344
     32 C          -6.3791   -0.1113   -1.6687 C.3     1  UNL1       -0.0064
     33 C          -6.7872    0.5624   -0.3381 C.3     1  UNL1        0.1091
     34 O          -7.2963   -0.3492    0.6084 O.2     1  UNL1       -0.4622
     35 H          -6.5104   -2.3132    3.1480 H       1  UNL1        0.1466
     36 H          -8.1092   -2.2355    2.3825 H       1  UNL1        0.1466
     37 H          -1.8254   -0.4845   -0.1599 H       1  UNL1        0.0640
     38 H           0.8244    1.6241    1.4873 H       1  UNL1        0.1552
     39 H           2.4188   -1.4700   -1.5132 H       1  UNL1        0.0854
     40 H           6.9565   -1.7256   -1.0024 H       1  UNL1        0.0797
     41 H           6.8739   -0.5027   -2.3085 H       1  UNL1        0.0797
     42 H          11.6422   -0.7262   -0.0836 H       1  UNL1        0.0862
     43 H          11.3362    1.0531   -2.0500 H       1  UNL1        0.1046
     44 H           4.9686    1.7279    1.1611 H       1  UNL1        0.0884
     45 H          -0.9421    2.6034    2.5568 H       1  UNL1        0.0637
     46 H          -3.3735    2.8547    3.0326 H       1  UNL1        0.0647
     47 H          -3.0767   -2.0741   -0.2574 H       1  UNL1        0.1047
     48 H          -4.8727    1.3547   -1.0612 H       1  UNL1        0.0366
     49 H          -6.6397    0.5083   -2.5700 H       1  UNL1        0.0306
     50 H          -6.6565   -1.1552   -1.8061 H       1  UNL1        0.0306
     51 H          -7.2712    1.5546   -0.4028 H       1  UNL1        0.0737
@<TRIPOS>BOND
     1     1     2    1
     2     2     3    2
     3     3     4    1
     4     4     5    1
     5     5     6   ar
     6     6     7   ar
     7     7     8    1
     8     8     9   am
     9     9    10    2
    10     9    11    1
    11    11    12   ar
    12    12    13   ar
    13    13    14   ar
    14    14    15    1
    15    15    16    1
    16    16    17    1
    17    17    18   ar
    18    18    19   ar
    19    19    20   ar
    20    20    21   ar
    21    14    22   ar
    22    22    23   ar
    23     7    24   ar
    24    24    25   ar
    25    25    26   ar
    26    26    27    1
    27     4    28    1
    28    28    29    1
    29    28    30    1
    30     4    31    1
    31    31    32    1
    32    32    33    1
    33    33    34    1
    34    34     2    1
    35    26     5   ar
    36    33    31    1
    37    23    11   ar
    38    21    17   ar
    39     1    35    1
    40     1    36    1
    41     6    37    1
    42     8    38    1
    43    12    39    1
    44    16    40    1
    45    16    41    1
    46    19    42    1
    47    20    43    1
    48    22    44    1
    49    24    45    1
    50    25    46    1
    51    28    47    1
    52    31    48    1
    53    32    49    1
    54    32    50    1
    55    33    51    1
