
     RDKit          3D

 42 45  0  0  0  0  0  0  0  0999 V2000
    6.1975   -2.2233   -1.5504 I   0  0  0  0  0  0  0  0  0  0  0  0
    5.0840   -0.7181   -0.5814 C   0  0  0  0  0  0  0  0  0  0  0  0
    5.6916    0.5051   -0.3504 C   0  0  0  0  0  0  0  0  0  0  0  0
    4.9485    1.4813    0.2858 C   0  0  0  0  0  0  0  0  0  0  0  0
    3.6490    1.2181    0.6659 C   0  0  0  0  0  0  0  0  0  0  0  0
    3.0242   -0.0101    0.4393 C   0  0  0  0  0  0  0  0  0  0  0  0
    1.6181   -0.1651    0.8988 C   0  0  0  0  0  0  0  0  0  0  0  0
    0.6694    0.2195   -0.1206 N   0  0  0  0  0  0  0  0  0  0  0  0
   -0.7453    0.1915   -0.0064 C   0  0  0  0  0  0  0  0  0  0  0  0
   -1.5662   -0.8862   -0.3318 C   0  0  0  0  0  0  0  0  0  0  0  0
   -0.8802   -2.0788   -0.8321 C   0  0  0  0  0  0  0  0  0  0  0  0
   -1.8945   -3.1669   -1.1208 C   0  0  0  0  0  0  0  0  0  0  0  0
   -3.1787   -2.5825   -1.6796 C   0  0  0  0  0  0  0  0  0  0  0  0
   -3.8182   -1.8559   -0.4914 C   0  0  0  0  0  0  0  0  0  0  0  0
   -2.9238   -0.7178   -0.1503 C   0  0  0  0  0  0  0  0  0  0  0  0
   -3.4710    0.4190    0.3173 N   0  0  0  0  0  0  0  0  0  0  0  0
   -2.6889    1.4668    0.6350 C   0  0  0  0  0  0  0  0  0  0  0  0
   -1.3210    1.3696    0.4788 C   0  0  0  0  0  0  0  0  0  0  0  0
   -0.5808    2.4636    0.8173 C   0  0  0  0  0  0  0  0  0  0  0  0
   -1.1161    3.6429    1.2994 C   0  0  0  0  0  0  0  0  0  0  0  0
   -2.5071    3.6743    1.4334 C   0  0  0  0  0  0  0  0  0  0  0  0
   -3.3146    2.6027    1.1091 C   0  0  0  0  0  0  0  0  0  0  0  0
    3.7824   -0.9717   -0.1970 C   0  0  0  0  0  0  0  0  0  0  0  0
    6.7058    0.7561   -0.6301 H   0  0  0  0  0  0  0  0  0  0  0  0
    5.3619    2.4768    0.5036 H   0  0  0  0  0  0  0  0  0  0  0  0
    3.0948    2.0054    1.1623 H   0  0  0  0  0  0  0  0  0  0  0  0
    1.4830    0.4655    1.8009 H   0  0  0  0  0  0  0  0  0  0  0  0
    1.4753   -1.2426    1.1231 H   0  0  0  0  0  0  0  0  0  0  0  0
    0.9395    0.5724   -1.0869 H   0  0  0  0  0  0  0  0  0  0  0  0
   -0.3015   -1.9363   -1.7650 H   0  0  0  0  0  0  0  0  0  0  0  0
   -0.2543   -2.4694   -0.0010 H   0  0  0  0  0  0  0  0  0  0  0  0
   -2.1726   -3.7561   -0.2268 H   0  0  0  0  0  0  0  0  0  0  0  0
   -1.5068   -3.8798   -1.8986 H   0  0  0  0  0  0  0  0  0  0  0  0
   -2.9535   -1.8061   -2.4299 H   0  0  0  0  0  0  0  0  0  0  0  0
   -3.8051   -3.4023   -2.0617 H   0  0  0  0  0  0  0  0  0  0  0  0
   -4.8165   -1.4697   -0.7999 H   0  0  0  0  0  0  0  0  0  0  0  0
   -3.8831   -2.4969    0.3923 H   0  0  0  0  0  0  0  0  0  0  0  0
    0.4816    2.4470    0.7177 H   0  0  0  0  0  0  0  0  0  0  0  0
   -0.5006    4.5082    1.5645 H   0  0  0  0  0  0  0  0  0  0  0  0
   -2.9306    4.6148    1.8176 H   0  0  0  0  0  0  0  0  0  0  0  0
   -4.3757    2.6565    1.2223 H   0  0  0  0  0  0  0  0  0  0  0  0
    3.3001   -1.9215   -0.3726 H   0  0  0  0  0  0  0  0  0  0  0  0
  1  2  1  0
  2  3  2  0
  3  4  1  0
  4  5  2  0
  5  6  1  0
  6  7  1  0
  7  8  1  0
  8  9  1  0
  9 10  2  0
 10 11  1  0
 11 12  1  0
 12 13  1  0
 13 14  1  0
 14 15  1  0
 15 16  2  0
 16 17  1  0
 17 18  2  0
 18 19  1  0
 19 20  2  0
 20 21  1  0
 21 22  2  0
  6 23  2  0
 23  2  1  0
 18  9  1  0
 15 10  1  0
 22 17  1  0
  3 24  1  0
  4 25  1  0
  5 26  1  0
  7 27  1  0
  7 28  1  0
  8 29  1  0
 11 30  1  0
 11 31  1  0
 12 32  1  0
 12 33  1  0
 13 34  1  0
 13 35  1  0
 14 36  1  0
 14 37  1  0
 19 38  1  0
 20 39  1  0
 21 40  1  0
 22 41  1  0
 23 42  1  0
M  END
$$$$
