@<TRIPOS>MOLECULE
*****
 60 63 0 0 0
SMALL
GASTEIGER

@<TRIPOS>ATOM
      1 C          10.5062   -0.9346   -0.7851 C.3     1  UNL1       -0.0644
      2 C          10.5167   -0.7233    0.6947 C.3     1  UNL1       -0.0450
      3 C           9.7997    0.6081    0.9883 C.3     1  UNL1        0.0092
      4 C           8.4452    0.4105    0.6441 C.1     1  UNL1       -0.0969
      5 C           7.2394    0.2545    0.3404 C.1     1  UNL1       -0.0648
      6 C           5.8506    0.1002   -0.0118 C.ar    1  UNL1        0.0430
      7 C           5.0293   -0.6762    0.8613 C.ar    1  UNL1       -0.0428
      8 C           3.6761   -0.6641    0.6720 C.ar    1  UNL1       -0.0323
      9 C           3.0717    0.0544   -0.3098 C.ar    1  UNL1        0.0990
     10 C           1.6327    0.3651   -0.3521 C.2     1  UNL1        0.1492
     11 F           1.1142    0.7879   -1.5140 F       1  UNL1       -0.2032
     12 C           0.8768    0.2032    0.7061 C.2     1  UNL1       -0.0172
     13 C          -0.5373    0.4909    0.7912 C.ar    1  UNL1       -0.0217
     14 C          -0.8514    1.3213    1.9355 C.ar    1  UNL1       -0.0518
     15 C          -2.1468    1.7285    2.1050 C.ar    1  UNL1       -0.0255
     16 C          -3.1344    1.3706    1.2168 C.ar    1  UNL1        0.1289
     17 F          -4.3864    1.8846    1.4741 F       1  UNL1       -0.2051
     18 C          -2.8808    0.5869    0.1276 C.ar    1  UNL1        0.0158
     19 C          -3.9488    0.2718   -0.8502 C.3     1  UNL1        0.0935
     20 C          -4.1721    1.6790   -1.5222 C.3     1  UNL1       -0.0351
     21 N          -3.4263   -0.5969   -1.8553 N.2     1  UNL1       -0.2521
     22 C          -3.9967   -1.4361   -2.6138 C.2     1  UNL1        0.1485
     23 N          -3.2084   -2.1632   -3.5271 N.pl3   1  UNL1       -0.3380
     24 S          -5.7514   -1.6486   -2.4755 S.3     1  UNL1       -0.0746
     25 C          -6.2180   -0.9306   -0.8723 C.3     1  UNL1        0.1052
     26 C          -7.6787   -0.6888   -0.6733 C.2     1  UNL1        0.2296
     27 O          -8.5208   -1.0749   -1.5447 O.2     1  UNL1       -0.2743
     28 N          -8.1505   -0.0302    0.4696 N.am    1  UNL1       -0.3172
     29 C          -9.5362    0.2806    0.7828 C.3     1  UNL1        0.0001
     30 C          -5.4056   -1.4998    0.3030 C.3     1  UNL1       -0.0220
     31 C          -5.2436   -0.0951   -0.2114 C.3     1  UNL1        0.0134
     32 C          -1.5528    0.1779   -0.0285 C.ar    1  UNL1       -0.0463
     33 N           3.8866    0.7942   -1.1656 N.ar    1  UNL1       -0.2515
     34 C           5.2364    0.7934   -0.9805 C.ar    1  UNL1        0.0437
     35 H          11.2376   -0.2056   -1.2808 H       1  UNL1        0.0230
     36 H           9.5734   -0.8056   -1.3084 H       1  UNL1        0.0230
     37 H          10.9758   -1.9570   -0.9977 H       1  UNL1        0.0230
     38 H           9.8807   -1.4737    1.2048 H       1  UNL1        0.0272
     39 H          11.5342   -0.7425    1.1641 H       1  UNL1        0.0272
     40 H          10.3125    1.3377    0.2680 H       1  UNL1        0.0397
     41 H          10.0023    0.9534    2.0166 H       1  UNL1        0.0397
     42 H           5.5508   -1.2173    1.6186 H       1  UNL1        0.0631
     43 H           3.0289   -1.2762    1.3255 H       1  UNL1        0.0640
     44 H           1.4206   -0.1834    1.5959 H       1  UNL1        0.0653
     45 H          -0.0525    1.5624    2.5619 H       1  UNL1        0.0624
     46 H          -2.3839    2.3526    2.9764 H       1  UNL1        0.0646
     47 H          -3.2792    1.9043   -2.1720 H       1  UNL1        0.0256
     48 H          -4.2081    2.4617   -0.7404 H       1  UNL1        0.0256
     49 H          -5.0872    1.6907   -2.1041 H       1  UNL1        0.0256
     50 H          -3.7377   -2.7140   -4.2591 H       1  UNL1        0.1442
     51 H          -2.1819   -2.1953   -3.5449 H       1  UNL1        0.1442
     52 H          -7.4145    0.2932    1.1575 H       1  UNL1        0.1484
     53 H         -10.1421   -0.5844    1.0168 H       1  UNL1        0.0426
     54 H          -9.4988    0.9034    1.7532 H       1  UNL1        0.0426
     55 H         -10.0080    0.9965    0.0741 H       1  UNL1        0.0426
     56 H          -4.5859   -2.1987    0.1458 H       1  UNL1        0.0287
     57 H          -5.9313   -1.5794    1.2835 H       1  UNL1        0.0287
     58 H          -5.6894    0.7156    0.4229 H       1  UNL1        0.0346
     59 H          -1.3450   -0.4629   -0.9178 H       1  UNL1        0.0628
     60 H           5.8939    1.4231   -1.6550 H       1  UNL1        0.0842
@<TRIPOS>BOND
     1     1     2    1
     2     2     3    1
     3     3     4    1
     4     4     5    3
     5     5     6    1
     6     6     7   ar
     7     7     8   ar
     8     8     9   ar
     9     9    10    1
    10    10    11    1
    11    10    12    2
    12    12    13    1
    13    13    14   ar
    14    14    15   ar
    15    15    16   ar
    16    16    17    1
    17    16    18   ar
    18    18    19    1
    19    19    20    1
    20    19    21    1
    21    21    22    2
    22    22    23    1
    23    22    24    1
    24    24    25    1
    25    25    26    1
    26    26    27    2
    27    26    28   am
    28    28    29    1
    29    25    30    1
    30    30    31    1
    31    18    32   ar
    32     9    33   ar
    33    33    34   ar
    34    34     6   ar
    35    32    13   ar
    36    31    19    1
    37    31    25    1
    38     1    35    1
    39     1    36    1
    40     1    37    1
    41     2    38    1
    42     2    39    1
    43     3    40    1
    44     3    41    1
    45     7    42    1
    46     8    43    1
    47    12    44    1
    48    14    45    1
    49    15    46    1
    50    20    47    1
    51    20    48    1
    52    20    49    1
    53    23    50    1
    54    23    51    1
    55    28    52    1
    56    29    53    1
    57    29    54    1
    58    29    55    1
    59    30    56    1
    60    30    57    1
    61    31    58    1
    62    32    59    1
    63    34    60    1
