
     RDKit          3D

 55 59  0  0  0  0  0  0  0  0999 V2000
   -3.6145    2.7343    0.4353 O   0  0  0  0  0  0  0  0  0  0  0  0
   -3.8907    1.5031    0.5142 C   0  0  0  0  0  0  0  0  0  0  0  0
   -2.7593    0.5655    0.6611 C   0  0  0  0  0  0  0  0  0  0  0  0
   -3.1225   -0.8461    0.2893 C   0  0  0  0  0  0  0  0  0  0  0  0
   -2.2790   -1.7821    1.1130 C   0  0  0  0  0  0  0  0  0  0  0  0
   -0.8155   -1.6073    0.8985 C   0  0  0  0  0  0  0  0  0  0  0  0
   -0.5339   -1.2832   -0.4696 N   0  0  0  0  0  0  0  0  0  0  0  0
    0.8194   -0.8800   -0.7738 C   0  0  0  0  0  0  0  0  0  0  0  0
    1.1650   -0.5740   -1.9485 O   0  0  0  0  0  0  0  0  0  0  0  0
    1.8162   -0.8111    0.2340 N   0  0  0  0  0  0  0  0  0  0  0  0
    3.1647   -0.4012   -0.1124 C   0  0  0  0  0  0  0  0  0  0  0  0
    4.1732   -1.4638    0.1621 C   0  0  0  0  0  0  0  0  0  0  0  0
    5.4415   -1.0181    0.7998 C   0  0  0  0  0  0  0  0  0  0  0  0
    5.8473    0.2831    0.2264 C   0  0  0  0  0  0  0  0  0  0  0  0
    7.1344    0.5449   -0.1833 C   0  0  0  0  0  0  0  0  0  0  0  0
    7.4352    1.8027   -0.7138 C   0  0  0  0  0  0  0  0  0  0  0  0
    6.4591    2.7967   -0.8364 C   0  0  0  0  0  0  0  0  0  0  0  0
    5.1713    2.5121   -0.4182 C   0  0  0  0  0  0  0  0  0  0  0  0
    4.8883    1.2634    0.1046 C   0  0  0  0  0  0  0  0  0  0  0  0
    3.5192    0.9199    0.5635 C   0  0  0  0  0  0  0  0  0  0  0  0
   -1.4779   -1.3287   -1.5534 C   0  0  0  0  0  0  0  0  0  0  0  0
   -2.8864   -1.0145   -1.1902 C   0  0  0  0  0  0  0  0  0  0  0  0
   -4.4724   -1.1461    0.5638 O   0  0  0  0  0  0  0  0  0  0  0  0
   -5.5296   -0.2810    0.4859 C   0  0  0  0  0  0  0  0  0  0  0  0
   -6.8535   -0.7110    0.4331 C   0  0  0  0  0  0  0  0  0  0  0  0
   -7.8936    0.1816    0.3551 C   0  0  0  0  0  0  0  0  0  0  0  0
   -7.6452    1.5386    0.3272 C   0  0  0  0  0  0  0  0  0  0  0  0
   -6.3325    1.9594    0.3798 C   0  0  0  0  0  0  0  0  0  0  0  0
   -5.2775    1.0728    0.4583 C   0  0  0  0  0  0  0  0  0  0  0  0
   -1.9556    0.9375   -0.0334 H   0  0  0  0  0  0  0  0  0  0  0  0
   -2.3799    0.6651    1.6964 H   0  0  0  0  0  0  0  0  0  0  0  0
   -2.6358   -2.8251    0.9527 H   0  0  0  0  0  0  0  0  0  0  0  0
   -2.5009   -1.5290    2.1899 H   0  0  0  0  0  0  0  0  0  0  0  0
   -0.3133   -2.5727    1.1186 H   0  0  0  0  0  0  0  0  0  0  0  0
   -0.4576   -0.7926    1.5615 H   0  0  0  0  0  0  0  0  0  0  0  0
    1.5927   -1.0536    1.2341 H   0  0  0  0  0  0  0  0  0  0  0  0
    3.2058   -0.1784   -1.2111 H   0  0  0  0  0  0  0  0  0  0  0  0
    3.6954   -2.2104    0.8575 H   0  0  0  0  0  0  0  0  0  0  0  0
    4.4385   -2.0270   -0.7740 H   0  0  0  0  0  0  0  0  0  0  0  0
    5.3767   -0.9118    1.9019 H   0  0  0  0  0  0  0  0  0  0  0  0
    6.2230   -1.7761    0.5772 H   0  0  0  0  0  0  0  0  0  0  0  0
    7.9087   -0.1940   -0.1040 H   0  0  0  0  0  0  0  0  0  0  0  0
    8.4353    2.0410   -1.0449 H   0  0  0  0  0  0  0  0  0  0  0  0
    6.7488    3.7438   -1.2513 H   0  0  0  0  0  0  0  0  0  0  0  0
    4.4253    3.2859   -0.5170 H   0  0  0  0  0  0  0  0  0  0  0  0
    2.7995    1.6867    0.2686 H   0  0  0  0  0  0  0  0  0  0  0  0
    3.5630    0.7360    1.6545 H   0  0  0  0  0  0  0  0  0  0  0  0
   -1.1527   -0.5458   -2.3001 H   0  0  0  0  0  0  0  0  0  0  0  0
   -1.3751   -2.2921   -2.1360 H   0  0  0  0  0  0  0  0  0  0  0  0
   -3.5216   -1.8653   -1.5779 H   0  0  0  0  0  0  0  0  0  0  0  0
   -3.2793   -0.1188   -1.7165 H   0  0  0  0  0  0  0  0  0  0  0  0
   -7.0356   -1.7642    0.4553 H   0  0  0  0  0  0  0  0  0  0  0  0
   -8.9154   -0.2232    0.3166 H   0  0  0  0  0  0  0  0  0  0  0  0
   -8.4597    2.2416    0.2661 H   0  0  0  0  0  0  0  0  0  0  0  0
   -6.0809    3.0125    0.3612 H   0  0  0  0  0  0  0  0  0  0  0  0
  1  2  2  0
  2  3  1  0
  3  4  1  0
  4  5  1  0
  5  6  1  0
  6  7  1  0
  7  8  1  0
  8  9  2  0
  8 10  1  0
 10 11  1  0
 11 12  1  0
 12 13  1  0
 13 14  1  0
 14 15  2  0
 15 16  1  0
 16 17  2  0
 17 18  1  0
 18 19  2  0
 19 20  1  0
  7 21  1  0
 21 22  1  0
  4 23  1  0
 23 24  1  0
 24 25  2  0
 25 26  1  0
 26 27  2  0
 27 28  1  0
 28 29  2  0
 29  2  1  0
 22  4  1  0
 29 24  1  0
 20 11  1  0
 19 14  1  0
  3 30  1  0
  3 31  1  0
  5 32  1  0
  5 33  1  0
  6 34  1  0
  6 35  1  0
 10 36  1  0
 11 37  1  0
 12 38  1  0
 12 39  1  0
 13 40  1  0
 13 41  1  0
 15 42  1  0
 16 43  1  0
 17 44  1  0
 18 45  1  0
 20 46  1  0
 20 47  1  0
 21 48  1  0
 21 49  1  0
 22 50  1  0
 22 51  1  0
 25 52  1  0
 26 53  1  0
 27 54  1  0
 28 55  1  0
M  END
$$$$
