@<TRIPOS>MOLECULE
*****
 55 59 0 0 0
SMALL
GASTEIGER

@<TRIPOS>ATOM
      1 O          -3.6145    2.7343    0.4353 O.2     1  UNL1       -0.2918
      2 C          -3.8907    1.5031    0.5142 C.2     1  UNL1        0.1704
      3 C          -2.7593    0.5655    0.6611 C.3     1  UNL1        0.0506
      4 C          -3.1225   -0.8461    0.2893 C.3     1  UNL1        0.1205
      5 C          -2.2790   -1.7821    1.1130 C.3     1  UNL1        0.0034
      6 C          -0.8155   -1.6073    0.8985 C.3     1  UNL1        0.0198
      7 N          -0.5339   -1.2832   -0.4696 N.am    1  UNL1       -0.2854
      8 C           0.8194   -0.8800   -0.7738 C.2     1  UNL1        0.3024
      9 O           1.1650   -0.5740   -1.9485 O.2     1  UNL1       -0.2526
     10 N           1.8162   -0.8111    0.2340 N.am    1  UNL1       -0.2961
     11 C           3.1647   -0.4012   -0.1124 C.3     1  UNL1        0.0288
     12 C           4.1732   -1.4638    0.1621 C.3     1  UNL1       -0.0302
     13 C           5.4415   -1.0181    0.7998 C.3     1  UNL1       -0.0257
     14 C           5.8473    0.2831    0.2264 C.ar    1  UNL1       -0.0441
     15 C           7.1344    0.5449   -0.1833 C.ar    1  UNL1       -0.0583
     16 C           7.4352    1.8027   -0.7138 C.ar    1  UNL1       -0.0615
     17 C           6.4591    2.7967   -0.8364 C.ar    1  UNL1       -0.0615
     18 C           5.1713    2.5121   -0.4182 C.ar    1  UNL1       -0.0583
     19 C           4.8883    1.2634    0.1046 C.ar    1  UNL1       -0.0424
     20 C           3.5192    0.9199    0.5635 C.3     1  UNL1       -0.0089
     21 C          -1.4779   -1.3287   -1.5534 C.3     1  UNL1        0.0198
     22 C          -2.8864   -1.0145   -1.1902 C.3     1  UNL1        0.0034
     23 O          -4.4724   -1.1461    0.5638 O.3     1  UNL1       -0.4845
     24 C          -5.5296   -0.2810    0.4859 C.ar    1  UNL1        0.1318
     25 C          -6.8535   -0.7110    0.4331 C.ar    1  UNL1       -0.0192
     26 C          -7.8936    0.1816    0.3551 C.ar    1  UNL1       -0.0583
     27 C          -7.6452    1.5386    0.3272 C.ar    1  UNL1       -0.0609
     28 C          -6.3325    1.9594    0.3798 C.ar    1  UNL1       -0.0477
     29 C          -5.2775    1.0728    0.4583 C.ar    1  UNL1        0.0592
     30 H          -1.9556    0.9375   -0.0334 H       1  UNL1        0.0384
     31 H          -2.3799    0.6651    1.6964 H       1  UNL1        0.0384
     32 H          -2.6358   -2.8251    0.9527 H       1  UNL1        0.0319
     33 H          -2.5009   -1.5290    2.1899 H       1  UNL1        0.0319
     34 H          -0.3133   -2.5727    1.1186 H       1  UNL1        0.0466
     35 H          -0.4576   -0.7926    1.5615 H       1  UNL1        0.0466
     36 H           1.5927   -1.0536    1.2341 H       1  UNL1        0.1505
     37 H           3.2058   -0.1784   -1.2111 H       1  UNL1        0.0502
     38 H           3.6954   -2.2104    0.8575 H       1  UNL1        0.0286
     39 H           4.4385   -2.0270   -0.7740 H       1  UNL1        0.0286
     40 H           5.3767   -0.9118    1.9019 H       1  UNL1        0.0314
     41 H           6.2230   -1.7761    0.5772 H       1  UNL1        0.0314
     42 H           7.9087   -0.1940   -0.1040 H       1  UNL1        0.0620
     43 H           8.4353    2.0410   -1.0449 H       1  UNL1        0.0618
     44 H           6.7488    3.7438   -1.2513 H       1  UNL1        0.0618
     45 H           4.4253    3.2859   -0.5170 H       1  UNL1        0.0620
     46 H           2.7995    1.6867    0.2686 H       1  UNL1        0.0331
     47 H           3.5630    0.7360    1.6545 H       1  UNL1        0.0331
     48 H          -1.1527   -0.5458   -2.3001 H       1  UNL1        0.0466
     49 H          -1.3751   -2.2921   -2.1360 H       1  UNL1        0.0466
     50 H          -3.5216   -1.8653   -1.5779 H       1  UNL1        0.0319
     51 H          -3.2793   -0.1188   -1.7165 H       1  UNL1        0.0319
     52 H          -7.0356   -1.7642    0.4553 H       1  UNL1        0.0654
     53 H          -8.9154   -0.2232    0.3166 H       1  UNL1        0.0619
     54 H          -8.4597    2.2416    0.2661 H       1  UNL1        0.0618
     55 H          -6.0809    3.0125    0.3612 H       1  UNL1        0.0626
@<TRIPOS>BOND
     1     1     2    2
     2     2     3    1
     3     3     4    1
     4     4     5    1
     5     5     6    1
     6     6     7    1
     7     7     8   am
     8     8     9    2
     9     8    10   am
    10    10    11    1
    11    11    12    1
    12    12    13    1
    13    13    14    1
    14    14    15   ar
    15    15    16   ar
    16    16    17   ar
    17    17    18   ar
    18    18    19   ar
    19    19    20    1
    20     7    21    1
    21    21    22    1
    22     4    23    1
    23    23    24    1
    24    24    25   ar
    25    25    26   ar
    26    26    27   ar
    27    27    28   ar
    28    28    29   ar
    29    29     2    1
    30    22     4    1
    31    29    24   ar
    32    20    11    1
    33    19    14   ar
    34     3    30    1
    35     3    31    1
    36     5    32    1
    37     5    33    1
    38     6    34    1
    39     6    35    1
    40    10    36    1
    41    11    37    1
    42    12    38    1
    43    12    39    1
    44    13    40    1
    45    13    41    1
    46    15    42    1
    47    16    43    1
    48    17    44    1
    49    18    45    1
    50    20    46    1
    51    20    47    1
    52    21    48    1
    53    21    49    1
    54    22    50    1
    55    22    51    1
    56    25    52    1
    57    26    53    1
    58    27    54    1
    59    28    55    1
