@<TRIPOS>MOLECULE
*****
 44 47 0 0 0
SMALL
GASTEIGER

@<TRIPOS>ATOM
      1 N          -1.6567   -0.6771   -1.8042 N.3     1  UNL1       -0.3243
      2 C          -1.1952   -0.8522   -0.4417 C.3     1  UNL1        0.0233
      3 C          -2.3043   -1.2616    0.4887 C.3     1  UNL1       -0.0094
      4 C          -3.4081   -0.3157    0.5767 C.ar    1  UNL1       -0.0455
      5 C          -4.4504   -0.4760   -0.3473 C.ar    1  UNL1       -0.0571
      6 C          -5.5368    0.3699   -0.3369 C.ar    1  UNL1       -0.0431
      7 C          -5.5683    1.3761    0.6067 C.ar    1  UNL1        0.0410
      8 CL         -6.9181    2.4795    0.6697 Cl      1  UNL1       -0.0835
      9 C          -4.5335    1.5336    1.5224 C.ar    1  UNL1       -0.0431
     10 C          -3.4428    0.6900    1.5175 C.ar    1  UNL1       -0.0571
     11 C          -0.6247    0.4509    0.0679 C.3     1  UNL1       -0.0187
     12 C           0.8018    0.6401   -0.4193 C.3     1  UNL1        0.0152
     13 N           1.5852   -0.3485    0.3081 N.pl3   1  UNL1       -0.3145
     14 C           2.8437    0.0254    0.8369 C.ar    1  UNL1        0.1337
     15 N           3.0698    0.0046    2.1774 N.ar    1  UNL1       -0.2200
     16 C           4.2548    0.3621    2.6864 C.ar    1  UNL1        0.1204
     17 N           5.2523    0.7512    1.8831 N.ar    1  UNL1       -0.2178
     18 C           5.0432    0.7781    0.5331 C.ar    1  UNL1        0.1432
     19 N           5.8400    1.1150   -0.5019 N.ar    1  UNL1       -0.3457
     20 C           5.1931    0.9818   -1.6664 C.ar    1  UNL1        0.0042
     21 C           3.9158    0.5397   -1.4074 C.ar    1  UNL1       -0.0318
     22 C           3.8334    0.4158   -0.0235 C.ar    1  UNL1        0.0585
     23 C           1.0260   -1.6589    0.4526 C.3     1  UNL1        0.0152
     24 C          -0.1132   -1.9031   -0.4952 C.3     1  UNL1       -0.0187
     25 H          -1.2980    0.2291   -2.2010 H       1  UNL1        0.1187
     26 H          -1.4514   -1.4691   -2.4234 H       1  UNL1        0.1187
     27 H          -1.9139   -1.4756    1.5161 H       1  UNL1        0.0331
     28 H          -2.6918   -2.2356    0.1243 H       1  UNL1        0.0331
     29 H          -4.4424   -1.2529   -1.0878 H       1  UNL1        0.0621
     30 H          -6.3466    0.2419   -1.0581 H       1  UNL1        0.0632
     31 H          -4.5363    2.3133    2.2694 H       1  UNL1        0.0632
     32 H          -2.6243    0.7835    2.2155 H       1  UNL1        0.0621
     33 H          -1.3022    1.2572   -0.1966 H       1  UNL1        0.0298
     34 H          -0.5279    0.3352    1.1828 H       1  UNL1        0.0298
     35 H           1.0892    1.6711   -0.2131 H       1  UNL1        0.0465
     36 H           0.8471    0.4827   -1.5215 H       1  UNL1        0.0465
     37 H           4.4427    0.3473    3.7659 H       1  UNL1        0.1048
     38 H           6.8220    1.4342   -0.4058 H       1  UNL1        0.1668
     39 H           5.5680    1.1755   -2.6576 H       1  UNL1        0.0807
     40 H           3.1318    0.3288   -2.1393 H       1  UNL1        0.0640
     41 H           0.6981   -1.8677    1.4983 H       1  UNL1        0.0465
     42 H           1.8033   -2.4262    0.2072 H       1  UNL1        0.0465
     43 H          -0.5071   -2.9214   -0.2787 H       1  UNL1        0.0298
     44 H           0.3326   -1.9720   -1.5210 H       1  UNL1        0.0298
@<TRIPOS>BOND
     1     1     2    1
     2     2     3    1
     3     3     4    1
     4     4     5   ar
     5     5     6   ar
     6     6     7   ar
     7     7     8    1
     8     7     9   ar
     9     9    10   ar
    10     2    11    1
    11    11    12    1
    12    12    13    1
    13    13    14    1
    14    14    15   ar
    15    15    16   ar
    16    16    17   ar
    17    17    18   ar
    18    18    19   ar
    19    19    20   ar
    20    20    21   ar
    21    21    22   ar
    22    13    23    1
    23    23    24    1
    24    24     2    1
    25    10     4   ar
    26    22    14   ar
    27    22    18   ar
    28     1    25    1
    29     1    26    1
    30     3    27    1
    31     3    28    1
    32     5    29    1
    33     6    30    1
    34     9    31    1
    35    10    32    1
    36    11    33    1
    37    11    34    1
    38    12    35    1
    39    12    36    1
    40    16    37    1
    41    19    38    1
    42    20    39    1
    43    21    40    1
    44    23    41    1
    45    23    42    1
    46    24    43    1
    47    24    44    1
