
     RDKit          3D

 44 47  0  0  0  0  0  0  0  0999 V2000
   -1.6567   -0.6771   -1.8042 N   0  0  0  0  0  0  0  0  0  0  0  0
   -1.1952   -0.8522   -0.4417 C   0  0  0  0  0  0  0  0  0  0  0  0
   -2.3043   -1.2616    0.4887 C   0  0  0  0  0  0  0  0  0  0  0  0
   -3.4081   -0.3157    0.5767 C   0  0  0  0  0  0  0  0  0  0  0  0
   -4.4504   -0.4760   -0.3473 C   0  0  0  0  0  0  0  0  0  0  0  0
   -5.5368    0.3699   -0.3369 C   0  0  0  0  0  0  0  0  0  0  0  0
   -5.5683    1.3761    0.6067 C   0  0  0  0  0  0  0  0  0  0  0  0
   -6.9181    2.4795    0.6697 Cl  0  0  0  0  0  0  0  0  0  0  0  0
   -4.5335    1.5336    1.5224 C   0  0  0  0  0  0  0  0  0  0  0  0
   -3.4428    0.6900    1.5175 C   0  0  0  0  0  0  0  0  0  0  0  0
   -0.6247    0.4509    0.0679 C   0  0  0  0  0  0  0  0  0  0  0  0
    0.8018    0.6401   -0.4193 C   0  0  0  0  0  0  0  0  0  0  0  0
    1.5852   -0.3485    0.3081 N   0  0  0  0  0  0  0  0  0  0  0  0
    2.8437    0.0254    0.8369 C   0  0  0  0  0  0  0  0  0  0  0  0
    3.0698    0.0046    2.1774 N   0  0  0  0  0  0  0  0  0  0  0  0
    4.2548    0.3621    2.6864 C   0  0  0  0  0  0  0  0  0  0  0  0
    5.2523    0.7512    1.8831 N   0  0  0  0  0  0  0  0  0  0  0  0
    5.0432    0.7781    0.5331 C   0  0  0  0  0  0  0  0  0  0  0  0
    5.8400    1.1150   -0.5019 N   0  0  0  0  0  0  0  0  0  0  0  0
    5.1931    0.9818   -1.6664 C   0  0  0  0  0  0  0  0  0  0  0  0
    3.9158    0.5397   -1.4074 C   0  0  0  0  0  0  0  0  0  0  0  0
    3.8334    0.4158   -0.0235 C   0  0  0  0  0  0  0  0  0  0  0  0
    1.0260   -1.6589    0.4526 C   0  0  0  0  0  0  0  0  0  0  0  0
   -0.1132   -1.9031   -0.4952 C   0  0  0  0  0  0  0  0  0  0  0  0
   -1.2980    0.2291   -2.2010 H   0  0  0  0  0  0  0  0  0  0  0  0
   -1.4514   -1.4691   -2.4234 H   0  0  0  0  0  0  0  0  0  0  0  0
   -1.9139   -1.4756    1.5161 H   0  0  0  0  0  0  0  0  0  0  0  0
   -2.6918   -2.2356    0.1243 H   0  0  0  0  0  0  0  0  0  0  0  0
   -4.4424   -1.2529   -1.0878 H   0  0  0  0  0  0  0  0  0  0  0  0
   -6.3466    0.2419   -1.0581 H   0  0  0  0  0  0  0  0  0  0  0  0
   -4.5363    2.3133    2.2694 H   0  0  0  0  0  0  0  0  0  0  0  0
   -2.6243    0.7835    2.2155 H   0  0  0  0  0  0  0  0  0  0  0  0
   -1.3022    1.2572   -0.1966 H   0  0  0  0  0  0  0  0  0  0  0  0
   -0.5279    0.3352    1.1828 H   0  0  0  0  0  0  0  0  0  0  0  0
    1.0892    1.6711   -0.2131 H   0  0  0  0  0  0  0  0  0  0  0  0
    0.8471    0.4827   -1.5215 H   0  0  0  0  0  0  0  0  0  0  0  0
    4.4427    0.3473    3.7659 H   0  0  0  0  0  0  0  0  0  0  0  0
    6.8220    1.4342   -0.4058 H   0  0  0  0  0  0  0  0  0  0  0  0
    5.5680    1.1755   -2.6576 H   0  0  0  0  0  0  0  0  0  0  0  0
    3.1318    0.3288   -2.1393 H   0  0  0  0  0  0  0  0  0  0  0  0
    0.6981   -1.8677    1.4983 H   0  0  0  0  0  0  0  0  0  0  0  0
    1.8033   -2.4262    0.2072 H   0  0  0  0  0  0  0  0  0  0  0  0
   -0.5071   -2.9214   -0.2787 H   0  0  0  0  0  0  0  0  0  0  0  0
    0.3326   -1.9720   -1.5210 H   0  0  0  0  0  0  0  0  0  0  0  0
  1  2  1  0
  2  3  1  0
  3  4  1  0
  4  5  2  0
  5  6  1  0
  6  7  2  0
  7  8  1  0
  7  9  1  0
  9 10  2  0
  2 11  1  0
 11 12  1  0
 12 13  1  0
 13 14  1  0
 14 15  2  0
 15 16  1  0
 16 17  2  0
 17 18  1  0
 18 19  1  0
 19 20  1  0
 20 21  2  0
 21 22  1  0
 13 23  1  0
 23 24  1  0
 24  2  1  0
 10  4  1  0
 22 14  1  0
 22 18  2  0
  1 25  1  0
  1 26  1  0
  3 27  1  0
  3 28  1  0
  5 29  1  0
  6 30  1  0
  9 31  1  0
 10 32  1  0
 11 33  1  0
 11 34  1  0
 12 35  1  0
 12 36  1  0
 16 37  1  0
 19 38  1  0
 20 39  1  0
 21 40  1  0
 23 41  1  0
 23 42  1  0
 24 43  1  0
 24 44  1  0
M  END
$$$$
