@<TRIPOS>MOLECULE
*****
 48 51 0 0 0
SMALL
GASTEIGER

@<TRIPOS>ATOM
      1 C           4.9811    0.1339    1.1703 C.1     1  UNL1       -0.1179
      2 C           4.6797   -1.1888    0.6177 C.1     1  UNL1       -0.0900
      3 C           4.4100   -2.4276    0.1097 C.3     1  UNL1        0.0609
      4 N           4.0076   -2.3885   -1.2178 N.3     1  UNL1       -0.2868
      5 C           3.3955   -3.3956   -1.8800 C.3     1  UNL1        0.0055
      6 C           1.9009   -3.1085   -2.1097 C.3     1  UNL1        0.0029
      7 C           1.5470   -1.7433   -1.6404 C.ar    1  UNL1        0.0511
      8 N           0.2668   -1.5618   -1.2693 N.ar    1  UNL1       -0.2317
      9 C          -0.0371   -0.3144   -0.7622 C.ar    1  UNL1        0.1638
     10 N          -1.2766   -0.2198   -0.1984 N.ar    1  UNL1       -0.2113
     11 C          -1.6693    0.8565    0.5340 C.ar    1  UNL1        0.1412
     12 N          -2.9933    1.0100    0.9952 N.pl3   1  UNL1       -0.3141
     13 C          -3.7315    2.2107    0.6546 C.3     1  UNL1        0.0135
     14 C          -4.7557    2.4825    1.6730 C.3     1  UNL1       -0.0371
     15 C          -5.7791    1.3568    1.6652 C.3     1  UNL1       -0.0502
     16 C          -5.1833    0.0782    1.2749 C.3     1  UNL1       -0.0371
     17 C          -3.7066   -0.0281    1.7161 C.3     1  UNL1        0.0135
     18 C          -0.7642    1.9224    0.7532 C.ar    1  UNL1        0.0923
     19 C          -0.7712    2.7696    1.6647 C.1     1  UNL1        0.1026
     20 N          -0.7578    3.7923    2.7882 N.1     1  UNL1       -0.1908
     21 C           0.5298    1.7581    0.0918 C.ar    1  UNL1       -0.0285
     22 C           0.8535    0.6670   -0.6529 C.ar    1  UNL1        0.0415
     23 C           2.2044    0.5162   -1.0450 C.ar    1  UNL1        0.0416
     24 N           3.0591    1.6100   -1.0164 N.pl3   1  UNL1       -0.3571
     25 C           2.4517   -0.7323   -1.5219 C.ar    1  UNL1        0.0093
     26 C           3.8994   -1.0753   -1.8108 C.3     1  UNL1        0.0284
     27 H           5.1379    0.8509    1.4561 H       1  UNL1        0.1228
     28 H           5.3921   -3.0418    0.1405 H       1  UNL1        0.0563
     29 H           3.6649   -2.9843    0.7786 H       1  UNL1        0.0563
     30 H           3.8724   -3.5698   -2.9110 H       1  UNL1        0.0431
     31 H           3.4889   -4.3531   -1.3029 H       1  UNL1        0.0431
     32 H           1.3492   -3.8245   -1.4102 H       1  UNL1        0.0341
     33 H           1.6631   -3.3546   -3.1554 H       1  UNL1        0.0341
     34 H          -4.2925    1.8920   -0.3035 H       1  UNL1        0.0464
     35 H          -3.0928    3.0117    0.3535 H       1  UNL1        0.0464
     36 H          -5.2979    3.4515    1.4718 H       1  UNL1        0.0280
     37 H          -4.3522    2.4972    2.6984 H       1  UNL1        0.0280
     38 H          -6.6429    1.5575    0.9458 H       1  UNL1        0.0266
     39 H          -6.3209    1.2341    2.6502 H       1  UNL1        0.0266
     40 H          -5.7417   -0.7335    1.7204 H       1  UNL1        0.0280
     41 H          -5.1803   -0.0424    0.1609 H       1  UNL1        0.0280
     42 H          -3.3014   -1.0021    1.3358 H       1  UNL1        0.0464
     43 H          -3.6125    0.1653    2.7712 H       1  UNL1        0.0464
     44 H           1.2438    2.5806    0.2092 H       1  UNL1        0.0639
     45 H           3.9273    1.7003   -0.5326 H       1  UNL1        0.1423
     46 H           2.7097    2.4734   -1.6162 H       1  UNL1        0.1423
     47 H           4.0556   -1.1572   -2.8887 H       1  UNL1        0.0477
     48 H           4.5692   -0.3315   -1.3838 H       1  UNL1        0.0477
@<TRIPOS>BOND
     1     1     2    3
     2     2     3    1
     3     3     4    1
     4     4     5    1
     5     5     6    1
     6     6     7    1
     7     7     8   ar
     8     8     9   ar
     9     9    10   ar
    10    10    11   ar
    11    11    12    1
    12    12    13    1
    13    13    14    1
    14    14    15    1
    15    15    16    1
    16    16    17    1
    17    11    18   ar
    18    18    19    1
    19    19    20    3
    20    18    21   ar
    21    21    22   ar
    22    22    23   ar
    23    23    24    1
    24    23    25   ar
    25    25    26    1
    26    26     4    1
    27    25     7   ar
    28    22     9   ar
    29    17    12    1
    30     1    27    1
    31     3    28    1
    32     3    29    1
    33     5    30    1
    34     5    31    1
    35     6    32    1
    36     6    33    1
    37    13    34    1
    38    13    35    1
    39    14    36    1
    40    14    37    1
    41    15    38    1
    42    15    39    1
    43    16    40    1
    44    16    41    1
    45    17    42    1
    46    17    43    1
    47    21    44    1
    48    24    45    1
    49    24    46    1
    50    26    47    1
    51    26    48    1
