@<TRIPOS>MOLECULE
*****
 258 257 0 0 0
SMALL
GASTEIGER

@<TRIPOS>ATOM
      1 C          -1.5171    0.8544   11.3859 C.3     1  UNL1       -0.0653
      2 C          -0.5476    1.0391   10.2454 C.3     1  UNL1       -0.0559
      3 C          -0.1930   -0.3579    9.7313 C.3     1  UNL1       -0.0533
      4 C           0.7863   -0.2283    8.5736 C.3     1  UNL1       -0.0531
      5 C           1.1426   -1.6073    8.0662 C.3     1  UNL1       -0.0531
      6 C           2.1381   -1.4617    6.8909 C.3     1  UNL1       -0.0531
      7 C           2.4616   -2.8341    6.4139 C.3     1  UNL1       -0.0531
      8 C           3.3754   -2.9792    5.2751 C.3     1  UNL1       -0.0531
      9 C           4.7853   -2.5635    5.3326 C.3     1  UNL1       -0.0531
     10 C           5.1037   -1.1281    5.6079 C.3     1  UNL1       -0.0531
     11 C           4.4533   -0.1898    4.6112 C.3     1  UNL1       -0.0531
     12 C           4.7666    1.2473    4.8775 C.3     1  UNL1       -0.0531
     13 C           4.0249    2.1538    3.8477 C.3     1  UNL1       -0.0531
     14 C           4.3769    3.5444    4.1719 C.3     1  UNL1       -0.0530
     15 C           3.8628    4.6808    3.4090 C.3     1  UNL1       -0.0526
     16 C           2.4164    4.9786    3.3657 C.3     1  UNL1       -0.0430
     17 C           1.4792    4.0048    2.7426 C.3     1  UNL1        0.0449
     18 C           1.7784    3.7530    1.3085 C.2     1  UNL1        0.3072
     19 O           2.6287    4.2183    0.5252 O.2     1  UNL1       -0.2509
     20 O           1.0217    2.8369    0.5900 O.3     1  UNL1       -0.4608
     21 C           1.2531    2.5746   -0.7931 C.3     1  UNL1        0.1315
     22 C           0.2478    1.4751   -1.1725 C.3     1  UNL1        0.1605
     23 C           0.6756    0.3185   -0.2537 C.3     1  UNL1        0.0993
     24 O           1.9696   -0.0790   -0.5936 O.3     1  UNL1       -0.2828
     25 P           2.5881   -1.0093    0.6638 P.3     1  UNL1        0.4751
     26 O           1.5909   -0.9271    2.0470 O.3     1  UNL1       -0.3025
     27 O           2.7134   -2.4669    0.3190 O.2     1  UNL1       -0.2273
     28 O           4.1336   -0.4095    1.0319 O.3     1  UNL1       -0.2840
     29 C           4.9387   -0.4607   -0.0976 C.3     1  UNL1        0.0872
     30 C           6.3060    0.1621    0.1077 C.3     1  UNL1        0.1028
     31 O           6.2301    1.4918    0.4437 O.3     1  UNL1       -0.3872
     32 C           7.2026   -0.1140   -1.0993 C.3     1  UNL1        0.0872
     33 O           6.6945    0.5687   -2.1725 O.3     1  UNL1       -0.2840
     34 P           7.3849    0.0459   -3.6541 P.3     1  UNL1        0.4751
     35 O           8.2670   -1.3809   -3.4502 O.3     1  UNL1       -0.3025
     36 O           8.2135    1.1040   -4.2956 O.2     1  UNL1       -0.2273
     37 O           6.0124   -0.2779   -4.6422 O.3     1  UNL1       -0.2828
     38 C           5.3695   -1.3234   -4.0331 C.3     1  UNL1        0.0993
     39 C           3.8165   -1.1483   -4.1301 C.3     1  UNL1        0.1605
     40 C           3.2786   -2.3304   -3.4316 C.3     1  UNL1        0.1315
     41 O           1.9497   -2.3126   -3.0329 O.3     1  UNL1       -0.4608
     42 C           1.3826   -3.4707   -2.5019 C.2     1  UNL1        0.3072
     43 O           1.9541   -4.5890   -2.3545 O.2     1  UNL1       -0.2509
     44 C          -0.0047   -3.2027   -2.1277 C.3     1  UNL1        0.0449
     45 C          -0.8796   -4.4593   -1.9862 C.3     1  UNL1       -0.0430
     46 C          -2.2428   -3.8589   -1.5568 C.3     1  UNL1       -0.0526
     47 C          -3.3162   -4.8722   -1.4326 C.3     1  UNL1       -0.0530
     48 C          -4.6018   -4.2282   -0.9990 C.3     1  UNL1       -0.0531
     49 C          -4.4511   -3.6373    0.3720 C.3     1  UNL1       -0.0531
     50 C          -5.7294   -2.9546    0.8654 C.3     1  UNL1       -0.0531
     51 C          -5.4376   -2.4696    2.2475 C.3     1  UNL1       -0.0531
     52 C          -6.5594   -1.7494    2.9247 C.3     1  UNL1       -0.0531
     53 C          -6.9694   -0.4981    2.2032 C.3     1  UNL1       -0.0531
     54 C          -8.1179    0.1359    3.0042 C.3     1  UNL1       -0.0531
     55 C          -8.5914    1.4149    2.3756 C.3     1  UNL1       -0.0531
     56 C          -9.7134    1.9995    3.1622 C.3     1  UNL1       -0.0531
     57 C          -9.2887    2.2953    4.5748 C.3     1  UNL1       -0.0531
     58 C         -10.5187    2.9148    5.2639 C.3     1  UNL1       -0.0533
     59 C         -10.1829    3.2316    6.6883 C.3     1  UNL1       -0.0559
     60 C         -11.3851    3.8356    7.3752 C.3     1  UNL1       -0.0653
     61 O           3.6371    0.1037   -3.4852 O.3     1  UNL1       -0.4555
     62 C           3.2098    1.1318   -4.3142 C.2     1  UNL1        0.3075
     63 O           2.9589    1.1102   -5.5570 O.2     1  UNL1       -0.2508
     64 C           2.8761    2.5604   -4.2033 C.3     1  UNL1        0.0450
     65 C           2.4336    3.1078   -5.5223 C.3     1  UNL1       -0.0430
     66 C           2.0406    4.5582   -5.4563 C.3     1  UNL1       -0.0526
     67 C           0.8906    4.8038   -4.5036 C.3     1  UNL1       -0.0530
     68 C           0.4438    6.2262   -4.4173 C.3     1  UNL1       -0.0531
     69 C          -0.7077    6.3732   -3.4163 C.3     1  UNL1       -0.0531
     70 C          -1.9030    5.5484   -3.8116 C.3     1  UNL1       -0.0531
     71 C          -3.0178    5.7076   -2.8235 C.3     1  UNL1       -0.0531
     72 C          -2.6551    5.2680   -1.4229 C.3     1  UNL1       -0.0531
     73 C          -3.8429    5.4603   -0.5009 C.3     1  UNL1       -0.0531
     74 C          -3.5273    5.0297    0.8910 C.3     1  UNL1       -0.0531
     75 C          -2.4070    5.7551    1.5605 C.3     1  UNL1       -0.0531
     76 C          -2.6264    7.2423    1.6961 C.3     1  UNL1       -0.0531
     77 C          -1.4808    7.9215    2.3980 C.3     1  UNL1       -0.0531
     78 C          -0.1610    7.7890    1.7152 C.3     1  UNL1       -0.0533
     79 C          -0.1246    8.3670    0.3184 C.3     1  UNL1       -0.0559
     80 C           1.2665    8.1607   -0.2726 C.3     1  UNL1       -0.0653
     81 O           0.2706    1.1105   -2.4951 O.3     1  UNL1       -0.4555
     82 C          -0.7205    1.1899   -3.4378 C.2     1  UNL1        0.3075
     83 O          -1.5549    1.7107   -2.6168 O.2     1  UNL1       -0.2508
     84 C          -1.5060    1.1187   -4.6566 C.3     1  UNL1        0.0450
     85 C          -0.8944    0.3422   -5.8049 C.3     1  UNL1       -0.0430
     86 C          -0.6450   -1.0878   -5.4539 C.3     1  UNL1       -0.0526
     87 C          -0.0758   -1.8055   -6.6744 C.3     1  UNL1       -0.0530
     88 C           0.1558   -3.2548   -6.2694 C.3     1  UNL1       -0.0531
     89 C           0.6818   -4.1151   -7.3681 C.3     1  UNL1       -0.0531
     90 C           0.8879   -5.5598   -6.8861 C.3     1  UNL1       -0.0531
     91 C           1.3904   -6.4658   -7.9538 C.3     1  UNL1       -0.0531
     92 C           1.5947   -7.8874   -7.4671 C.3     1  UNL1       -0.0531
     93 C           0.3647   -8.5334   -6.9376 C.3     1  UNL1       -0.0531
     94 C           0.6339   -9.9485   -6.4776 C.3     1  UNL1       -0.0531
     95 C           1.6688  -10.0410   -5.3878 C.3     1  UNL1       -0.0531
     96 C           1.2944   -9.2885   -4.1565 C.3     1  UNL1       -0.0531
     97 C           2.4030   -9.4555   -3.1255 C.3     1  UNL1       -0.0531
     98 C           2.0179   -8.6791   -1.8881 C.3     1  UNL1       -0.0533
     99 C           3.1015   -8.8214   -0.8370 C.3     1  UNL1       -0.0559
    100 C           2.7177   -8.0300    0.4131 C.3     1  UNL1       -0.0653
    101 H          -2.1291   -0.0442   11.2090 H       1  UNL1        0.0230
    102 H          -2.1556    1.7667   11.4432 H       1  UNL1        0.0230
    103 H          -0.9553    0.7159   12.3376 H       1  UNL1        0.0230
    104 H          -1.0533    1.5853    9.4167 H       1  UNL1        0.0263
    105 H           0.3413    1.5638   10.6056 H       1  UNL1        0.0263
    106 H          -1.1533   -0.7948    9.3939 H       1  UNL1        0.0265
    107 H           0.2360   -0.9281   10.5716 H       1  UNL1        0.0265
    108 H           0.2104    0.2656    7.7589 H       1  UNL1        0.0265
    109 H           1.6694    0.3427    8.8746 H       1  UNL1        0.0265
    110 H           1.6182   -2.2037    8.8645 H       1  UNL1        0.0265
    111 H           0.2297   -2.0684    7.6552 H       1  UNL1        0.0265
    112 H           2.9660   -0.8363    7.2183 H       1  UNL1        0.0265
    113 H           1.6264   -0.8737    6.0726 H       1  UNL1        0.0265
    114 H           1.4705   -3.3364    6.1593 H       1  UNL1        0.0265
    115 H           2.7930   -3.4653    7.3071 H       1  UNL1        0.0265
    116 H           2.9152   -2.3954    4.4065 H       1  UNL1        0.0265
    117 H           3.3539   -4.0531    4.9013 H       1  UNL1        0.0265
    118 H           5.2986   -3.2281    6.0931 H       1  UNL1        0.0265
    119 H           5.2682   -2.8923    4.3643 H       1  UNL1        0.0265
    120 H           5.0683   -0.8303    6.6438 H       1  UNL1        0.0265
    121 H           6.2528   -1.0775    5.3898 H       1  UNL1        0.0265
    122 H           4.9257   -0.4620    3.6162 H       1  UNL1        0.0265
    123 H           3.3888   -0.4201    4.5091 H       1  UNL1        0.0265
    124 H           5.8414    1.4508    4.6705 H       1  UNL1        0.0265
    125 H           4.4572    1.5150    5.9024 H       1  UNL1        0.0265
    126 H           4.3618    1.8112    2.8478 H       1  UNL1        0.0265
    127 H           2.9605    1.9012    3.9554 H       1  UNL1        0.0265
    128 H           4.0954    3.6761    5.2833 H       1  UNL1        0.0265
    129 H           5.5251    3.6078    4.2209 H       1  UNL1        0.0265
    130 H           4.3826    5.6488    3.6870 H       1  UNL1        0.0265
    131 H           4.1577    4.4948    2.3068 H       1  UNL1        0.0265
    132 H           2.2873    5.9363    2.7686 H       1  UNL1        0.0270
    133 H           2.0423    5.2047    4.4151 H       1  UNL1        0.0270
    134 H           0.4327    4.5177    2.7017 H       1  UNL1        0.0377
    135 H           1.3051    3.1460    3.3530 H       1  UNL1        0.0377
    136 H           2.2806    2.2275   -0.8710 H       1  UNL1        0.0736
    137 H           0.9891    3.4909   -1.3232 H       1  UNL1        0.0736
    138 H          -0.7100    1.8424   -0.8017 H       1  UNL1        0.0792
    139 H           0.0124   -0.5304   -0.2712 H       1  UNL1        0.0604
    140 H           0.7165    0.7407    0.7653 H       1  UNL1        0.0604
    141 H           1.8172   -0.1005    2.5393 H       1  UNL1        0.2220
    142 H           5.0100   -1.5047   -0.4170 H       1  UNL1        0.0592
    143 H           4.4081    0.1196   -0.8857 H       1  UNL1        0.0592
    144 H           6.7752   -0.3773    0.9658 H       1  UNL1        0.0640
    145 H           6.2283    2.0505   -0.3618 H       1  UNL1        0.2100
    146 H           7.2476   -1.1976   -1.2257 H       1  UNL1        0.0592
    147 H           8.1975    0.3399   -0.8692 H       1  UNL1        0.0592
    148 H           9.2486   -1.2045   -3.4029 H       1  UNL1        0.2220
    149 H           5.5892   -1.3108   -2.9534 H       1  UNL1        0.0604
    150 H           5.6231   -2.2769   -4.5409 H       1  UNL1        0.0604
    151 H           3.5832   -1.1179   -5.1976 H       1  UNL1        0.0792
    152 H           3.9415   -2.6260   -2.5907 H       1  UNL1        0.0736
    153 H           3.3708   -3.2000   -4.1524 H       1  UNL1        0.0736
    154 H          -0.5711   -2.5235   -2.7545 H       1  UNL1        0.0377
    155 H          -0.0727   -2.7523   -1.0815 H       1  UNL1        0.0377
    156 H          -1.0528   -4.9683   -2.9330 H       1  UNL1        0.0270
    157 H          -0.5555   -5.1143   -1.1734 H       1  UNL1        0.0270
    158 H          -2.0225   -3.2737   -0.6342 H       1  UNL1        0.0265
    159 H          -2.5044   -3.1387   -2.3612 H       1  UNL1        0.0265
    160 H          -3.0403   -5.7407   -0.8010 H       1  UNL1        0.0265
    161 H          -3.5113   -5.2745   -2.4655 H       1  UNL1        0.0265
    162 H          -5.4494   -4.9545   -0.9866 H       1  UNL1        0.0265
    163 H          -4.9347   -3.4331   -1.7100 H       1  UNL1        0.0265
    164 H          -4.2005   -4.4867    1.0537 H       1  UNL1        0.0265
    165 H          -3.6160   -2.9148    0.4103 H       1  UNL1        0.0265
    166 H          -6.0025   -2.1394    0.1698 H       1  UNL1        0.0265
    167 H          -6.5440   -3.6843    0.8650 H       1  UNL1        0.0265
    168 H          -5.1475   -3.3515    2.8701 H       1  UNL1        0.0265
    169 H          -4.5489   -1.7858    2.2425 H       1  UNL1        0.0265
    170 H          -6.1960   -1.4574    3.9400 H       1  UNL1        0.0265
    171 H          -7.4362   -2.4281    3.0958 H       1  UNL1        0.0265
    172 H          -6.0976    0.2015    2.2200 H       1  UNL1        0.0265
    173 H          -7.3588   -0.6732    1.1928 H       1  UNL1        0.0265
    174 H          -7.7419    0.3586    4.0318 H       1  UNL1        0.0265
    175 H          -8.9207   -0.6076    3.0394 H       1  UNL1        0.0265
    176 H          -8.9138    1.2458    1.3171 H       1  UNL1        0.0265
    177 H          -7.7299    2.1201    2.2882 H       1  UNL1        0.0265
    178 H         -10.1489    2.9070    2.6724 H       1  UNL1        0.0265
    179 H         -10.5849    1.2977    3.2387 H       1  UNL1        0.0265
    180 H          -9.0856    1.3377    5.1197 H       1  UNL1        0.0265
    181 H          -8.4376    2.9739    4.5568 H       1  UNL1        0.0265
    182 H         -11.3572    2.2123    5.2594 H       1  UNL1        0.0265
    183 H         -10.7723    3.8332    4.7223 H       1  UNL1        0.0265
    184 H          -9.9142    2.3077    7.2626 H       1  UNL1        0.0263
    185 H          -9.2914    3.8935    6.7987 H       1  UNL1        0.0263
    186 H         -11.0461    4.2366    8.3601 H       1  UNL1        0.0230
    187 H         -11.8236    4.6383    6.7545 H       1  UNL1        0.0230
    188 H         -12.1552    3.0697    7.6094 H       1  UNL1        0.0230
    189 H           2.2254    2.8115   -3.3784 H       1  UNL1        0.0377
    190 H           3.8558    3.0872   -3.9757 H       1  UNL1        0.0377
    191 H           3.2407    3.0403   -6.2791 H       1  UNL1        0.0270
    192 H           1.5470    2.5522   -5.8579 H       1  UNL1        0.0270
    193 H           2.8972    5.2238   -5.2332 H       1  UNL1        0.0265
    194 H           1.6855    4.8518   -6.4639 H       1  UNL1        0.0265
    195 H           0.0162    4.2237   -4.9003 H       1  UNL1        0.0265
    196 H           1.1891    4.5018   -3.4825 H       1  UNL1        0.0265
    197 H          -0.0011    6.5614   -5.3997 H       1  UNL1        0.0265
    198 H           1.2123    6.9625   -4.1870 H       1  UNL1        0.0265
    199 H          -1.0503    7.4285   -3.3933 H       1  UNL1        0.0265
    200 H          -0.3550    6.1059   -2.3927 H       1  UNL1        0.0265
    201 H          -1.6717    4.4545   -3.8384 H       1  UNL1        0.0265
    202 H          -2.2737    5.8760   -4.7964 H       1  UNL1        0.0265
    203 H          -3.4280    6.7393   -2.7554 H       1  UNL1        0.0265
    204 H          -3.8986    5.0687   -3.1145 H       1  UNL1        0.0265
    205 H          -1.8071    5.8185   -1.0235 H       1  UNL1        0.0265
    206 H          -2.3729    4.1917   -1.3917 H       1  UNL1        0.0265
    207 H          -4.6345    4.7459   -0.8723 H       1  UNL1        0.0265
    208 H          -4.3022    6.4496   -0.5702 H       1  UNL1        0.0265
    209 H          -3.2092    3.9519    0.8275 H       1  UNL1        0.0265
    210 H          -4.4070    5.0391    1.5617 H       1  UNL1        0.0265
    211 H          -1.4441    5.6425    1.0107 H       1  UNL1        0.0265
    212 H          -2.3400    5.3536    2.5984 H       1  UNL1        0.0265
    213 H          -3.5331    7.4705    2.3114 H       1  UNL1        0.0265
    214 H          -2.7548    7.7019    0.6863 H       1  UNL1        0.0265
    215 H          -1.7212    9.0011    2.5909 H       1  UNL1        0.0265
    216 H          -1.3653    7.4715    3.4229 H       1  UNL1        0.0265
    217 H           0.6657    8.2639    2.3107 H       1  UNL1        0.0265
    218 H           0.1165    6.7239    1.6679 H       1  UNL1        0.0265
    219 H          -0.2812    9.4545    0.3257 H       1  UNL1        0.0263
    220 H          -0.8657    7.9196   -0.3621 H       1  UNL1        0.0263
    221 H           1.3801    8.8452   -1.1251 H       1  UNL1        0.0230
    222 H           2.0537    8.3100    0.4915 H       1  UNL1        0.0230
    223 H           1.2625    7.1188   -0.6667 H       1  UNL1        0.0230
    224 H          -2.4848    0.6238   -4.4681 H       1  UNL1        0.0377
    225 H          -1.7545    2.1507   -5.0262 H       1  UNL1        0.0377
    226 H           0.0348    0.7563   -6.1879 H       1  UNL1        0.0270
    227 H          -1.6286    0.3711   -6.6343 H       1  UNL1        0.0270
    228 H           0.0240   -1.2064   -4.5807 H       1  UNL1        0.0265
    229 H          -1.5961   -1.6015   -5.2124 H       1  UNL1        0.0265
    230 H          -0.8137   -1.8266   -7.4895 H       1  UNL1        0.0265
    231 H           0.8591   -1.3734   -7.0386 H       1  UNL1        0.0265
    232 H           0.8530   -3.1940   -5.4002 H       1  UNL1        0.0265
    233 H          -0.7675   -3.7148   -5.8628 H       1  UNL1        0.0265
    234 H           1.5861   -3.7308   -7.8472 H       1  UNL1        0.0265
    235 H          -0.1073   -4.1920   -8.1570 H       1  UNL1        0.0265
    236 H           1.6287   -5.5204   -6.0643 H       1  UNL1        0.0265
    237 H          -0.0605   -5.9869   -6.5061 H       1  UNL1        0.0265
    238 H           0.6255   -6.5577   -8.7817 H       1  UNL1        0.0265
    239 H           2.3099   -6.1456   -8.4684 H       1  UNL1        0.0265
    240 H           2.4261   -7.9797   -6.7425 H       1  UNL1        0.0265
    241 H           1.9252   -8.5127   -8.3507 H       1  UNL1        0.0265
    242 H          -0.0395   -7.9913   -6.0439 H       1  UNL1        0.0265
    243 H          -0.4210   -8.5580   -7.7114 H       1  UNL1        0.0265
    244 H          -0.3313  -10.4194   -6.1419 H       1  UNL1        0.0265
    245 H           0.9471  -10.5406   -7.3589 H       1  UNL1        0.0265
    246 H           1.6967  -11.1359   -5.1009 H       1  UNL1        0.0265
    247 H           2.6569   -9.7228   -5.7215 H       1  UNL1        0.0265
    248 H           1.0481   -8.2321   -4.3060 H       1  UNL1        0.0265
    249 H           0.3832   -9.7305   -3.6582 H       1  UNL1        0.0265
    250 H           2.4419  -10.5420   -2.8438 H       1  UNL1        0.0265
    251 H           3.3797   -9.1409   -3.5017 H       1  UNL1        0.0265
    252 H           1.1028   -9.0986   -1.4372 H       1  UNL1        0.0265
    253 H           1.9384   -7.6145   -2.1528 H       1  UNL1        0.0265
    254 H           3.1948   -9.8826   -0.5014 H       1  UNL1        0.0263
    255 H           4.1005   -8.5211   -1.2057 H       1  UNL1        0.0263
    256 H           3.0823   -6.9818    0.3073 H       1  UNL1        0.0230
    257 H           1.6161   -8.0688    0.5392 H       1  UNL1        0.0230
    258 H           3.2089   -8.4241    1.3259 H       1  UNL1        0.0230
@<TRIPOS>BOND
     1     1     2    1
     2     2     3    1
     3     3     4    1
     4     4     5    1
     5     5     6    1
     6     6     7    1
     7     7     8    1
     8     8     9    1
     9     9    10    1
    10    10    11    1
    11    11    12    1
    12    12    13    1
    13    13    14    1
    14    14    15    1
    15    15    16    1
    16    16    17    1
    17    17    18    1
    18    18    19    2
    19    18    20    1
    20    20    21    1
    21    21    22    1
    22    22    23    1
    23    23    24    1
    24    25    24    1
    25    25    26    1
    26    25    27    2
    27    25    28    1
    28    28    29    1
    29    29    30    1
    30    30    31    1
    31    30    32    1
    32    32    33    1
    33    34    33    1
    34    34    35    1
    35    34    36    2
    36    34    37    1
    37    37    38    1
    38    38    39    1
    39    39    40    1
    40    40    41    1
    41    41    42    1
    42    42    43    2
    43    42    44    1
    44    44    45    1
    45    45    46    1
    46    46    47    1
    47    47    48    1
    48    48    49    1
    49    49    50    1
    50    50    51    1
    51    51    52    1
    52    52    53    1
    53    53    54    1
    54    54    55    1
    55    55    56    1
    56    56    57    1
    57    57    58    1
    58    58    59    1
    59    59    60    1
    60    39    61    1
    61    61    62    1
    62    62    63    2
    63    62    64    1
    64    64    65    1
    65    65    66    1
    66    66    67    1
    67    67    68    1
    68    68    69    1
    69    69    70    1
    70    70    71    1
    71    71    72    1
    72    72    73    1
    73    73    74    1
    74    74    75    1
    75    75    76    1
    76    76    77    1
    77    77    78    1
    78    78    79    1
    79    79    80    1
    80    22    81    1
    81    81    82    1
    82    82    83    2
    83    82    84    1
    84    84    85    1
    85    85    86    1
    86    86    87    1
    87    87    88    1
    88    88    89    1
    89    89    90    1
    90    90    91    1
    91    91    92    1
    92    92    93    1
    93    93    94    1
    94    94    95    1
    95    95    96    1
    96    96    97    1
    97    97    98    1
    98    98    99    1
    99    99   100    1
   100     1   101    1
   101     1   102    1
   102     1   103    1
   103     2   104    1
   104     2   105    1
   105     3   106    1
   106     3   107    1
   107     4   108    1
   108     4   109    1
   109     5   110    1
   110     5   111    1
   111     6   112    1
   112     6   113    1
   113     7   114    1
   114     7   115    1
   115     8   116    1
   116     8   117    1
   117     9   118    1
   118     9   119    1
   119    10   120    1
   120    10   121    1
   121    11   122    1
   122    11   123    1
   123    12   124    1
   124    12   125    1
   125    13   126    1
   126    13   127    1
   127    14   128    1
   128    14   129    1
   129    15   130    1
   130    15   131    1
   131    16   132    1
   132    16   133    1
   133    17   134    1
   134    17   135    1
   135    21   136    1
   136    21   137    1
   137    22   138    1
   138    23   139    1
   139    23   140    1
   140    26   141    1
   141    29   142    1
   142    29   143    1
   143    30   144    1
   144    31   145    1
   145    32   146    1
   146    32   147    1
   147    35   148    1
   148    38   149    1
   149    38   150    1
   150    39   151    1
   151    40   152    1
   152    40   153    1
   153    44   154    1
   154    44   155    1
   155    45   156    1
   156    45   157    1
   157    46   158    1
   158    46   159    1
   159    47   160    1
   160    47   161    1
   161    48   162    1
   162    48   163    1
   163    49   164    1
   164    49   165    1
   165    50   166    1
   166    50   167    1
   167    51   168    1
   168    51   169    1
   169    52   170    1
   170    52   171    1
   171    53   172    1
   172    53   173    1
   173    54   174    1
   174    54   175    1
   175    55   176    1
   176    55   177    1
   177    56   178    1
   178    56   179    1
   179    57   180    1
   180    57   181    1
   181    58   182    1
   182    58   183    1
   183    59   184    1
   184    59   185    1
   185    60   186    1
   186    60   187    1
   187    60   188    1
   188    64   189    1
   189    64   190    1
   190    65   191    1
   191    65   192    1
   192    66   193    1
   193    66   194    1
   194    67   195    1
   195    67   196    1
   196    68   197    1
   197    68   198    1
   198    69   199    1
   199    69   200    1
   200    70   201    1
   201    70   202    1
   202    71   203    1
   203    71   204    1
   204    72   205    1
   205    72   206    1
   206    73   207    1
   207    73   208    1
   208    74   209    1
   209    74   210    1
   210    75   211    1
   211    75   212    1
   212    76   213    1
   213    76   214    1
   214    77   215    1
   215    77   216    1
   216    78   217    1
   217    78   218    1
   218    79   219    1
   219    79   220    1
   220    80   221    1
   221    80   222    1
   222    80   223    1
   223    84   224    1
   224    84   225    1
   225    85   226    1
   226    85   227    1
   227    86   228    1
   228    86   229    1
   229    87   230    1
   230    87   231    1
   231    88   232    1
   232    88   233    1
   233    89   234    1
   234    89   235    1
   235    90   236    1
   236    90   237    1
   237    91   238    1
   238    91   239    1
   239    92   240    1
   240    92   241    1
   241    93   242    1
   242    93   243    1
   243    94   244    1
   244    94   245    1
   245    95   246    1
   246    95   247    1
   247    96   248    1
   248    96   249    1
   249    97   250    1
   250    97   251    1
   251    98   252    1
   252    98   253    1
   253    99   254    1
   254    99   255    1
   255   100   256    1
   256   100   257    1
   257   100   258    1
