@<TRIPOS>MOLECULE
*****
 64 67 0 0 0
SMALL
GASTEIGER

@<TRIPOS>ATOM
      1 C           8.1891   -0.9036    1.2258 C.3     1  UNL1       -0.0372
      2 C           7.2220   -0.0607    0.4177 C.3     1  UNL1        0.0719
      3 C           5.8568   -0.6471    0.5619 C.3     1  UNL1        0.0383
      4 N           4.7868    0.2576    0.2885 N.pl3   1  UNL1       -0.3249
      5 C           3.4757   -0.2044    0.0093 C.ar    1  UNL1        0.0313
      6 C           2.4772    0.6568   -0.3809 C.ar    1  UNL1       -0.0387
      7 C           1.2050    0.1581   -0.6377 C.ar    1  UNL1       -0.0322
      8 C           0.9672   -1.1664   -0.4980 C.ar    1  UNL1        0.1238
      9 S          -0.5884   -1.8681   -0.8461 S.O2    1  UNL1        0.0626
     10 O          -0.4186   -2.8120   -2.0370 O.2     1  UNL1       -0.1528
     11 O          -1.0062   -2.7929    0.2965 O.2     1  UNL1       -0.1528
     12 N          -1.8409   -0.7868   -1.1134 N.3     1  UNL1       -0.1708
     13 C          -2.1563    0.0231   -0.0079 C.3     1  UNL1        0.0366
     14 C          -3.2620    1.0170   -0.3468 C.3     1  UNL1        0.0267
     15 N          -4.4343    0.2799   -0.7167 N.pl3   1  UNL1       -0.3266
     16 C          -5.7541    0.6292   -0.3691 C.ar    1  UNL1        0.0417
     17 C          -6.5213    1.2731   -1.3652 C.ar    1  UNL1       -0.0374
     18 C          -7.8069    1.6534   -1.0780 C.ar    1  UNL1       -0.0247
     19 C          -8.3910    1.4345    0.1493 C.ar    1  UNL1        0.1241
     20 F          -9.6708    1.8218    0.4171 F       1  UNL1       -0.2055
     21 C          -7.6252    0.8074    1.0997 C.ar    1  UNL1       -0.0130
     22 C          -6.2971    0.3951    0.8564 C.ar    1  UNL1        0.0785
     23 C          -5.5590   -0.2797    1.9226 C.3     1  UNL1        0.4192
     24 F          -6.4406   -0.3936    3.0289 F       1  UNL1       -0.1658
     25 F          -5.2092   -1.5854    1.6474 F       1  UNL1       -0.1658
     26 F          -4.4845    0.3871    2.4341 F       1  UNL1       -0.1658
     27 C          -4.2790   -0.9176   -1.5231 C.3     1  UNL1        0.0292
     28 C          -2.8814   -1.2076   -1.9622 C.3     1  UNL1        0.0447
     29 C          -2.6579   -0.7515   -3.4186 C.3     1  UNL1       -0.0464
     30 C           1.9648   -2.0395   -0.1068 C.ar    1  UNL1        0.0690
     31 CL          1.6606   -3.7480    0.0723 Cl      1  UNL1       -0.0815
     32 C           3.2147   -1.5501    0.1445 C.ar    1  UNL1       -0.0204
     33 C           5.0621    1.6836    0.3054 C.3     1  UNL1        0.0383
     34 C           6.2381    1.8610    1.2627 C.3     1  UNL1        0.0719
     35 C           5.8261    1.5222    2.6566 C.3     1  UNL1       -0.0372
     36 O           7.3599    1.2385    0.8029 O.3     1  UNL1       -0.3708
     37 H           7.8934   -1.9575    1.2667 H       1  UNL1        0.0255
     38 H           9.1931   -0.7794    0.7650 H       1  UNL1        0.0255
     39 H           8.2917   -0.4593    2.2555 H       1  UNL1        0.0255
     40 H           7.5629   -0.1401   -0.6545 H       1  UNL1        0.0609
     41 H           5.7859   -1.4489   -0.2350 H       1  UNL1        0.0489
     42 H           5.7238   -1.1964    1.5156 H       1  UNL1        0.0489
     43 H           2.6392    1.7159   -0.5007 H       1  UNL1        0.0637
     44 H           0.4378    0.8354   -0.9660 H       1  UNL1        0.0638
     45 H          -2.5746   -0.5894    0.8481 H       1  UNL1        0.0459
     46 H          -1.2986    0.5379    0.4100 H       1  UNL1        0.0459
     47 H          -2.9199    1.6995   -1.1716 H       1  UNL1        0.0477
     48 H          -3.4299    1.6588    0.5084 H       1  UNL1        0.0477
     49 H          -6.0614    1.4461   -2.3357 H       1  UNL1        0.0637
     50 H          -8.3737    2.1498   -1.8666 H       1  UNL1        0.0647
     51 H          -8.0638    0.6230    2.0780 H       1  UNL1        0.0652
     52 H          -4.6467   -1.7775   -0.9328 H       1  UNL1        0.0479
     53 H          -4.9082   -0.8615   -2.4451 H       1  UNL1        0.0479
     54 H          -2.8018   -2.3355   -2.0480 H       1  UNL1        0.0493
     55 H          -3.2392   -1.3927   -4.0834 H       1  UNL1        0.0246
     56 H          -1.5907   -0.8736   -3.6213 H       1  UNL1        0.0246
     57 H          -2.9925    0.2959   -3.5484 H       1  UNL1        0.0246
     58 H           4.0359   -2.2164    0.4596 H       1  UNL1        0.0651
     59 H           5.3368    1.9701   -0.7139 H       1  UNL1        0.0489
     60 H           4.1984    2.2797    0.6676 H       1  UNL1        0.0489
     61 H           6.4544    2.9716    1.2171 H       1  UNL1        0.0609
     62 H           6.1985    0.5753    3.0507 H       1  UNL1        0.0255
     63 H           6.2253    2.3167    3.3488 H       1  UNL1        0.0255
     64 H           4.7025    1.5682    2.7769 H       1  UNL1        0.0255
@<TRIPOS>BOND
     1     1     2    1
     2     2     3    1
     3     3     4    1
     4     4     5    1
     5     5     6   ar
     6     6     7   ar
     7     7     8   ar
     8     8     9    1
     9     9    10    2
    10     9    11    2
    11     9    12    1
    12    12    13    1
    13    13    14    1
    14    14    15    1
    15    15    16    1
    16    16    17   ar
    17    17    18   ar
    18    18    19   ar
    19    19    20    1
    20    19    21   ar
    21    21    22   ar
    22    22    23    1
    23    23    24    1
    24    23    25    1
    25    23    26    1
    26    15    27    1
    27    27    28    1
    28    28    29    1
    29     8    30   ar
    30    30    31    1
    31    30    32   ar
    32     4    33    1
    33    33    34    1
    34    34    35    1
    35    34    36    1
    36    36     2    1
    37    32     5   ar
    38    28    12    1
    39    22    16   ar
    40     1    37    1
    41     1    38    1
    42     1    39    1
    43     2    40    1
    44     3    41    1
    45     3    42    1
    46     6    43    1
    47     7    44    1
    48    13    45    1
    49    13    46    1
    50    14    47    1
    51    14    48    1
    52    17    49    1
    53    18    50    1
    54    21    51    1
    55    27    52    1
    56    27    53    1
    57    28    54    1
    58    29    55    1
    59    29    56    1
    60    29    57    1
    61    32    58    1
    62    33    59    1
    63    33    60    1
    64    34    61    1
    65    35    62    1
    66    35    63    1
    67    35    64    1
