
     RDKit          3D

 64 67  0  0  0  0  0  0  0  0999 V2000
    8.1891   -0.9036    1.2258 C   0  0  0  0  0  0  0  0  0  0  0  0
    7.2220   -0.0607    0.4177 C   0  0  1  0  0  0  0  0  0  0  0  0
    5.8568   -0.6471    0.5619 C   0  0  0  0  0  0  0  0  0  0  0  0
    4.7868    0.2576    0.2885 N   0  0  0  0  0  0  0  0  0  0  0  0
    3.4757   -0.2044    0.0093 C   0  0  0  0  0  0  0  0  0  0  0  0
    2.4772    0.6568   -0.3809 C   0  0  0  0  0  0  0  0  0  0  0  0
    1.2050    0.1581   -0.6377 C   0  0  0  0  0  0  0  0  0  0  0  0
    0.9672   -1.1664   -0.4980 C   0  0  0  0  0  0  0  0  0  0  0  0
   -0.5884   -1.8681   -0.8461 S   0  0  0  0  0  6  0  0  0  0  0  0
   -0.4186   -2.8120   -2.0370 O   0  0  0  0  0  0  0  0  0  0  0  0
   -1.0062   -2.7929    0.2965 O   0  0  0  0  0  0  0  0  0  0  0  0
   -1.8409   -0.7868   -1.1134 N   0  0  0  0  0  0  0  0  0  0  0  0
   -2.1563    0.0231   -0.0079 C   0  0  0  0  0  0  0  0  0  0  0  0
   -3.2620    1.0170   -0.3468 C   0  0  0  0  0  0  0  0  0  0  0  0
   -4.4343    0.2799   -0.7167 N   0  0  0  0  0  0  0  0  0  0  0  0
   -5.7541    0.6292   -0.3691 C   0  0  0  0  0  0  0  0  0  0  0  0
   -6.5213    1.2731   -1.3652 C   0  0  0  0  0  0  0  0  0  0  0  0
   -7.8069    1.6534   -1.0780 C   0  0  0  0  0  0  0  0  0  0  0  0
   -8.3910    1.4345    0.1493 C   0  0  0  0  0  0  0  0  0  0  0  0
   -9.6708    1.8218    0.4171 F   0  0  0  0  0  0  0  0  0  0  0  0
   -7.6252    0.8074    1.0997 C   0  0  0  0  0  0  0  0  0  0  0  0
   -6.2971    0.3951    0.8564 C   0  0  0  0  0  0  0  0  0  0  0  0
   -5.5590   -0.2797    1.9226 C   0  0  0  0  0  0  0  0  0  0  0  0
   -6.4406   -0.3936    3.0289 F   0  0  0  0  0  0  0  0  0  0  0  0
   -5.2092   -1.5854    1.6474 F   0  0  0  0  0  0  0  0  0  0  0  0
   -4.4845    0.3871    2.4341 F   0  0  0  0  0  0  0  0  0  0  0  0
   -4.2790   -0.9176   -1.5231 C   0  0  0  0  0  0  0  0  0  0  0  0
   -2.8814   -1.2076   -1.9622 C   0  0  1  0  0  0  0  0  0  0  0  0
   -2.6579   -0.7515   -3.4186 C   0  0  0  0  0  0  0  0  0  0  0  0
    1.9648   -2.0395   -0.1068 C   0  0  0  0  0  0  0  0  0  0  0  0
    1.6606   -3.7480    0.0723 Cl  0  0  0  0  0  0  0  0  0  0  0  0
    3.2147   -1.5501    0.1445 C   0  0  0  0  0  0  0  0  0  0  0  0
    5.0621    1.6836    0.3054 C   0  0  0  0  0  0  0  0  0  0  0  0
    6.2381    1.8610    1.2627 C   0  0  1  0  0  0  0  0  0  0  0  0
    5.8261    1.5222    2.6566 C   0  0  0  0  0  0  0  0  0  0  0  0
    7.3599    1.2385    0.8029 O   0  0  0  0  0  0  0  0  0  0  0  0
    7.8934   -1.9575    1.2667 H   0  0  0  0  0  0  0  0  0  0  0  0
    9.1931   -0.7794    0.7650 H   0  0  0  0  0  0  0  0  0  0  0  0
    8.2917   -0.4593    2.2555 H   0  0  0  0  0  0  0  0  0  0  0  0
    7.5629   -0.1401   -0.6545 H   0  0  0  0  0  0  0  0  0  0  0  0
    5.7859   -1.4489   -0.2350 H   0  0  0  0  0  0  0  0  0  0  0  0
    5.7238   -1.1964    1.5156 H   0  0  0  0  0  0  0  0  0  0  0  0
    2.6392    1.7159   -0.5007 H   0  0  0  0  0  0  0  0  0  0  0  0
    0.4378    0.8354   -0.9660 H   0  0  0  0  0  0  0  0  0  0  0  0
   -2.5746   -0.5894    0.8481 H   0  0  0  0  0  0  0  0  0  0  0  0
   -1.2986    0.5379    0.4100 H   0  0  0  0  0  0  0  0  0  0  0  0
   -2.9199    1.6995   -1.1716 H   0  0  0  0  0  0  0  0  0  0  0  0
   -3.4299    1.6588    0.5084 H   0  0  0  0  0  0  0  0  0  0  0  0
   -6.0614    1.4461   -2.3357 H   0  0  0  0  0  0  0  0  0  0  0  0
   -8.3737    2.1498   -1.8666 H   0  0  0  0  0  0  0  0  0  0  0  0
   -8.0638    0.6230    2.0780 H   0  0  0  0  0  0  0  0  0  0  0  0
   -4.6467   -1.7775   -0.9328 H   0  0  0  0  0  0  0  0  0  0  0  0
   -4.9082   -0.8615   -2.4451 H   0  0  0  0  0  0  0  0  0  0  0  0
   -2.8018   -2.3355   -2.0480 H   0  0  0  0  0  0  0  0  0  0  0  0
   -3.2392   -1.3927   -4.0834 H   0  0  0  0  0  0  0  0  0  0  0  0
   -1.5907   -0.8736   -3.6213 H   0  0  0  0  0  0  0  0  0  0  0  0
   -2.9925    0.2959   -3.5484 H   0  0  0  0  0  0  0  0  0  0  0  0
    4.0359   -2.2164    0.4596 H   0  0  0  0  0  0  0  0  0  0  0  0
    5.3368    1.9701   -0.7139 H   0  0  0  0  0  0  0  0  0  0  0  0
    4.1984    2.2797    0.6676 H   0  0  0  0  0  0  0  0  0  0  0  0
    6.4544    2.9716    1.2171 H   0  0  0  0  0  0  0  0  0  0  0  0
    6.1985    0.5753    3.0507 H   0  0  0  0  0  0  0  0  0  0  0  0
    6.2253    2.3167    3.3488 H   0  0  0  0  0  0  0  0  0  0  0  0
    4.7025    1.5682    2.7769 H   0  0  0  0  0  0  0  0  0  0  0  0
  1  2  1  0
  2  3  1  0
  3  4  1  0
  4  5  1  0
  5  6  2  0
  6  7  1  0
  7  8  2  0
  8  9  1  0
  9 10  2  0
  9 11  2  0
  9 12  1  0
 12 13  1  0
 13 14  1  0
 14 15  1  0
 15 16  1  0
 16 17  2  0
 17 18  1  0
 18 19  2  0
 19 20  1  0
 19 21  1  0
 21 22  2  0
 22 23  1  0
 23 24  1  0
 23 25  1  0
 23 26  1  0
 15 27  1  0
 27 28  1  0
 28 29  1  0
  8 30  1  0
 30 31  1  0
 30 32  2  0
  4 33  1  0
 33 34  1  0
 34 35  1  0
 34 36  1  0
 36  2  1  0
 32  5  1  0
 28 12  1  0
 22 16  1  0
  1 37  1  0
  1 38  1  0
  1 39  1  0
  2 40  1  6
  3 41  1  0
  3 42  1  0
  6 43  1  0
  7 44  1  0
 13 45  1  0
 13 46  1  0
 14 47  1  0
 14 48  1  0
 17 49  1  0
 18 50  1  0
 21 51  1  0
 27 52  1  0
 27 53  1  0
 28 54  1  6
 29 55  1  0
 29 56  1  0
 29 57  1  0
 32 58  1  0
 33 59  1  0
 33 60  1  0
 34 61  1  1
 35 62  1  0
 35 63  1  0
 35 64  1  0
M  END
$$$$
