@<TRIPOS>MOLECULE
*****
 77 81 0 0 0
SMALL
GASTEIGER

@<TRIPOS>ATOM
      1 C           9.2915   -1.2450    1.4251 C.3     1  UNL1       -0.0306
      2 C           8.6137   -2.1281    0.4022 C.3     1  UNL1        0.0885
      3 O           7.5365   -1.3833   -0.1593 O.3     1  UNL1       -0.4744
      4 C           7.7698   -0.1692   -0.8106 C.ar    1  UNL1        0.2554
      5 N           9.0054    0.3824   -0.9554 N.ar    1  UNL1       -0.1317
      6 N           8.9134    1.5260   -1.6116 N.ar    1  UNL1       -0.2692
      7 C          10.0058    2.4111   -1.9630 C.3     1  UNL1        0.0304
      8 C           7.6090    1.7146   -1.8925 C.ar    1  UNL1        0.0502
      9 C           6.8515    0.6582   -1.3990 C.ar    1  UNL1        0.1142
     10 N           5.4490    0.4636   -1.4766 N.pl3   1  UNL1       -0.2929
     11 C           4.6385    0.3635   -0.3178 C.ar    1  UNL1        0.1420
     12 C           5.2190    0.4796    0.9206 C.ar    1  UNL1        0.0679
     13 N           4.5163    0.3814    2.0678 N.ar    1  UNL1       -0.2546
     14 C           3.2026    0.1635    1.9640 C.ar    1  UNL1        0.0643
     15 C           2.3406    0.0217    3.1802 C.3     1  UNL1       -0.0203
     16 C           2.5528    0.0376    0.7345 C.ar    1  UNL1        0.0960
     17 C           1.1125   -0.1830    0.7150 C.ar    1  UNL1        0.0272
     18 C           0.1448    0.6129    1.3226 C.ar    1  UNL1        0.0120
     19 N          -1.0812    0.1216    1.1146 N.ar    1  UNL1       -0.3586
     20 C          -0.9444   -0.9957    0.3730 C.ar    1  UNL1        0.0686
     21 C          -1.8541   -1.8988   -0.1309 C.ar    1  UNL1        0.0576
     22 N          -3.2625   -1.7320    0.1495 N.am    1  UNL1       -0.2824
     23 C          -4.0118   -0.9013   -0.6903 C.2     1  UNL1        0.2367
     24 O          -3.4600   -0.2954   -1.6878 O.2     1  UNL1       -0.2737
     25 C          -5.4857   -0.6884   -0.4521 C.3     1  UNL1        0.1112
     26 C          -5.8171   -0.3268    0.9492 C.3     1  UNL1        0.0714
     27 O          -5.5422   -1.2979    1.8566 O.3     1  UNL1       -0.3809
     28 C          -6.3011   -2.4730    1.7083 C.3     1  UNL1        0.0365
     29 N          -5.9220    0.3694   -1.3792 N.3     1  UNL1       -0.2873
     30 C          -5.3499    1.6371   -1.1384 C.3     1  UNL1        0.0125
     31 C          -6.2748    2.6422   -0.5016 C.3     1  UNL1        0.0114
     32 N          -7.6069    2.6321   -1.0143 N.3     1  UNL1       -0.3029
     33 C          -8.6136    2.5723    0.0278 C.3     1  UNL1       -0.0127
     34 C          -7.8877    1.6508   -2.0110 C.3     1  UNL1        0.0114
     35 C          -7.3259    0.2968   -1.5768 C.3     1  UNL1        0.0125
     36 C          -1.4213   -2.9712   -0.8705 C.ar    1  UNL1       -0.0384
     37 C          -0.0647   -3.1726   -1.1277 C.ar    1  UNL1       -0.0593
     38 C           0.8615   -2.2697   -0.6244 C.ar    1  UNL1       -0.0518
     39 C           0.4139   -1.2037    0.1120 C.ar    1  UNL1        0.0107
     40 N           3.2909    0.1407   -0.3730 N.ar    1  UNL1       -0.2285
     41 H           8.6292   -0.3869    1.6318 H       1  UNL1        0.0262
     42 H          10.2454   -0.8993    0.9474 H       1  UNL1        0.0262
     43 H           9.5681   -1.7922    2.3394 H       1  UNL1        0.0262
     44 H           9.2954   -2.5177   -0.3586 H       1  UNL1        0.0694
     45 H           8.1324   -2.9511    1.0028 H       1  UNL1        0.0694
     46 H          10.9806    1.8948   -1.8671 H       1  UNL1        0.0473
     47 H          10.0464    3.2644   -1.2256 H       1  UNL1        0.0473
     48 H           9.8136    2.8503   -2.9389 H       1  UNL1        0.0473
     49 H           7.1745    2.5528   -2.4250 H       1  UNL1        0.0846
     50 H           5.0463    0.3962   -2.4412 H       1  UNL1        0.1538
     51 H           6.2739    0.6684    1.0275 H       1  UNL1        0.0865
     52 H           2.0605    1.0340    3.5195 H       1  UNL1        0.0293
     53 H           1.4617   -0.6188    2.9688 H       1  UNL1        0.0293
     54 H           2.9836   -0.4206    3.9844 H       1  UNL1        0.0293
     55 H           0.3803    1.5146    1.8864 H       1  UNL1        0.0814
     56 H          -2.0116    0.5076    1.4490 H       1  UNL1        0.1654
     57 H          -3.6646   -2.2350    0.9639 H       1  UNL1        0.1549
     58 H          -5.9942   -1.6028   -0.7571 H       1  UNL1        0.0582
     59 H          -6.9097   -0.0985    1.0025 H       1  UNL1        0.0580
     60 H          -5.2221    0.5790    1.2706 H       1  UNL1        0.0580
     61 H          -7.3734   -2.2982    1.7839 H       1  UNL1        0.0523
     62 H          -5.9436   -3.2197    2.4801 H       1  UNL1        0.0523
     63 H          -6.0493   -2.9123    0.7336 H       1  UNL1        0.0523
     64 H          -4.4266    1.6197   -0.5235 H       1  UNL1        0.0439
     65 H          -5.0394    2.0766   -2.1215 H       1  UNL1        0.0439
     66 H          -5.8196    3.6593   -0.6943 H       1  UNL1        0.0439
     67 H          -6.3279    2.5764    0.6025 H       1  UNL1        0.0439
     68 H          -8.1072    2.1811    0.9330 H       1  UNL1        0.0391
     69 H          -8.9938    3.5899    0.3075 H       1  UNL1        0.0391
     70 H          -9.5011    1.9726   -0.2619 H       1  UNL1        0.0391
     71 H          -7.4786    1.9749   -2.9776 H       1  UNL1        0.0439
     72 H          -8.9889    1.5797   -2.1352 H       1  UNL1        0.0439
     73 H          -7.9200   -0.0163   -0.7038 H       1  UNL1        0.0439
     74 H          -7.5474   -0.4088   -2.4368 H       1  UNL1        0.0439
     75 H          -2.1195   -3.6834   -1.2682 H       1  UNL1        0.0637
     76 H           0.3100   -4.0051   -1.7044 H       1  UNL1        0.0618
     77 H           1.9242   -2.3689   -0.7858 H       1  UNL1        0.0624
@<TRIPOS>BOND
     1     1     2    1
     2     2     3    1
     3     3     4    1
     4     4     5   ar
     5     5     6   ar
     6     6     7    1
     7     6     8   ar
     8     8     9   ar
     9     9    10    1
    10    10    11    1
    11    11    12   ar
    12    12    13   ar
    13    13    14   ar
    14    14    15    1
    15    14    16   ar
    16    16    17    1
    17    17    18   ar
    18    18    19   ar
    19    19    20   ar
    20    20    21   ar
    21    21    22    1
    22    22    23   am
    23    23    24    2
    24    23    25    1
    25    25    26    1
    26    26    27    1
    27    27    28    1
    28    25    29    1
    29    29    30    1
    30    30    31    1
    31    31    32    1
    32    32    33    1
    33    32    34    1
    34    34    35    1
    35    21    36   ar
    36    36    37   ar
    37    37    38   ar
    38    38    39   ar
    39    16    40   ar
    40     9     4   ar
    41    40    11   ar
    42    39    17   ar
    43    39    20   ar
    44    35    29    1
    45     1    41    1
    46     1    42    1
    47     1    43    1
    48     2    44    1
    49     2    45    1
    50     7    46    1
    51     7    47    1
    52     7    48    1
    53     8    49    1
    54    10    50    1
    55    12    51    1
    56    15    52    1
    57    15    53    1
    58    15    54    1
    59    18    55    1
    60    19    56    1
    61    22    57    1
    62    25    58    1
    63    26    59    1
    64    26    60    1
    65    28    61    1
    66    28    62    1
    67    28    63    1
    68    30    64    1
    69    30    65    1
    70    31    66    1
    71    31    67    1
    72    33    68    1
    73    33    69    1
    74    33    70    1
    75    34    71    1
    76    34    72    1
    77    35    73    1
    78    35    74    1
    79    36    75    1
    80    37    76    1
    81    38    77    1
