
     RDKit          3D

 77 81  0  0  0  0  0  0  0  0999 V2000
    9.2915   -1.2450    1.4251 C   0  0  0  0  0  0  0  0  0  0  0  0
    8.6137   -2.1281    0.4022 C   0  0  0  0  0  0  0  0  0  0  0  0
    7.5365   -1.3833   -0.1593 O   0  0  0  0  0  0  0  0  0  0  0  0
    7.7698   -0.1692   -0.8106 C   0  0  0  0  0  0  0  0  0  0  0  0
    9.0054    0.3824   -0.9554 N   0  0  0  0  0  0  0  0  0  0  0  0
    8.9134    1.5260   -1.6116 N   0  0  0  0  0  0  0  0  0  0  0  0
   10.0058    2.4111   -1.9630 C   0  0  0  0  0  0  0  0  0  0  0  0
    7.6090    1.7146   -1.8925 C   0  0  0  0  0  0  0  0  0  0  0  0
    6.8515    0.6582   -1.3990 C   0  0  0  0  0  0  0  0  0  0  0  0
    5.4490    0.4636   -1.4766 N   0  0  0  0  0  0  0  0  0  0  0  0
    4.6385    0.3635   -0.3178 C   0  0  0  0  0  0  0  0  0  0  0  0
    5.2190    0.4796    0.9206 C   0  0  0  0  0  0  0  0  0  0  0  0
    4.5163    0.3814    2.0678 N   0  0  0  0  0  0  0  0  0  0  0  0
    3.2026    0.1635    1.9640 C   0  0  0  0  0  0  0  0  0  0  0  0
    2.3406    0.0217    3.1802 C   0  0  0  0  0  0  0  0  0  0  0  0
    2.5528    0.0376    0.7345 C   0  0  0  0  0  0  0  0  0  0  0  0
    1.1125   -0.1830    0.7150 C   0  0  0  0  0  0  0  0  0  0  0  0
    0.1448    0.6129    1.3226 C   0  0  0  0  0  0  0  0  0  0  0  0
   -1.0812    0.1216    1.1146 N   0  0  0  0  0  0  0  0  0  0  0  0
   -0.9444   -0.9957    0.3730 C   0  0  0  0  0  0  0  0  0  0  0  0
   -1.8541   -1.8988   -0.1309 C   0  0  0  0  0  0  0  0  0  0  0  0
   -3.2625   -1.7320    0.1495 N   0  0  0  0  0  0  0  0  0  0  0  0
   -4.0118   -0.9013   -0.6903 C   0  0  0  0  0  0  0  0  0  0  0  0
   -3.4600   -0.2954   -1.6878 O   0  0  0  0  0  0  0  0  0  0  0  0
   -5.4857   -0.6884   -0.4521 C   0  0  1  0  0  0  0  0  0  0  0  0
   -5.8171   -0.3268    0.9492 C   0  0  0  0  0  0  0  0  0  0  0  0
   -5.5422   -1.2979    1.8566 O   0  0  0  0  0  0  0  0  0  0  0  0
   -6.3011   -2.4730    1.7083 C   0  0  0  0  0  0  0  0  0  0  0  0
   -5.9220    0.3694   -1.3792 N   0  0  0  0  0  0  0  0  0  0  0  0
   -5.3499    1.6371   -1.1384 C   0  0  0  0  0  0  0  0  0  0  0  0
   -6.2748    2.6422   -0.5016 C   0  0  0  0  0  0  0  0  0  0  0  0
   -7.6069    2.6321   -1.0143 N   0  0  0  0  0  0  0  0  0  0  0  0
   -8.6136    2.5723    0.0278 C   0  0  0  0  0  0  0  0  0  0  0  0
   -7.8877    1.6508   -2.0110 C   0  0  0  0  0  0  0  0  0  0  0  0
   -7.3259    0.2968   -1.5768 C   0  0  0  0  0  0  0  0  0  0  0  0
   -1.4213   -2.9712   -0.8705 C   0  0  0  0  0  0  0  0  0  0  0  0
   -0.0647   -3.1726   -1.1277 C   0  0  0  0  0  0  0  0  0  0  0  0
    0.8615   -2.2697   -0.6244 C   0  0  0  0  0  0  0  0  0  0  0  0
    0.4139   -1.2037    0.1120 C   0  0  0  0  0  0  0  0  0  0  0  0
    3.2909    0.1407   -0.3730 N   0  0  0  0  0  0  0  0  0  0  0  0
    8.6292   -0.3869    1.6318 H   0  0  0  0  0  0  0  0  0  0  0  0
   10.2454   -0.8993    0.9474 H   0  0  0  0  0  0  0  0  0  0  0  0
    9.5681   -1.7922    2.3394 H   0  0  0  0  0  0  0  0  0  0  0  0
    9.2954   -2.5177   -0.3586 H   0  0  0  0  0  0  0  0  0  0  0  0
    8.1324   -2.9511    1.0028 H   0  0  0  0  0  0  0  0  0  0  0  0
   10.9806    1.8948   -1.8671 H   0  0  0  0  0  0  0  0  0  0  0  0
   10.0464    3.2644   -1.2256 H   0  0  0  0  0  0  0  0  0  0  0  0
    9.8136    2.8503   -2.9389 H   0  0  0  0  0  0  0  0  0  0  0  0
    7.1745    2.5528   -2.4250 H   0  0  0  0  0  0  0  0  0  0  0  0
    5.0463    0.3962   -2.4412 H   0  0  0  0  0  0  0  0  0  0  0  0
    6.2739    0.6684    1.0275 H   0  0  0  0  0  0  0  0  0  0  0  0
    2.0605    1.0340    3.5195 H   0  0  0  0  0  0  0  0  0  0  0  0
    1.4617   -0.6188    2.9688 H   0  0  0  0  0  0  0  0  0  0  0  0
    2.9836   -0.4206    3.9844 H   0  0  0  0  0  0  0  0  0  0  0  0
    0.3803    1.5146    1.8864 H   0  0  0  0  0  0  0  0  0  0  0  0
   -2.0116    0.5076    1.4490 H   0  0  0  0  0  0  0  0  0  0  0  0
   -3.6646   -2.2350    0.9639 H   0  0  0  0  0  0  0  0  0  0  0  0
   -5.9942   -1.6028   -0.7571 H   0  0  0  0  0  0  0  0  0  0  0  0
   -6.9097   -0.0985    1.0025 H   0  0  0  0  0  0  0  0  0  0  0  0
   -5.2221    0.5790    1.2706 H   0  0  0  0  0  0  0  0  0  0  0  0
   -7.3734   -2.2982    1.7839 H   0  0  0  0  0  0  0  0  0  0  0  0
   -5.9436   -3.2197    2.4801 H   0  0  0  0  0  0  0  0  0  0  0  0
   -6.0493   -2.9123    0.7336 H   0  0  0  0  0  0  0  0  0  0  0  0
   -4.4266    1.6197   -0.5235 H   0  0  0  0  0  0  0  0  0  0  0  0
   -5.0394    2.0766   -2.1215 H   0  0  0  0  0  0  0  0  0  0  0  0
   -5.8196    3.6593   -0.6943 H   0  0  0  0  0  0  0  0  0  0  0  0
   -6.3279    2.5764    0.6025 H   0  0  0  0  0  0  0  0  0  0  0  0
   -8.1072    2.1811    0.9330 H   0  0  0  0  0  0  0  0  0  0  0  0
   -8.9938    3.5899    0.3075 H   0  0  0  0  0  0  0  0  0  0  0  0
   -9.5011    1.9726   -0.2619 H   0  0  0  0  0  0  0  0  0  0  0  0
   -7.4786    1.9749   -2.9776 H   0  0  0  0  0  0  0  0  0  0  0  0
   -8.9889    1.5797   -2.1352 H   0  0  0  0  0  0  0  0  0  0  0  0
   -7.9200   -0.0163   -0.7038 H   0  0  0  0  0  0  0  0  0  0  0  0
   -7.5474   -0.4088   -2.4368 H   0  0  0  0  0  0  0  0  0  0  0  0
   -2.1195   -3.6834   -1.2682 H   0  0  0  0  0  0  0  0  0  0  0  0
    0.3100   -4.0051   -1.7044 H   0  0  0  0  0  0  0  0  0  0  0  0
    1.9242   -2.3689   -0.7858 H   0  0  0  0  0  0  0  0  0  0  0  0
  1  2  1  0
  2  3  1  0
  3  4  1  0
  4  5  2  0
  5  6  1  0
  6  7  1  0
  6  8  1  0
  8  9  2  0
  9 10  1  0
 10 11  1  0
 11 12  2  0
 12 13  1  0
 13 14  2  0
 14 15  1  0
 14 16  1  0
 16 17  1  0
 17 18  2  0
 18 19  1  0
 19 20  1  0
 20 21  2  0
 21 22  1  0
 22 23  1  0
 23 24  2  0
 23 25  1  0
 25 26  1  0
 26 27  1  0
 27 28  1  0
 25 29  1  0
 29 30  1  0
 30 31  1  0
 31 32  1  0
 32 33  1  0
 32 34  1  0
 34 35  1  0
 21 36  1  0
 36 37  2  0
 37 38  1  0
 38 39  2  0
 16 40  2  0
  9  4  1  0
 40 11  1  0
 39 17  1  0
 39 20  1  0
 35 29  1  0
  1 41  1  0
  1 42  1  0
  1 43  1  0
  2 44  1  0
  2 45  1  0
  7 46  1  0
  7 47  1  0
  7 48  1  0
  8 49  1  0
 10 50  1  0
 12 51  1  0
 15 52  1  0
 15 53  1  0
 15 54  1  0
 18 55  1  0
 19 56  1  0
 22 57  1  0
 25 58  1  6
 26 59  1  0
 26 60  1  0
 28 61  1  0
 28 62  1  0
 28 63  1  0
 30 64  1  0
 30 65  1  0
 31 66  1  0
 31 67  1  0
 33 68  1  0
 33 69  1  0
 33 70  1  0
 34 71  1  0
 34 72  1  0
 35 73  1  0
 35 74  1  0
 36 75  1  0
 37 76  1  0
 38 77  1  0
M  END
$$$$
