@<TRIPOS>MOLECULE
*****
 66 70 0 0 0
SMALL
GASTEIGER

@<TRIPOS>ATOM
      1 C          -4.4399   -2.2012   -1.8138 C.3     1  UNL1       -0.0610
      2 C          -4.5846   -0.8425   -2.4635 C.3     1  UNL1       -0.0278
      3 C          -5.9236   -0.2846   -2.0054 C.3     1  UNL1       -0.0450
      4 C          -5.8636    1.2067   -2.2646 C.3     1  UNL1       -0.0278
      5 C          -7.2219    1.8632   -2.1749 C.3     1  UNL1       -0.0610
      6 C          -4.9677    1.7983   -1.1999 C.3     1  UNL1        0.0173
      7 N          -3.7598    0.9863   -1.0301 N.am    1  UNL1       -0.2998
      8 C          -2.9374    1.1680    0.1042 C.2     1  UNL1        0.2324
      9 O          -3.2773    2.0376    0.9478 O.2     1  UNL1       -0.2741
     10 C          -1.7058    0.4186    0.3822 C.3     1  UNL1        0.1054
     11 C          -1.6249   -1.0268    0.5695 C.3     1  UNL1       -0.0220
     12 C          -1.4686   -0.1161    1.7221 C.3     1  UNL1        0.0134
     13 C          -0.1755    0.1415    2.3892 C.3     1  UNL1        0.0935
     14 C          -0.3560   -0.0657    3.9068 C.3     1  UNL1       -0.0351
     15 C           0.8906   -0.8299    2.0147 C.ar    1  UNL1        0.0158
     16 C           2.1150   -0.3377    1.6249 C.ar    1  UNL1       -0.0463
     17 C           3.1620   -1.1688    1.2513 C.ar    1  UNL1       -0.0217
     18 C           4.4553   -0.6512    0.8379 C.2     1  UNL1       -0.0172
     19 C           5.2176   -1.1432   -0.1073 C.2     1  UNL1        0.1492
     20 F           4.7626   -2.2399   -0.7660 F       1  UNL1       -0.2032
     21 C           6.4793   -0.5146   -0.4098 C.ar    1  UNL1        0.0990
     22 C           7.2819   -1.0234   -1.3953 C.ar    1  UNL1       -0.0322
     23 C           8.5047   -0.4282   -1.7079 C.ar    1  UNL1       -0.0408
     24 C           8.8743    0.6809   -0.9964 C.ar    1  UNL1        0.0699
     25 C          10.1273    1.3644   -1.2601 C.1     1  UNL1        0.1007
     26 N          11.1168    1.9052   -1.4875 N.1     1  UNL1       -0.1908
     27 C           8.0589    1.1777   -0.0124 C.ar    1  UNL1        0.0457
     28 N           6.8728    0.5643    0.2595 N.ar    1  UNL1       -0.2514
     29 C           2.9317   -2.5236    1.2842 C.ar    1  UNL1       -0.0518
     30 C           1.6855   -3.0215    1.6814 C.ar    1  UNL1       -0.0255
     31 C           0.6552   -2.1832    2.0496 C.ar    1  UNL1        0.1289
     32 F          -0.5511   -2.7042    2.4397 F       1  UNL1       -0.2051
     33 N           0.3329    1.4945    2.2768 N.2     1  UNL1       -0.2521
     34 C           0.4026    2.1532    1.1809 C.2     1  UNL1        0.1485
     35 N           0.8854    3.4623    1.0138 N.pl3   1  UNL1       -0.3380
     36 S          -0.1999    1.2739   -0.2553 S.3     1  UNL1       -0.0746
     37 C          -3.4234    0.0166   -2.0196 C.3     1  UNL1        0.0173
     38 H          -4.5551   -2.0284   -0.7121 H       1  UNL1        0.0233
     39 H          -3.4584   -2.6480   -2.0664 H       1  UNL1        0.0233
     40 H          -5.2799   -2.8314   -2.1757 H       1  UNL1        0.0233
     41 H          -4.6213   -0.9914   -3.5447 H       1  UNL1        0.0313
     42 H          -6.0490   -0.4508   -0.9168 H       1  UNL1        0.0271
     43 H          -6.7037   -0.7252   -2.6272 H       1  UNL1        0.0271
     44 H          -5.4680    1.3803   -3.2974 H       1  UNL1        0.0313
     45 H          -7.1512    2.8065   -2.7681 H       1  UNL1        0.0233
     46 H          -7.4676    2.0667   -1.1221 H       1  UNL1        0.0233
     47 H          -7.9878    1.2228   -2.6745 H       1  UNL1        0.0233
     48 H          -5.5570    1.8460   -0.2616 H       1  UNL1        0.0467
     49 H          -4.6683    2.8232   -1.5465 H       1  UNL1        0.0467
     50 H          -2.5357   -1.6589    0.5260 H       1  UNL1        0.0287
     51 H          -0.7651   -1.5155    0.0535 H       1  UNL1        0.0287
     52 H          -2.3692   -0.0595    2.4046 H       1  UNL1        0.0346
     53 H          -1.3156    0.3435    4.2393 H       1  UNL1        0.0256
     54 H          -0.3494   -1.1365    4.1668 H       1  UNL1        0.0256
     55 H           0.5191    0.4049    4.3953 H       1  UNL1        0.0256
     56 H           2.3565    0.7256    1.5806 H       1  UNL1        0.0628
     57 H           4.8110    0.2378    1.3819 H       1  UNL1        0.0653
     58 H           7.0161   -1.9003   -1.9763 H       1  UNL1        0.0640
     59 H           9.1386   -0.8225   -2.4791 H       1  UNL1        0.0631
     60 H           8.3756    2.0489    0.5286 H       1  UNL1        0.0843
     61 H           3.7144   -3.2354    1.0033 H       1  UNL1        0.0624
     62 H           1.5022   -4.0903    1.7078 H       1  UNL1        0.0646
     63 H           0.8172    4.2220    1.7261 H       1  UNL1        0.1442
     64 H           1.3503    3.7086    0.1128 H       1  UNL1        0.1442
     65 H          -3.0163    0.4812   -2.9509 H       1  UNL1        0.0467
     66 H          -2.6138   -0.6309   -1.6345 H       1  UNL1        0.0467
@<TRIPOS>BOND
     1     1     2    1
     2     2     3    1
     3     3     4    1
     4     4     5    1
     5     4     6    1
     6     6     7    1
     7     7     8   am
     8     8     9    2
     9    10     8    1
    10    10    11    1
    11    11    12    1
    12    12    13    1
    13    13    14    1
    14    13    15    1
    15    15    16   ar
    16    16    17   ar
    17    17    18    1
    18    18    19    2
    19    19    20    1
    20    19    21    1
    21    21    22   ar
    22    22    23   ar
    23    23    24   ar
    24    24    25    1
    25    25    26    3
    26    24    27   ar
    27    27    28   ar
    28    17    29   ar
    29    29    30   ar
    30    30    31   ar
    31    31    32    1
    32    13    33    1
    33    33    34    2
    34    34    35    1
    35    34    36    1
    36     7    37    1
    37    37     2    1
    38    12    10    1
    39    31    15   ar
    40    36    10    1
    41    28    21   ar
    42     1    38    1
    43     1    39    1
    44     1    40    1
    45     2    41    1
    46     3    42    1
    47     3    43    1
    48     4    44    1
    49     5    45    1
    50     5    46    1
    51     5    47    1
    52     6    48    1
    53     6    49    1
    54    11    50    1
    55    11    51    1
    56    12    52    1
    57    14    53    1
    58    14    54    1
    59    14    55    1
    60    16    56    1
    61    18    57    1
    62    22    58    1
    63    23    59    1
    64    27    60    1
    65    29    61    1
    66    30    62    1
    67    35    63    1
    68    35    64    1
    69    37    65    1
    70    37    66    1
