
     RDKit          3D

 66 70  0  0  0  0  0  0  0  0999 V2000
   -4.4399   -2.2012   -1.8138 C   0  0  0  0  0  0  0  0  0  0  0  0
   -4.5846   -0.8425   -2.4635 C   0  0  0  0  0  0  0  0  0  0  0  0
   -5.9236   -0.2846   -2.0054 C   0  0  0  0  0  0  0  0  0  0  0  0
   -5.8636    1.2067   -2.2646 C   0  0  0  0  0  0  0  0  0  0  0  0
   -7.2219    1.8632   -2.1749 C   0  0  0  0  0  0  0  0  0  0  0  0
   -4.9677    1.7983   -1.1999 C   0  0  0  0  0  0  0  0  0  0  0  0
   -3.7598    0.9863   -1.0301 N   0  0  0  0  0  0  0  0  0  0  0  0
   -2.9374    1.1680    0.1042 C   0  0  0  0  0  0  0  0  0  0  0  0
   -3.2773    2.0376    0.9478 O   0  0  0  0  0  0  0  0  0  0  0  0
   -1.7058    0.4186    0.3822 C   0  0  2  0  0  0  0  0  0  0  0  0
   -1.6249   -1.0268    0.5695 C   0  0  0  0  0  0  0  0  0  0  0  0
   -1.4686   -0.1161    1.7221 C   0  0  1  0  0  0  0  0  0  0  0  0
   -0.1755    0.1415    2.3892 C   0  0  1  0  0  0  0  0  0  0  0  0
   -0.3560   -0.0657    3.9068 C   0  0  0  0  0  0  0  0  0  0  0  0
    0.8906   -0.8299    2.0147 C   0  0  0  0  0  0  0  0  0  0  0  0
    2.1150   -0.3377    1.6249 C   0  0  0  0  0  0  0  0  0  0  0  0
    3.1620   -1.1688    1.2513 C   0  0  0  0  0  0  0  0  0  0  0  0
    4.4553   -0.6512    0.8379 C   0  0  0  0  0  0  0  0  0  0  0  0
    5.2176   -1.1432   -0.1073 C   0  0  0  0  0  0  0  0  0  0  0  0
    4.7626   -2.2399   -0.7660 F   0  0  0  0  0  0  0  0  0  0  0  0
    6.4793   -0.5146   -0.4098 C   0  0  0  0  0  0  0  0  0  0  0  0
    7.2819   -1.0234   -1.3953 C   0  0  0  0  0  0  0  0  0  0  0  0
    8.5047   -0.4282   -1.7079 C   0  0  0  0  0  0  0  0  0  0  0  0
    8.8743    0.6809   -0.9964 C   0  0  0  0  0  0  0  0  0  0  0  0
   10.1273    1.3644   -1.2601 C   0  0  0  0  0  0  0  0  0  0  0  0
   11.1168    1.9052   -1.4875 N   0  0  0  0  0  0  0  0  0  0  0  0
    8.0589    1.1777   -0.0124 C   0  0  0  0  0  0  0  0  0  0  0  0
    6.8728    0.5643    0.2595 N   0  0  0  0  0  0  0  0  0  0  0  0
    2.9317   -2.5236    1.2842 C   0  0  0  0  0  0  0  0  0  0  0  0
    1.6855   -3.0215    1.6814 C   0  0  0  0  0  0  0  0  0  0  0  0
    0.6552   -2.1832    2.0496 C   0  0  0  0  0  0  0  0  0  0  0  0
   -0.5511   -2.7042    2.4397 F   0  0  0  0  0  0  0  0  0  0  0  0
    0.3329    1.4945    2.2768 N   0  0  0  0  0  0  0  0  0  0  0  0
    0.4026    2.1532    1.1809 C   0  0  0  0  0  0  0  0  0  0  0  0
    0.8854    3.4623    1.0138 N   0  0  0  0  0  0  0  0  0  0  0  0
   -0.1999    1.2739   -0.2553 S   0  0  0  0  0  0  0  0  0  0  0  0
   -3.4234    0.0166   -2.0196 C   0  0  0  0  0  0  0  0  0  0  0  0
   -4.5551   -2.0284   -0.7121 H   0  0  0  0  0  0  0  0  0  0  0  0
   -3.4584   -2.6480   -2.0664 H   0  0  0  0  0  0  0  0  0  0  0  0
   -5.2799   -2.8314   -2.1757 H   0  0  0  0  0  0  0  0  0  0  0  0
   -4.6213   -0.9914   -3.5447 H   0  0  0  0  0  0  0  0  0  0  0  0
   -6.0490   -0.4508   -0.9168 H   0  0  0  0  0  0  0  0  0  0  0  0
   -6.7037   -0.7252   -2.6272 H   0  0  0  0  0  0  0  0  0  0  0  0
   -5.4680    1.3803   -3.2974 H   0  0  0  0  0  0  0  0  0  0  0  0
   -7.1512    2.8065   -2.7681 H   0  0  0  0  0  0  0  0  0  0  0  0
   -7.4676    2.0667   -1.1221 H   0  0  0  0  0  0  0  0  0  0  0  0
   -7.9878    1.2228   -2.6745 H   0  0  0  0  0  0  0  0  0  0  0  0
   -5.5570    1.8460   -0.2616 H   0  0  0  0  0  0  0  0  0  0  0  0
   -4.6683    2.8232   -1.5465 H   0  0  0  0  0  0  0  0  0  0  0  0
   -2.5357   -1.6589    0.5260 H   0  0  0  0  0  0  0  0  0  0  0  0
   -0.7651   -1.5155    0.0535 H   0  0  0  0  0  0  0  0  0  0  0  0
   -2.3692   -0.0595    2.4046 H   0  0  0  0  0  0  0  0  0  0  0  0
   -1.3156    0.3435    4.2393 H   0  0  0  0  0  0  0  0  0  0  0  0
   -0.3494   -1.1365    4.1668 H   0  0  0  0  0  0  0  0  0  0  0  0
    0.5191    0.4049    4.3953 H   0  0  0  0  0  0  0  0  0  0  0  0
    2.3565    0.7256    1.5806 H   0  0  0  0  0  0  0  0  0  0  0  0
    4.8110    0.2378    1.3819 H   0  0  0  0  0  0  0  0  0  0  0  0
    7.0161   -1.9003   -1.9763 H   0  0  0  0  0  0  0  0  0  0  0  0
    9.1386   -0.8225   -2.4791 H   0  0  0  0  0  0  0  0  0  0  0  0
    8.3756    2.0489    0.5286 H   0  0  0  0  0  0  0  0  0  0  0  0
    3.7144   -3.2354    1.0033 H   0  0  0  0  0  0  0  0  0  0  0  0
    1.5022   -4.0903    1.7078 H   0  0  0  0  0  0  0  0  0  0  0  0
    0.8172    4.2220    1.7261 H   0  0  0  0  0  0  0  0  0  0  0  0
    1.3503    3.7086    0.1128 H   0  0  0  0  0  0  0  0  0  0  0  0
   -3.0163    0.4812   -2.9509 H   0  0  0  0  0  0  0  0  0  0  0  0
   -2.6138   -0.6309   -1.6345 H   0  0  0  0  0  0  0  0  0  0  0  0
  1  2  1  0
  2  3  1  0
  3  4  1  0
  4  5  1  0
  4  6  1  0
  6  7  1  0
  7  8  1  0
  8  9  2  0
 10  8  1  1
 10 11  1  0
 11 12  1  0
 12 13  1  0
 13 14  1  1
 13 15  1  0
 15 16  2  0
 16 17  1  0
 17 18  1  0
 18 19  2  0
 19 20  1  0
 19 21  1  0
 21 22  2  0
 22 23  1  0
 23 24  2  0
 24 25  1  0
 25 26  3  0
 24 27  1  0
 27 28  2  0
 17 29  2  0
 29 30  1  0
 30 31  2  0
 31 32  1  0
 13 33  1  0
 33 34  2  0
 34 35  1  0
 34 36  1  0
  7 37  1  0
 37  2  1  0
 12 10  1  0
 31 15  1  0
 36 10  1  0
 28 21  1  0
  1 38  1  0
  1 39  1  0
  1 40  1  0
  2 41  1  0
  3 42  1  0
  3 43  1  0
  4 44  1  0
  5 45  1  0
  5 46  1  0
  5 47  1  0
  6 48  1  0
  6 49  1  0
 11 50  1  0
 11 51  1  0
 12 52  1  1
 14 53  1  0
 14 54  1  0
 14 55  1  0
 16 56  1  0
 18 57  1  0
 22 58  1  0
 23 59  1  0
 27 60  1  0
 29 61  1  0
 30 62  1  0
 35 63  1  0
 35 64  1  0
 37 65  1  0
 37 66  1  0
M  END
$$$$
