@<TRIPOS>MOLECULE
*****
 39 42 0 0 0
SMALL
GASTEIGER

@<TRIPOS>ATOM
      1 BR          7.1674    2.0324    0.9215 Br      1  UNL1       -0.0503
      2 C           5.2827    2.0624    0.6708 C.ar    1  UNL1        0.0185
      3 C           4.6416    3.2549    0.5863 C.ar    1  UNL1       -0.0477
      4 C           3.2529    3.4756    0.3953 C.ar    1  UNL1       -0.0601
      5 C           2.5865    2.2868    0.2999 C.ar    1  UNL1       -0.0525
      6 C           3.0380    1.0290    0.3557 C.ar    1  UNL1        0.0019
      7 C           4.4291    0.9648    0.5478 C.ar    1  UNL1       -0.0386
      8 C           2.5600   -0.2804    0.2777 C.ar    1  UNL1        0.0853
      9 N           2.1392   -1.4245    0.2091 N.ar    1  UNL1       -0.1840
     10 C           1.6993   -2.5538    0.1387 C.ar    1  UNL1        0.3373
     11 N           0.3832   -2.2708    0.0020 N.ar    1  UNL1       -0.0377
     12 N          -0.3260   -3.4218   -0.0983 N.ar    1  UNL1       -0.1618
     13 C           0.5683   -4.4491   -0.0238 C.ar    1  UNL1        0.0689
     14 C           1.8552   -3.8985    0.1273 C.ar    1  UNL1        0.0546
     15 C           0.0338   -0.9318   -0.0087 C.ar    1  UNL1        0.3046
     16 N          -1.3795   -0.6145   -0.1439 N.pl3   1  UNL1       -0.2853
     17 C          -1.9778    0.7280   -0.2418 C.3     1  UNL1        0.0396
     18 C          -3.4459    0.5788   -0.2747 C.ar    1  UNL1       -0.0274
     19 C          -3.9914    0.3063   -1.5497 C.ar    1  UNL1       -0.0389
     20 C          -5.3706    0.1773   -1.5096 C.ar    1  UNL1        0.0279
     21 N          -6.2468    0.2595   -0.5204 N.ar    1  UNL1       -0.2632
     22 C          -5.7329    0.5294    0.7442 C.ar    1  UNL1        0.0279
     23 C          -4.3670    0.6595    0.7195 C.ar    1  UNL1       -0.0389
     24 C           1.1255   -0.0190    0.1269 C.ar    1  UNL1        0.0550
     25 H           5.2320    4.1762    0.6647 H       1  UNL1        0.0629
     26 H           2.7835    4.4238    0.3376 H       1  UNL1        0.0618
     27 H           1.5306    2.4156    0.1630 H       1  UNL1        0.0624
     28 H           5.0432    0.0396    0.6325 H       1  UNL1        0.0635
     29 H          -1.3837   -3.4790   -0.2053 H       1  UNL1        0.2365
     30 H           0.3463   -5.5012   -0.0653 H       1  UNL1        0.0865
     31 H           2.8083   -4.3853    0.2195 H       1  UNL1        0.0718
     32 H          -1.9979   -1.4411   -0.1691 H       1  UNL1        0.1519
     33 H          -1.7045    1.3499    0.6672 H       1  UNL1        0.0512
     34 H          -1.6125    1.3152   -1.1073 H       1  UNL1        0.0512
     35 H          -3.4390    0.2088   -2.4495 H       1  UNL1        0.0636
     36 H          -5.8385   -0.0309   -2.4951 H       1  UNL1        0.0829
     37 H          -6.2901    0.6331    1.6546 H       1  UNL1        0.0829
     38 H          -3.9004    0.8709    1.6931 H       1  UNL1        0.0636
     39 H           0.4979    0.9242    0.0718 H       1  UNL1        0.0721
@<TRIPOS>UNITY_ATOM_ATTR
11 1
charge 1
@<TRIPOS>BOND
     1     1     2    1
     2     2     3   ar
     3     3     4   ar
     4     4     5   ar
     5     5     6   ar
     6     6     7   ar
     7     6     8    1
     8     8     9   ar
     9     9    10   ar
    10    10    11   ar
    11    11    12   ar
    12    12    13   ar
    13    13    14   ar
    14    11    15   ar
    15    15    16    1
    16    16    17    1
    17    17    18    1
    18    18    19   ar
    19    19    20   ar
    20    20    21   ar
    21    21    22   ar
    22    22    23   ar
    23    15    24   ar
    24     7     2   ar
    25    24     8   ar
    26    14    10   ar
    27    23    18   ar
    28     3    25    1
    29     4    26    1
    30     5    27    1
    31     7    28    1
    32    12    29    1
    33    13    30    1
    34    14    31    1
    35    16    32    1
    36    17    33    1
    37    17    34    1
    38    19    35    1
    39    20    36    1
    40    22    37    1
    41    23    38    1
    42    24    39    1
