
     RDKit          3D

 24 25  0  0  0  0  0  0  0  0999 V2000
   -2.2105    2.4894    0.6781 O   0  0  0  0  0  0  0  0  0  0  0  0
   -2.2695    1.1326    0.4392 C   0  0  0  0  0  0  0  0  0  0  0  0
   -3.4866    0.4891    0.4998 C   0  0  0  0  0  0  0  0  0  0  0  0
   -3.5613   -0.8755    0.2618 C   0  0  0  0  0  0  0  0  0  0  0  0
   -5.1118   -1.6938    0.3396 Cl  0  0  0  0  0  0  0  0  0  0  0  0
   -2.3944   -1.5444   -0.0312 C   0  0  0  0  0  0  0  0  0  0  0  0
   -1.1516   -0.9029   -0.0962 C   0  0  0  0  0  0  0  0  0  0  0  0
   -1.0829    0.4544    0.1419 C   0  0  0  0  0  0  0  0  0  0  0  0
    0.0793    1.2004    0.1107 O   0  0  0  0  0  0  0  0  0  0  0  0
    1.3109    0.6238   -0.1123 C   0  0  0  0  0  0  0  0  0  0  0  0
    2.0253    0.9701   -1.2385 C   0  0  0  0  0  0  0  0  0  0  0  0
    3.2529    0.4401   -1.5237 C   0  0  0  0  0  0  0  0  0  0  0  0
    3.7939   -0.4763   -0.6479 C   0  0  0  0  0  0  0  0  0  0  0  0
    5.3540   -1.1751   -0.9746 Cl  0  0  0  0  0  0  0  0  0  0  0  0
    3.0967   -0.8490    0.5030 C   0  0  0  0  0  0  0  0  0  0  0  0
    1.8436   -0.2880    0.7658 C   0  0  0  0  0  0  0  0  0  0  0  0
    0.9584   -0.7101    2.2139 Cl  0  0  0  0  0  0  0  0  0  0  0  0
   -2.2928    2.8932    1.6198 H   0  0  0  0  0  0  0  0  0  0  0  0
   -4.3868    1.0514    0.7340 H   0  0  0  0  0  0  0  0  0  0  0  0
   -2.4152   -2.6069   -0.2221 H   0  0  0  0  0  0  0  0  0  0  0  0
   -0.2530   -1.4589   -0.3424 H   0  0  0  0  0  0  0  0  0  0  0  0
    1.5879    1.6857   -1.9095 H   0  0  0  0  0  0  0  0  0  0  0  0
    3.8090    0.7133   -2.4058 H   0  0  0  0  0  0  0  0  0  0  0  0
    3.5044   -1.5625    1.1966 H   0  0  0  0  0  0  0  0  0  0  0  0
  1  2  1  0
  2  3  2  0
  3  4  1  0
  4  5  1  0
  4  6  2  0
  6  7  1  0
  7  8  2  0
  8  9  1  0
  9 10  1  0
 10 11  2  0
 11 12  1  0
 12 13  2  0
 13 14  1  0
 13 15  1  0
 15 16  2  0
 16 17  1  0
  8  2  1  0
 16 10  1  0
  1 18  1  0
  3 19  1  0
  6 20  1  0
  7 21  1  0
 11 22  1  0
 12 23  1  0
 15 24  1  0
M  END
$$$$
