@<TRIPOS>MOLECULE
*****
 24 25 0 0 0
SMALL
GASTEIGER

@<TRIPOS>ATOM
      1 O          -2.2105    2.4894    0.6781 O.3     1  UNL1       -0.5032
      2 C          -2.2695    1.1326    0.4392 C.ar    1  UNL1        0.1605
      3 C          -3.4866    0.4891    0.4998 C.ar    1  UNL1        0.0018
      4 C          -3.5613   -0.8755    0.2618 C.ar    1  UNL1        0.0447
      5 CL         -5.1118   -1.6938    0.3396 Cl      1  UNL1       -0.0834
      6 C          -2.3944   -1.5444   -0.0312 C.ar    1  UNL1       -0.0397
      7 C          -1.1516   -0.9029   -0.0962 C.ar    1  UNL1       -0.0143
      8 C          -1.0829    0.4544    0.1419 C.ar    1  UNL1        0.1697
      9 O           0.0793    1.2004    0.1107 O.3     1  UNL1       -0.4509
     10 C           1.3109    0.6238   -0.1123 C.ar    1  UNL1        0.1469
     11 C           2.0253    0.9701   -1.2385 C.ar    1  UNL1       -0.0165
     12 C           3.2529    0.4401   -1.5237 C.ar    1  UNL1       -0.0398
     13 C           3.7939   -0.4763   -0.6479 C.ar    1  UNL1        0.0426
     14 CL          5.3540   -1.1751   -0.9746 Cl      1  UNL1       -0.0835
     15 C           3.0967   -0.8490    0.5030 C.ar    1  UNL1       -0.0215
     16 C           1.8436   -0.2880    0.7658 C.ar    1  UNL1        0.0845
     17 CL          0.9584   -0.7101    2.2139 Cl      1  UNL1       -0.0797
     18 H          -2.2928    2.8932    1.6198 H       1  UNL1        0.2923
     19 H          -4.3868    1.0514    0.7340 H       1  UNL1        0.0670
     20 H          -2.4152   -2.6069   -0.2221 H       1  UNL1        0.0633
     21 H          -0.2530   -1.4589   -0.3424 H       1  UNL1        0.0656
     22 H           1.5879    1.6857   -1.9095 H       1  UNL1        0.0655
     23 H           3.8090    0.7133   -2.4058 H       1  UNL1        0.0633
     24 H           3.5044   -1.5625    1.1966 H       1  UNL1        0.0648
@<TRIPOS>BOND
     1     1     2    1
     2     2     3   ar
     3     3     4   ar
     4     4     5    1
     5     4     6   ar
     6     6     7   ar
     7     7     8   ar
     8     8     9    1
     9     9    10    1
    10    10    11   ar
    11    11    12   ar
    12    12    13   ar
    13    13    14    1
    14    13    15   ar
    15    15    16   ar
    16    16    17    1
    17     8     2   ar
    18    16    10   ar
    19     1    18    1
    20     3    19    1
    21     6    20    1
    22     7    21    1
    23    11    22    1
    24    12    23    1
    25    15    24    1
