@<TRIPOS>MOLECULE
*****
 55 58 0 0 0
SMALL
GASTEIGER

@<TRIPOS>ATOM
      1 C           8.4289    0.7587   -0.8438 C.3     1  UNL1        0.0789
      2 O           7.1505    1.2873   -1.1058 O.3     1  UNL1       -0.4935
      3 C           5.9900    0.5349   -0.9538 C.ar    1  UNL1        0.1402
      4 C           4.7414    1.0498   -1.2092 C.ar    1  UNL1        0.0701
      5 N           3.6032    0.3470   -1.0712 N.ar    1  UNL1       -0.2463
      6 C           3.6503   -0.9242   -0.6654 C.ar    1  UNL1        0.1293
      7 C           2.4876   -1.6497   -0.5215 C.ar    1  UNL1        0.1523
      8 N           1.2576   -1.0315   -0.8101 N.pl3   1  UNL1       -0.2976
      9 C           0.5522   -0.3494    0.1954 C.ar    1  UNL1        0.0330
     10 C           1.0614   -0.2660    1.4726 C.ar    1  UNL1       -0.0378
     11 C           0.3830    0.3974    2.4656 C.ar    1  UNL1       -0.0243
     12 C          -0.8436    1.0122    2.2267 C.ar    1  UNL1        0.1311
     13 F          -1.4284    1.6567    3.2830 F       1  UNL1       -0.2050
     14 C          -1.3658    0.9419    0.9716 C.ar    1  UNL1        0.0420
     15 C          -2.6845    1.5828    0.6969 C.3     1  UNL1        0.1959
     16 C          -2.5728    3.0567    1.0097 C.3     1  UNL1       -0.0112
     17 C          -3.7435    1.0157    1.6250 C.3     1  UNL1        0.1183
     18 S          -4.1776   -0.6031    1.0321 S.O2    1  UNL1       -0.0101
     19 O          -3.0669   -1.5890    1.3087 O.2     1  UNL1       -0.1731
     20 O          -5.3937   -1.0346    1.8148 O.2     1  UNL1       -0.1731
     21 C          -4.5096   -0.4769   -0.6907 C.3     1  UNL1        0.1831
     22 C          -4.0312   -1.7582   -1.3776 C.3     1  UNL1       -0.0288
     23 C          -6.0095   -0.3254   -0.8436 C.3     1  UNL1       -0.0288
     24 C          -3.8075    0.6711   -1.2949 C.2     1  UNL1        0.3067
     25 N          -4.0052    0.8517   -2.7367 N.pl3   1  UNL1       -0.2488
     26 N          -3.0918    1.4451   -0.6438 N.2     1  UNL1       -0.0727
     27 C          -0.6651    0.2696   -0.0102 C.ar    1  UNL1       -0.0301
     28 N           2.5989   -2.9240   -0.1097 N.ar    1  UNL1       -0.2184
     29 C           3.8198   -3.4738    0.1547 C.ar    1  UNL1        0.1188
     30 N           4.9455   -2.7740    0.0162 N.ar    1  UNL1       -0.2336
     31 C           4.8955   -1.4775   -0.3981 C.ar    1  UNL1        0.0977
     32 C           6.0633   -0.7712   -0.5351 C.ar    1  UNL1        0.0092
     33 H           8.7579    0.0395   -1.6456 H       1  UNL1        0.0660
     34 H           8.4439    0.1977    0.1260 H       1  UNL1        0.0660
     35 H           9.1622    1.5794   -0.7184 H       1  UNL1        0.0660
     36 H           4.7047    2.0969   -1.5432 H       1  UNL1        0.0867
     37 H           0.8714   -1.0798   -1.7667 H       1  UNL1        0.1536
     38 H           2.0240   -0.7257    1.7353 H       1  UNL1        0.0637
     39 H           0.8053    0.4471    3.4558 H       1  UNL1        0.0647
     40 H          -3.2111    3.3632    1.8708 H       1  UNL1        0.0279
     41 H          -2.8858    3.6923    0.1450 H       1  UNL1        0.0279
     42 H          -1.4968    3.3481    1.1887 H       1  UNL1        0.0279
     43 H          -3.4378    0.9101    2.6559 H       1  UNL1        0.0550
     44 H          -4.6635    1.6228    1.5960 H       1  UNL1        0.0550
     45 H          -4.8432   -2.5141   -1.4270 H       1  UNL1        0.0256
     46 H          -3.1613   -2.1167   -0.7570 H       1  UNL1        0.0256
     47 H          -3.7088   -1.4955   -2.4004 H       1  UNL1        0.0256
     48 H          -6.3340   -0.1431   -1.8683 H       1  UNL1        0.0256
     49 H          -6.3573    0.3869   -0.0927 H       1  UNL1        0.0256
     50 H          -6.4369   -1.3305   -0.5547 H       1  UNL1        0.0256
     51 H          -3.2392    0.9032   -3.4059 H       1  UNL1        0.2881
     52 H          -4.9854    0.9261   -3.0506 H       1  UNL1        0.2881
     53 H          -1.0767    0.2080   -1.0187 H       1  UNL1        0.0641
     54 H           3.8389   -4.4981    0.4805 H       1  UNL1        0.1048
     55 H           6.9970   -1.2676   -0.3088 H       1  UNL1        0.0677
@<TRIPOS>BOND
     1     1     2    1
     2     2     3    1
     3     3     4   ar
     4     4     5   ar
     5     5     6   ar
     6     6     7   ar
     7     7     8    1
     8     8     9    1
     9     9    10   ar
    10    10    11   ar
    11    11    12   ar
    12    12    13    1
    13    12    14   ar
    14    14    15    1
    15    15    16    1
    16    15    17    1
    17    17    18    1
    18    18    19    2
    19    18    20    2
    20    18    21    1
    21    21    22    1
    22    21    23    1
    23    21    24    1
    24    24    25    1
    25    24    26    2
    26    14    27   ar
    27     7    28   ar
    28    28    29   ar
    29    29    30   ar
    30    30    31   ar
    31    31    32   ar
    32    32     3   ar
    33    31     6   ar
    34    27     9   ar
    35    26    15    1
    36     1    33    1
    37     1    34    1
    38     1    35    1
    39     4    36    1
    40     8    37    1
    41    10    38    1
    42    11    39    1
    43    16    40    1
    44    16    41    1
    45    16    42    1
    46    17    43    1
    47    17    44    1
    48    22    45    1
    49    22    46    1
    50    22    47    1
    51    23    48    1
    52    23    49    1
    53    23    50    1
    54    25    51    1
    55    25    52    1
    56    27    53    1
    57    29    54    1
    58    32    55    1
