
     RDKit          3D

 55 58  0  0  0  0  0  0  0  0999 V2000
    8.4289    0.7587   -0.8438 C   0  0  0  0  0  0  0  0  0  0  0  0
    7.1505    1.2873   -1.1058 O   0  0  0  0  0  0  0  0  0  0  0  0
    5.9900    0.5349   -0.9538 C   0  0  0  0  0  0  0  0  0  0  0  0
    4.7414    1.0498   -1.2092 C   0  0  0  0  0  0  0  0  0  0  0  0
    3.6032    0.3470   -1.0712 N   0  0  0  0  0  0  0  0  0  0  0  0
    3.6503   -0.9242   -0.6654 C   0  0  0  0  0  0  0  0  0  0  0  0
    2.4876   -1.6497   -0.5215 C   0  0  0  0  0  0  0  0  0  0  0  0
    1.2576   -1.0315   -0.8101 N   0  0  0  0  0  0  0  0  0  0  0  0
    0.5522   -0.3494    0.1954 C   0  0  0  0  0  0  0  0  0  0  0  0
    1.0614   -0.2660    1.4726 C   0  0  0  0  0  0  0  0  0  0  0  0
    0.3830    0.3974    2.4656 C   0  0  0  0  0  0  0  0  0  0  0  0
   -0.8436    1.0122    2.2267 C   0  0  0  0  0  0  0  0  0  0  0  0
   -1.4284    1.6567    3.2830 F   0  0  0  0  0  0  0  0  0  0  0  0
   -1.3658    0.9419    0.9716 C   0  0  0  0  0  0  0  0  0  0  0  0
   -2.6845    1.5828    0.6969 C   0  0  2  0  0  0  0  0  0  0  0  0
   -2.5728    3.0567    1.0097 C   0  0  0  0  0  0  0  0  0  0  0  0
   -3.7435    1.0157    1.6250 C   0  0  0  0  0  0  0  0  0  0  0  0
   -4.1776   -0.6031    1.0321 S   0  0  0  0  0  6  0  0  0  0  0  0
   -3.0669   -1.5890    1.3087 O   0  0  0  0  0  0  0  0  0  0  0  0
   -5.3937   -1.0346    1.8148 O   0  0  0  0  0  0  0  0  0  0  0  0
   -4.5096   -0.4769   -0.6907 C   0  0  0  0  0  0  0  0  0  0  0  0
   -4.0312   -1.7582   -1.3776 C   0  0  0  0  0  0  0  0  0  0  0  0
   -6.0095   -0.3254   -0.8436 C   0  0  0  0  0  0  0  0  0  0  0  0
   -3.8075    0.6711   -1.2949 C   0  0  0  0  0  0  0  0  0  0  0  0
   -4.0052    0.8517   -2.7367 N   0  0  0  0  0  0  0  0  0  0  0  0
   -3.0918    1.4451   -0.6438 N   0  0  0  0  0  0  0  0  0  0  0  0
   -0.6651    0.2696   -0.0102 C   0  0  0  0  0  0  0  0  0  0  0  0
    2.5989   -2.9240   -0.1097 N   0  0  0  0  0  0  0  0  0  0  0  0
    3.8198   -3.4738    0.1547 C   0  0  0  0  0  0  0  0  0  0  0  0
    4.9455   -2.7740    0.0162 N   0  0  0  0  0  0  0  0  0  0  0  0
    4.8955   -1.4775   -0.3981 C   0  0  0  0  0  0  0  0  0  0  0  0
    6.0633   -0.7712   -0.5351 C   0  0  0  0  0  0  0  0  0  0  0  0
    8.7579    0.0395   -1.6456 H   0  0  0  0  0  0  0  0  0  0  0  0
    8.4439    0.1977    0.1260 H   0  0  0  0  0  0  0  0  0  0  0  0
    9.1622    1.5794   -0.7184 H   0  0  0  0  0  0  0  0  0  0  0  0
    4.7047    2.0969   -1.5432 H   0  0  0  0  0  0  0  0  0  0  0  0
    0.8714   -1.0798   -1.7667 H   0  0  0  0  0  0  0  0  0  0  0  0
    2.0240   -0.7257    1.7353 H   0  0  0  0  0  0  0  0  0  0  0  0
    0.8053    0.4471    3.4558 H   0  0  0  0  0  0  0  0  0  0  0  0
   -3.2111    3.3632    1.8708 H   0  0  0  0  0  0  0  0  0  0  0  0
   -2.8858    3.6923    0.1450 H   0  0  0  0  0  0  0  0  0  0  0  0
   -1.4968    3.3481    1.1887 H   0  0  0  0  0  0  0  0  0  0  0  0
   -3.4378    0.9101    2.6559 H   0  0  0  0  0  0  0  0  0  0  0  0
   -4.6635    1.6228    1.5960 H   0  0  0  0  0  0  0  0  0  0  0  0
   -4.8432   -2.5141   -1.4270 H   0  0  0  0  0  0  0  0  0  0  0  0
   -3.1613   -2.1167   -0.7570 H   0  0  0  0  0  0  0  0  0  0  0  0
   -3.7088   -1.4955   -2.4004 H   0  0  0  0  0  0  0  0  0  0  0  0
   -6.3340   -0.1431   -1.8683 H   0  0  0  0  0  0  0  0  0  0  0  0
   -6.3573    0.3869   -0.0927 H   0  0  0  0  0  0  0  0  0  0  0  0
   -6.4369   -1.3305   -0.5547 H   0  0  0  0  0  0  0  0  0  0  0  0
   -3.2392    0.9032   -3.4059 H   0  0  0  0  0  0  0  0  0  0  0  0
   -4.9854    0.9261   -3.0506 H   0  0  0  0  0  0  0  0  0  0  0  0
   -1.0767    0.2080   -1.0187 H   0  0  0  0  0  0  0  0  0  0  0  0
    3.8389   -4.4981    0.4805 H   0  0  0  0  0  0  0  0  0  0  0  0
    6.9970   -1.2676   -0.3088 H   0  0  0  0  0  0  0  0  0  0  0  0
  1  2  1  0
  2  3  1  0
  3  4  2  0
  4  5  1  0
  5  6  2  0
  6  7  1  0
  7  8  1  0
  8  9  1  0
  9 10  2  0
 10 11  1  0
 11 12  2  0
 12 13  1  0
 12 14  1  0
 14 15  1  0
 15 16  1  1
 15 17  1  0
 17 18  1  0
 18 19  2  0
 18 20  2  0
 18 21  1  0
 21 22  1  0
 21 23  1  0
 21 24  1  0
 24 25  1  0
 24 26  2  0
 14 27  2  0
  7 28  2  0
 28 29  1  0
 29 30  2  0
 30 31  1  0
 31 32  2  0
 32  3  1  0
 31  6  1  0
 27  9  1  0
 26 15  1  0
  1 33  1  0
  1 34  1  0
  1 35  1  0
  4 36  1  0
  8 37  1  0
 10 38  1  0
 11 39  1  0
 16 40  1  0
 16 41  1  0
 16 42  1  0
 17 43  1  0
 17 44  1  0
 22 45  1  0
 22 46  1  0
 22 47  1  0
 23 48  1  0
 23 49  1  0
 23 50  1  0
 25 51  1  0
 25 52  1  0
 27 53  1  0
 29 54  1  0
 32 55  1  0
M  END
$$$$
