@<TRIPOS>MOLECULE
*****
 72 77 0 0 0
SMALL
GASTEIGER

@<TRIPOS>ATOM
      1 C          -6.8944    3.2841    0.1808 C.3     1  UNL1       -0.0151
      2 N          -6.2449    3.3315   -1.1176 N.3     1  UNL1       -0.3089
      3 C          -4.9374    3.9728   -1.1007 C.3     1  UNL1        0.0820
      4 C          -4.9080    5.2034   -0.2888 C.3     1  UNL1       -0.0411
      5 C          -3.9670    2.9252   -0.8382 C.2     1  UNL1        0.2350
      6 O          -2.6710    3.6876   -1.0184 O.2     1  UNL1       -0.2737
      7 N          -3.6645    1.7320   -0.5477 N.am    1  UNL1       -0.2691
      8 C          -2.7663    0.6722   -0.2773 C.ar    1  UNL1        0.1263
      9 C          -3.3901   -0.5272    0.1830 C.ar    1  UNL1       -0.0208
     10 C          -2.5881   -1.6077    0.5212 C.ar    1  UNL1       -0.0466
     11 C          -1.2293   -1.5359    0.4366 C.ar    1  UNL1        0.0349
     12 C          -0.3842   -2.6261    0.8445 C.ar    1  UNL1        0.0838
     13 C          -0.3827   -3.9081    0.2498 C.ar    1  UNL1        0.1028
     14 C          -1.4215   -4.3920   -0.6631 C.ar    1  UNL1        0.0639
     15 C          -2.5349   -5.0538   -0.1444 C.ar    1  UNL1       -0.0460
     16 C          -3.5016   -5.5255   -0.9983 C.ar    1  UNL1       -0.0427
     17 C          -3.3987   -5.3638   -2.4142 C.ar    1  UNL1        0.0314
     18 N          -2.2735   -4.7067   -2.8235 N.ar    1  UNL1       -0.2208
     19 C          -1.3435   -4.2509   -2.0091 C.ar    1  UNL1        0.2239
     20 O          -0.2116   -3.5873   -2.4808 O.3     1  UNL1       -0.4792
     21 C           0.0759   -3.3557   -3.8505 C.3     1  UNL1        0.0804
     22 N           0.6392   -4.5392    0.8343 N.ar    1  UNL1       -0.2270
     23 C           1.2261   -3.7013    1.7571 C.ar    1  UNL1        0.1401
     24 C           2.2396   -3.8703    2.6559 C.ar    1  UNL1       -0.0004
     25 C           2.6240   -2.8778    3.5763 C.ar    1  UNL1        0.0458
     26 CL          3.8926   -3.1832    4.7306 Cl      1  UNL1       -0.0834
     27 C           1.9207   -1.6987    3.5241 C.ar    1  UNL1       -0.0267
     28 C           0.9061   -1.5548    2.6107 C.ar    1  UNL1        0.0132
     29 N           0.5794   -2.5396    1.7564 N.ar    1  UNL1       -0.2985
     30 C          -0.5977   -0.4288    0.0186 C.ar    1  UNL1        0.1250
     31 C           0.7196    0.0541    0.1730 C.1     1  UNL1       -0.0404
     32 C           1.8542    0.4897    0.2959 C.1     1  UNL1       -0.0595
     33 C           3.2228    1.0290    0.4219 C.ar    1  UNL1        0.0259
     34 C           4.3189    0.2521    0.0548 C.ar    1  UNL1       -0.0457
     35 C           5.5766    0.8528   -0.0326 C.ar    1  UNL1       -0.0512
     36 C           5.7585    2.2139    0.2440 C.ar    1  UNL1        0.0032
     37 C           6.9675    2.7902    0.0721 C.ar    1  UNL1        0.0459
     38 C           8.1949    2.1174   -0.3869 C.3     1  UNL1       -0.0218
     39 N           7.0700    4.2056    0.2671 N.ar    1  UNL1       -0.2595
     40 C           5.9799    4.8746    0.6279 C.ar    1  UNL1        0.0285
     41 C           4.7875    4.2428    0.8036 C.ar    1  UNL1       -0.0358
     42 C           4.6285    2.9023    0.6127 C.ar    1  UNL1       -0.0136
     43 C           3.3891    2.3252    0.7024 C.ar    1  UNL1       -0.0385
     44 N          -1.4969    0.6165   -0.3244 N.ar    1  UNL1       -0.2229
     45 H          -6.9323    2.1930    0.4988 H       1  UNL1        0.0388
     46 H          -6.2896    3.7553    0.9450 H       1  UNL1        0.0388
     47 H          -7.9229    3.6383    0.0385 H       1  UNL1        0.0388
     48 H          -6.1597    2.3477   -1.4980 H       1  UNL1        0.1223
     49 H          -4.7468    4.3056   -2.1878 H       1  UNL1        0.0554
     50 H          -4.2917    5.9864   -0.8486 H       1  UNL1        0.0249
     51 H          -5.9336    5.6889   -0.3064 H       1  UNL1        0.0249
     52 H          -4.4893    5.1681    0.7093 H       1  UNL1        0.0249
     53 H          -4.8130    1.1998   -0.5327 H       1  UNL1        0.1563
     54 H          -4.4470   -0.5543    0.3143 H       1  UNL1        0.0652
     55 H          -3.1288   -2.4635    0.8883 H       1  UNL1        0.0626
     56 H          -2.6539   -5.2058    0.9071 H       1  UNL1        0.0626
     57 H          -4.3825   -6.0443   -0.6712 H       1  UNL1        0.0633
     58 H          -4.1542   -5.7836   -3.0249 H       1  UNL1        0.0831
     59 H           1.1792   -3.0344   -3.8293 H       1  UNL1        0.0660
     60 H          -0.1006   -4.2640   -4.4525 H       1  UNL1        0.0660
     61 H          -0.5782   -2.5839   -4.2412 H       1  UNL1        0.0660
     62 H           2.7691   -4.8140    2.6386 H       1  UNL1        0.0669
     63 H           2.1850   -0.9266    4.2269 H       1  UNL1        0.0647
     64 H           0.3502   -0.6491    2.6472 H       1  UNL1        0.0814
     65 H           4.1982   -0.7994   -0.0818 H       1  UNL1        0.0630
     66 H           6.4674    0.2515   -0.2941 H       1  UNL1        0.0625
     67 H           7.9892    1.4733   -1.2750 H       1  UNL1        0.0293
     68 H           8.8866    2.9093   -0.8273 H       1  UNL1        0.0293
     69 H           8.7709    1.6170    0.4136 H       1  UNL1        0.0293
     70 H           6.0258    5.9488    0.7967 H       1  UNL1        0.0830
     71 H           3.9154    4.7995    1.1272 H       1  UNL1        0.0639
     72 H           2.5235    2.9000    1.0806 H       1  UNL1        0.0636
@<TRIPOS>BOND
     1     1     2    1
     2     2     3    1
     3     3     4    1
     4     3     5    1
     5     5     6    2
     6     5     7   am
     7     7     8    1
     8     8     9   ar
     9     9    10   ar
    10    10    11   ar
    11    11    12    1
    12    12    13   ar
    13    13    14    1
    14    14    15   ar
    15    15    16   ar
    16    16    17   ar
    17    17    18   ar
    18    18    19   ar
    19    19    20    1
    20    20    21    1
    21    13    22   ar
    22    22    23   ar
    23    23    24   ar
    24    24    25   ar
    25    25    26    1
    26    25    27   ar
    27    27    28   ar
    28    28    29   ar
    29    11    30   ar
    30    30    31    1
    31    31    32    3
    32    32    33    1
    33    33    34   ar
    34    34    35   ar
    35    35    36   ar
    36    36    37   ar
    37    37    38    1
    38    37    39   ar
    39    39    40   ar
    40    40    41   ar
    41    41    42   ar
    42    42    43   ar
    43    30    44   ar
    44    44     8   ar
    45    29    12   ar
    46    43    33   ar
    47    19    14   ar
    48    29    23   ar
    49    42    36   ar
    50     1    45    1
    51     1    46    1
    52     1    47    1
    53     2    48    1
    54     3    49    1
    55     4    50    1
    56     4    51    1
    57     4    52    1
    58     7    53    1
    59     9    54    1
    60    10    55    1
    61    15    56    1
    62    16    57    1
    63    17    58    1
    64    21    59    1
    65    21    60    1
    66    21    61    1
    67    24    62    1
    68    27    63    1
    69    28    64    1
    70    34    65    1
    71    35    66    1
    72    38    67    1
    73    38    68    1
    74    38    69    1
    75    40    70    1
    76    41    71    1
    77    43    72    1
