@<TRIPOS>MOLECULE
*****
 45 47 0 0 0
SMALL
GASTEIGER

@<TRIPOS>ATOM
      1 C          -5.5213   -0.7390    1.3799 C.3     1  UNL1       -0.0629
      2 C          -4.4407   -1.4512    0.6119 C.3     1  UNL1       -0.0261
      3 C          -3.7723   -0.4946   -0.3882 C.3     1  UNL1        0.1081
      4 C          -4.8783   -0.0170   -1.3346 C.3     1  UNL1       -0.0351
      5 N          -3.2476    0.5858    0.3759 N.am    1  UNL1       -0.2976
      6 C          -1.9351    0.9992    0.7172 C.2     1  UNL1        0.2467
      7 O          -1.8070    1.6045    1.8196 O.2     1  UNL1       -0.2701
      8 C          -0.7420    0.7957   -0.0686 C.ar    1  UNL1        0.0597
      9 C           0.2856    1.6291    0.3534 C.ar    1  UNL1       -0.0212
     10 C           1.5098    1.5778   -0.2808 C.ar    1  UNL1        0.1093
     11 S           2.8444    2.6235    0.2270 S.O2    1  UNL1        0.0724
     12 O           3.6582    2.9518   -0.9904 O.2     1  UNL1       -0.1500
     13 O           2.2503    3.8566    0.8239 O.2     1  UNL1       -0.1500
     14 N           3.7400    1.8006    1.4289 N.pl3   1  UNL1       -0.2163
     15 C           4.4053    0.5724    1.2102 C.ar    1  UNL1        0.0481
     16 C           5.1641    0.3547    0.0883 C.ar    1  UNL1       -0.0379
     17 C           5.8005   -0.8612   -0.0902 C.ar    1  UNL1       -0.0416
     18 C           5.7019   -1.8789    0.8274 C.ar    1  UNL1        0.0411
     19 CL          6.5089   -3.4051    0.5900 Cl      1  UNL1       -0.0835
     20 C           4.9395   -1.6540    1.9499 C.ar    1  UNL1       -0.0416
     21 C           4.2907   -0.4287    2.1425 C.ar    1  UNL1       -0.0379
     22 C           1.6608    0.6836   -1.3259 C.ar    1  UNL1       -0.0333
     23 C           0.6472   -0.1488   -1.7533 C.ar    1  UNL1       -0.0379
     24 C          -0.5671   -0.0906   -1.1163 C.ar    1  UNL1        0.0457
     25 N          -1.5275   -0.9963   -1.6486 N.am    1  UNL1       -0.2831
     26 C          -2.8255   -1.2842   -1.1559 C.2     1  UNL1        0.2404
     27 O          -3.2232   -2.4531   -1.4465 O.2     1  UNL1       -0.2731
     28 H          -6.0660   -0.0188    0.7385 H       1  UNL1        0.0231
     29 H          -6.2573   -1.4719    1.7776 H       1  UNL1        0.0231
     30 H          -5.1056   -0.2166    2.2895 H       1  UNL1        0.0231
     31 H          -3.6535   -1.8047    1.3104 H       1  UNL1        0.0288
     32 H          -4.8408   -2.3305    0.0794 H       1  UNL1        0.0288
     33 H          -5.7653   -0.6492   -1.2514 H       1  UNL1        0.0255
     34 H          -4.5013   -0.0734   -2.3754 H       1  UNL1        0.0255
     35 H          -5.0930    1.0612   -1.1505 H       1  UNL1        0.0255
     36 H          -4.0248    1.2021    0.7645 H       1  UNL1        0.1500
     37 H           0.1220    2.3127    1.1754 H       1  UNL1        0.0645
     38 H           3.8247    2.2000    2.4022 H       1  UNL1        0.1737
     39 H           5.2890    1.1204   -0.6878 H       1  UNL1        0.0637
     40 H           6.3941   -1.0134   -0.9812 H       1  UNL1        0.0633
     41 H           4.8454   -2.4286    2.6802 H       1  UNL1        0.0633
     42 H           3.7017   -0.3235    3.0602 H       1  UNL1        0.0637
     43 H           2.6352    0.6359   -1.8381 H       1  UNL1        0.0638
     44 H           0.7719   -0.8446   -2.5699 H       1  UNL1        0.0637
     45 H          -1.1960   -1.4897   -2.5085 H       1  UNL1        0.1549
@<TRIPOS>BOND
     1     1     2    1
     2     2     3    1
     3     3     4    1
     4     3     5    1
     5     5     6   am
     6     6     7    2
     7     6     8    1
     8     8     9   ar
     9     9    10   ar
    10    10    11    1
    11    11    12    2
    12    11    13    2
    13    11    14    1
    14    14    15    1
    15    15    16   ar
    16    16    17   ar
    17    17    18   ar
    18    18    19    1
    19    18    20   ar
    20    20    21   ar
    21    10    22   ar
    22    22    23   ar
    23    23    24   ar
    24    24    25    1
    25    25    26   am
    26    26    27    2
    27    26     3    1
    28    24     8   ar
    29    21    15   ar
    30     1    28    1
    31     1    29    1
    32     1    30    1
    33     2    31    1
    34     2    32    1
    35     4    33    1
    36     4    34    1
    37     4    35    1
    38     5    36    1
    39     9    37    1
    40    14    38    1
    41    16    39    1
    42    17    40    1
    43    20    41    1
    44    21    42    1
    45    22    43    1
    46    23    44    1
    47    25    45    1
