@<TRIPOS>MOLECULE
*****
 45 48 0 0 0
SMALL
GASTEIGER

@<TRIPOS>ATOM
      1 C           5.8315    0.5150    2.4884 C.3     1  UNL1       -0.0193
      2 C           4.6483   -0.0778    1.8068 C.ar    1  UNL1        0.0765
      3 C           4.0464   -1.3029    2.0448 C.ar    1  UNL1        0.1151
      4 O           3.0252   -1.4238    1.2090 O.2     1  UNL1       -0.4450
      5 C           2.9338   -0.3681    0.4588 C.ar    1  UNL1        0.2245
      6 C           1.9122   -0.1567   -0.5878 C.3     1  UNL1        0.1347
      7 C           0.8429   -1.2250   -0.5553 C.3     1  UNL1       -0.0114
      8 C          -0.3745   -0.5654   -1.2405 C.3     1  UNL1        0.0055
      9 C          -1.3035   -1.6022   -1.7601 C.3     1  UNL1        0.0151
     10 C          -0.7612   -3.0167   -1.4839 C.3     1  UNL1       -0.0526
     11 S          -2.8913   -1.5406   -0.8329 S.3     1  UNL1       -0.0876
     12 C          -2.3531   -1.1701    0.8270 C.2     1  UNL1        0.1478
     13 N          -2.9274   -1.8589    1.9067 N.pl3   1  UNL1       -0.3380
     14 N          -1.4597   -0.2834    0.9430 N.2     1  UNL1       -0.2495
     15 C          -0.9169    0.3839   -0.2132 C.3     1  UNL1        0.1188
     16 C          -1.9340    1.3271   -0.6780 C.ar    1  UNL1        0.0178
     17 C          -2.4798    1.3667   -1.9322 C.ar    1  UNL1       -0.0507
     18 C          -3.4031    2.3373   -2.2242 C.ar    1  UNL1       -0.0259
     19 C          -3.8026    3.2828   -1.2885 C.ar    1  UNL1        0.1261
     20 F          -4.7143    4.2420   -1.5762 F       1  UNL1       -0.2054
     21 C          -3.2569    3.2426   -0.0367 C.ar    1  UNL1        0.0091
     22 C          -2.3233    2.2768    0.2922 C.ar    1  UNL1        0.1317
     23 F          -1.8263    2.2732    1.5500 F       1  UNL1       -0.2050
     24 C           0.2635    1.2260    0.3043 C.3     1  UNL1        0.0783
     25 O           1.3567    1.0965   -0.5570 O.3     1  UNL1       -0.3645
     26 N           3.9062    0.4685    0.7978 N.ar    1  UNL1       -0.2164
     27 H           5.6759    0.6128    3.5772 H       1  UNL1        0.0293
     28 H           5.9618    1.5379    2.0791 H       1  UNL1        0.0293
     29 H           6.7286   -0.0901    2.2395 H       1  UNL1        0.0293
     30 H           4.3933   -1.9896    2.7895 H       1  UNL1        0.1049
     31 H           2.3682   -0.2517   -1.6222 H       1  UNL1        0.0694
     32 H           0.5822   -1.5430    0.4724 H       1  UNL1        0.0299
     33 H           1.1915   -2.1001   -1.1006 H       1  UNL1        0.0299
     34 H           0.0630   -0.0360   -2.1083 H       1  UNL1        0.0340
     35 H          -1.5226   -1.5665   -2.8211 H       1  UNL1        0.0417
     36 H          -0.0073   -3.3182   -2.2117 H       1  UNL1        0.0240
     37 H          -1.6318   -3.7015   -1.6078 H       1  UNL1        0.0240
     38 H          -0.4424   -3.1178   -0.4299 H       1  UNL1        0.0240
     39 H          -3.8534   -1.5692    2.2693 H       1  UNL1        0.1442
     40 H          -2.4423   -2.6585    2.3542 H       1  UNL1        0.1442
     41 H          -2.1852    0.6655   -2.6688 H       1  UNL1        0.0623
     42 H          -3.8647    2.4098   -3.2046 H       1  UNL1        0.0646
     43 H          -3.5393    3.9679    0.7391 H       1  UNL1        0.0675
     44 H           0.5046    1.0066    1.3514 H       1  UNL1        0.0588
     45 H          -0.0187    2.2951    0.2411 H       1  UNL1        0.0588
@<TRIPOS>BOND
     1     1     2    1
     2     2     3   ar
     3     3     4   ar
     4     4     5   ar
     5     5     6    1
     6     6     7    1
     7     7     8    1
     8     8     9    1
     9     9    10    1
    10     9    11    1
    11    11    12    1
    12    12    13    1
    13    12    14    2
    14    14    15    1
    15    15    16    1
    16    16    17   ar
    17    17    18   ar
    18    18    19   ar
    19    19    20    1
    20    19    21   ar
    21    21    22   ar
    22    22    23    1
    23    15    24    1
    24    24    25    1
    25     5    26   ar
    26    26     2   ar
    27    25     6    1
    28    15     8    1
    29    22    16   ar
    30     1    27    1
    31     1    28    1
    32     1    29    1
    33     3    30    1
    34     6    31    1
    35     7    32    1
    36     7    33    1
    37     8    34    1
    38     9    35    1
    39    10    36    1
    40    10    37    1
    41    10    38    1
    42    13    39    1
    43    13    40    1
    44    17    41    1
    45    18    42    1
    46    21    43    1
    47    24    44    1
    48    24    45    1
