@<TRIPOS>MOLECULE
*****
 44 46 0 0 0
SMALL
GASTEIGER

@<TRIPOS>ATOM
      1 C          -5.8937   -0.1036    0.7711 C.3     1  UNL1       -0.0612
      2 C          -4.7805   -0.2045   -0.2423 C.3     1  UNL1       -0.0294
      3 C          -4.5613    1.1076   -0.9252 C.3     1  UNL1       -0.0480
      4 C          -3.1056    1.4100   -1.1862 C.3     1  UNL1       -0.0383
      5 C          -2.3226    0.1505   -1.5382 C.3     1  UNL1        0.0205
      6 N          -2.4926   -0.7959   -0.5318 N.3     1  UNL1       -0.1763
      7 S          -1.4168   -2.0698   -0.4175 S.O2    1  UNL1        0.0609
      8 O          -1.3385   -2.7954   -1.7429 O.2     1  UNL1       -0.1528
      9 O          -1.7842   -3.1005    0.6090 O.2     1  UNL1       -0.1528
     10 C           0.2080   -1.4362   -0.1129 C.ar    1  UNL1        0.1056
     11 C           1.0267   -1.1323   -1.1712 C.ar    1  UNL1       -0.0336
     12 C           2.2879   -0.6403   -0.9197 C.ar    1  UNL1       -0.0384
     13 C           2.7537   -0.4434    0.3685 C.ar    1  UNL1        0.0364
     14 N           4.0657    0.0660    0.5820 N.am    1  UNL1       -0.2714
     15 C           4.9993    0.3975   -0.5031 C.3     1  UNL1        0.0202
     16 C           6.2533    0.8517    0.1952 C.3     1  UNL1       -0.0285
     17 C           6.1658    0.1970    1.5406 C.3     1  UNL1        0.0259
     18 C           4.6925    0.3349    1.8255 C.2     1  UNL1        0.2198
     19 O           4.1144    0.6164    2.8832 O.2     1  UNL1       -0.2753
     20 C           1.9183   -0.7540    1.4131 C.ar    1  UNL1       -0.0384
     21 C           0.6551   -1.2466    1.1706 C.ar    1  UNL1       -0.0336
     22 C          -3.4734   -0.6307    0.4405 C.3     1  UNL1        0.0231
     23 H          -6.8571   -0.0712    0.2389 H       1  UNL1        0.0233
     24 H          -5.8802   -0.9762    1.4715 H       1  UNL1        0.0233
     25 H          -5.7647    0.8367    1.3338 H       1  UNL1        0.0233
     26 H          -5.0305   -1.0285   -0.9559 H       1  UNL1        0.0311
     27 H          -5.0993    1.1702   -1.9164 H       1  UNL1        0.0269
     28 H          -4.9479    1.9037   -0.2471 H       1  UNL1        0.0269
     29 H          -2.6372    1.9017   -0.3231 H       1  UNL1        0.0278
     30 H          -2.9888    2.1033   -2.0549 H       1  UNL1        0.0278
     31 H          -2.6397   -0.2145   -2.5267 H       1  UNL1        0.0444
     32 H          -1.2505    0.4749   -1.5833 H       1  UNL1        0.0444
     33 H           0.6774   -1.2806   -2.1938 H       1  UNL1        0.0638
     34 H           2.9376   -0.3993   -1.7756 H       1  UNL1        0.0637
     35 H           4.5491    1.2208   -1.0991 H       1  UNL1        0.0469
     36 H           5.1477   -0.5006   -1.1058 H       1  UNL1        0.0469
     37 H           6.2547    1.9572    0.3013 H       1  UNL1        0.0285
     38 H           7.1343    0.4957   -0.3858 H       1  UNL1        0.0285
     39 H           6.7697    0.6800    2.3161 H       1  UNL1        0.0359
     40 H           6.3481   -0.8949    1.4473 H       1  UNL1        0.0359
     41 H           2.2160   -0.6267    2.4371 H       1  UNL1        0.0637
     42 H          -0.0220   -1.4986    1.9979 H       1  UNL1        0.0638
     43 H          -3.6632   -1.5798    0.9790 H       1  UNL1        0.0446
     44 H          -3.2249    0.2008    1.1361 H       1  UNL1        0.0446
@<TRIPOS>BOND
     1     1     2    1
     2     2     3    1
     3     3     4    1
     4     4     5    1
     5     5     6    1
     6     6     7    1
     7     7     8    2
     8     7     9    2
     9     7    10    1
    10    10    11   ar
    11    11    12   ar
    12    12    13   ar
    13    13    14    1
    14    14    15    1
    15    15    16    1
    16    16    17    1
    17    17    18    1
    18    18    19    2
    19    13    20   ar
    20    20    21   ar
    21     6    22    1
    22    22     2    1
    23    21    10   ar
    24    18    14   am
    25     1    23    1
    26     1    24    1
    27     1    25    1
    28     2    26    1
    29     3    27    1
    30     3    28    1
    31     4    29    1
    32     4    30    1
    33     5    31    1
    34     5    32    1
    35    11    33    1
    36    12    34    1
    37    15    35    1
    38    15    36    1
    39    16    37    1
    40    16    38    1
    41    17    39    1
    42    17    40    1
    43    20    41    1
    44    21    42    1
    45    22    43    1
    46    22    44    1
