
     RDKit          3D

 44 46  0  0  0  0  0  0  0  0999 V2000
   -5.8937   -0.1036    0.7711 C   0  0  0  0  0  0  0  0  0  0  0  0
   -4.7805   -0.2045   -0.2423 C   0  0  0  0  0  0  0  0  0  0  0  0
   -4.5613    1.1076   -0.9252 C   0  0  0  0  0  0  0  0  0  0  0  0
   -3.1056    1.4100   -1.1862 C   0  0  0  0  0  0  0  0  0  0  0  0
   -2.3226    0.1505   -1.5382 C   0  0  0  0  0  0  0  0  0  0  0  0
   -2.4926   -0.7959   -0.5318 N   0  0  0  0  0  0  0  0  0  0  0  0
   -1.4168   -2.0698   -0.4175 S   0  0  0  0  0  6  0  0  0  0  0  0
   -1.3385   -2.7954   -1.7429 O   0  0  0  0  0  0  0  0  0  0  0  0
   -1.7842   -3.1005    0.6090 O   0  0  0  0  0  0  0  0  0  0  0  0
    0.2080   -1.4362   -0.1129 C   0  0  0  0  0  0  0  0  0  0  0  0
    1.0267   -1.1323   -1.1712 C   0  0  0  0  0  0  0  0  0  0  0  0
    2.2879   -0.6403   -0.9197 C   0  0  0  0  0  0  0  0  0  0  0  0
    2.7537   -0.4434    0.3685 C   0  0  0  0  0  0  0  0  0  0  0  0
    4.0657    0.0660    0.5820 N   0  0  0  0  0  0  0  0  0  0  0  0
    4.9993    0.3975   -0.5031 C   0  0  0  0  0  0  0  0  0  0  0  0
    6.2533    0.8517    0.1952 C   0  0  0  0  0  0  0  0  0  0  0  0
    6.1658    0.1970    1.5406 C   0  0  0  0  0  0  0  0  0  0  0  0
    4.6925    0.3349    1.8255 C   0  0  0  0  0  0  0  0  0  0  0  0
    4.1144    0.6164    2.8832 O   0  0  0  0  0  0  0  0  0  0  0  0
    1.9183   -0.7540    1.4131 C   0  0  0  0  0  0  0  0  0  0  0  0
    0.6551   -1.2466    1.1706 C   0  0  0  0  0  0  0  0  0  0  0  0
   -3.4734   -0.6307    0.4405 C   0  0  0  0  0  0  0  0  0  0  0  0
   -6.8571   -0.0712    0.2389 H   0  0  0  0  0  0  0  0  0  0  0  0
   -5.8802   -0.9762    1.4715 H   0  0  0  0  0  0  0  0  0  0  0  0
   -5.7647    0.8367    1.3338 H   0  0  0  0  0  0  0  0  0  0  0  0
   -5.0305   -1.0285   -0.9559 H   0  0  0  0  0  0  0  0  0  0  0  0
   -5.0993    1.1702   -1.9164 H   0  0  0  0  0  0  0  0  0  0  0  0
   -4.9479    1.9037   -0.2471 H   0  0  0  0  0  0  0  0  0  0  0  0
   -2.6372    1.9017   -0.3231 H   0  0  0  0  0  0  0  0  0  0  0  0
   -2.9888    2.1033   -2.0549 H   0  0  0  0  0  0  0  0  0  0  0  0
   -2.6397   -0.2145   -2.5267 H   0  0  0  0  0  0  0  0  0  0  0  0
   -1.2505    0.4749   -1.5833 H   0  0  0  0  0  0  0  0  0  0  0  0
    0.6774   -1.2806   -2.1938 H   0  0  0  0  0  0  0  0  0  0  0  0
    2.9376   -0.3993   -1.7756 H   0  0  0  0  0  0  0  0  0  0  0  0
    4.5491    1.2208   -1.0991 H   0  0  0  0  0  0  0  0  0  0  0  0
    5.1477   -0.5006   -1.1058 H   0  0  0  0  0  0  0  0  0  0  0  0
    6.2547    1.9572    0.3013 H   0  0  0  0  0  0  0  0  0  0  0  0
    7.1343    0.4957   -0.3858 H   0  0  0  0  0  0  0  0  0  0  0  0
    6.7697    0.6800    2.3161 H   0  0  0  0  0  0  0  0  0  0  0  0
    6.3481   -0.8949    1.4473 H   0  0  0  0  0  0  0  0  0  0  0  0
    2.2160   -0.6267    2.4371 H   0  0  0  0  0  0  0  0  0  0  0  0
   -0.0220   -1.4986    1.9979 H   0  0  0  0  0  0  0  0  0  0  0  0
   -3.6632   -1.5798    0.9790 H   0  0  0  0  0  0  0  0  0  0  0  0
   -3.2249    0.2008    1.1361 H   0  0  0  0  0  0  0  0  0  0  0  0
  1  2  1  0
  2  3  1  0
  3  4  1  0
  4  5  1  0
  5  6  1  0
  6  7  1  0
  7  8  2  0
  7  9  2  0
  7 10  1  0
 10 11  2  0
 11 12  1  0
 12 13  2  0
 13 14  1  0
 14 15  1  0
 15 16  1  0
 16 17  1  0
 17 18  1  0
 18 19  2  0
 13 20  1  0
 20 21  2  0
  6 22  1  0
 22  2  1  0
 21 10  1  0
 18 14  1  0
  1 23  1  0
  1 24  1  0
  1 25  1  0
  2 26  1  0
  3 27  1  0
  3 28  1  0
  4 29  1  0
  4 30  1  0
  5 31  1  0
  5 32  1  0
 11 33  1  0
 12 34  1  0
 15 35  1  0
 15 36  1  0
 16 37  1  0
 16 38  1  0
 17 39  1  0
 17 40  1  0
 20 41  1  0
 21 42  1  0
 22 43  1  0
 22 44  1  0
M  END
$$$$
