@<TRIPOS>MOLECULE
*****
 56 58 0 0 0
SMALL
GASTEIGER

@<TRIPOS>ATOM
      1 C          -7.7868    2.7388    1.3772 C.3     1  UNL1        0.0003
      2 N          -6.4312    2.2830    1.5741 N.pl3   1  UNL1       -0.3164
      3 C          -5.9218    1.2010    0.8324 C.ar    1  UNL1        0.2195
      4 N          -6.6894    0.5563   -0.0861 N.ar    1  UNL1       -0.1998
      5 C          -6.2017   -0.4763   -0.7926 C.ar    1  UNL1        0.1332
      6 C          -7.0868   -1.1404   -1.7820 C.3     1  UNL1       -0.0044
      7 N          -4.9476   -0.8480   -0.5665 N.ar    1  UNL1       -0.1996
      8 C          -4.1372   -0.2525    0.3273 C.ar    1  UNL1        0.2224
      9 N          -2.8127   -0.6694    0.5463 N.pl3   1  UNL1       -0.2995
     10 C          -2.3197   -1.8051   -0.2258 C.3     1  UNL1        0.0156
     11 C          -1.0147   -1.5416   -0.8739 C.3     1  UNL1       -0.0260
     12 C          -0.3706   -0.2377   -0.5231 C.3     1  UNL1        0.0384
     13 C           1.0966   -0.3917   -0.7979 C.2     1  UNL1        0.2165
     14 O           1.7272    0.3104   -1.6146 O.2     1  UNL1       -0.2755
     15 N           1.8558   -1.3817   -0.1124 N.am    1  UNL1       -0.3110
     16 C           3.2372   -1.6255   -0.2778 C.3     1  UNL1        0.0374
     17 C           4.1629   -0.5498    0.0614 C.ar    1  UNL1       -0.0185
     18 C           3.7352    0.6131    0.6355 C.ar    1  UNL1       -0.0531
     19 C           4.6439    1.5941    0.9463 C.ar    1  UNL1       -0.0196
     20 C           5.9811    1.4301    0.6912 C.ar    1  UNL1        0.1206
     21 O           6.8612    2.4445    1.0206 O.3     1  UNL1       -0.4951
     22 C           8.2486    2.3744    0.8001 C.3     1  UNL1        0.0788
     23 C           6.4104    0.2750    0.1206 C.ar    1  UNL1       -0.0080
     24 C           5.4959   -0.7252   -0.1981 C.ar    1  UNL1        0.0629
     25 C           6.0230   -1.9899   -0.8324 C.3     1  UNL1        0.4178
     26 F           5.5037   -2.2138   -2.0642 F       1  UNL1       -0.1659
     27 F           7.3906   -1.8744   -0.9583 F       1  UNL1       -0.1659
     28 F           5.8137   -3.0666    0.0359 F       1  UNL1       -0.1659
     29 C          -0.5266    0.1617    0.9084 C.3     1  UNL1       -0.0260
     30 C          -1.8983   -0.0734    1.4666 C.3     1  UNL1        0.0156
     31 N          -4.6561    0.7750    1.0153 N.ar    1  UNL1       -0.1810
     32 H          -7.8604    3.8312    1.3966 H       1  UNL1        0.0426
     33 H          -8.2068    2.3783    0.4019 H       1  UNL1        0.0426
     34 H          -8.4877    2.3343    2.1499 H       1  UNL1        0.0426
     35 H          -5.8407    2.7692    2.2725 H       1  UNL1        0.1486
     36 H          -7.3057   -2.1638   -1.3755 H       1  UNL1        0.0308
     37 H          -8.0039   -0.5535   -1.9645 H       1  UNL1        0.0308
     38 H          -6.4795   -1.2700   -2.7179 H       1  UNL1        0.0308
     39 H          -3.0890   -2.1867   -0.9388 H       1  UNL1        0.0465
     40 H          -2.2035   -2.6352    0.5332 H       1  UNL1        0.0465
     41 H          -0.2841   -2.3616   -0.6789 H       1  UNL1        0.0288
     42 H          -1.1731   -1.5460   -1.9874 H       1  UNL1        0.0288
     43 H          -0.7640    0.5420   -1.2045 H       1  UNL1        0.0395
     44 H           1.3114   -1.9710    0.5755 H       1  UNL1        0.1490
     45 H           3.5372   -2.5187    0.3065 H       1  UNL1        0.0512
     46 H           3.3757   -1.9461   -1.3564 H       1  UNL1        0.0512
     47 H           2.6848    0.8094    0.8724 H       1  UNL1        0.0622
     48 H           4.3073    2.4985    1.3930 H       1  UNL1        0.0654
     49 H           8.4656    2.4766   -0.2779 H       1  UNL1        0.0660
     50 H           8.7678    3.1244    1.4289 H       1  UNL1        0.0660
     51 H           8.5959    1.3817    1.1562 H       1  UNL1        0.0660
     52 H           7.4736    0.1197   -0.0932 H       1  UNL1        0.0660
     53 H           0.2601   -0.3292    1.5513 H       1  UNL1        0.0288
     54 H          -0.3172    1.2498    0.9949 H       1  UNL1        0.0288
     55 H          -2.3463    0.8514    1.9048 H       1  UNL1        0.0465
     56 H          -1.8033   -0.7793    2.3379 H       1  UNL1        0.0465
@<TRIPOS>BOND
     1     1     2    1
     2     2     3    1
     3     3     4   ar
     4     4     5   ar
     5     5     6    1
     6     5     7   ar
     7     7     8   ar
     8     8     9    1
     9     9    10    1
    10    10    11    1
    11    11    12    1
    12    12    13    1
    13    13    14    2
    14    13    15   am
    15    15    16    1
    16    16    17    1
    17    17    18   ar
    18    18    19   ar
    19    19    20   ar
    20    20    21    1
    21    21    22    1
    22    20    23   ar
    23    23    24   ar
    24    24    25    1
    25    25    26    1
    26    25    27    1
    27    25    28    1
    28    12    29    1
    29    29    30    1
    30     8    31   ar
    31    31     3   ar
    32    30     9    1
    33    24    17   ar
    34     1    32    1
    35     1    33    1
    36     1    34    1
    37     2    35    1
    38     6    36    1
    39     6    37    1
    40     6    38    1
    41    10    39    1
    42    10    40    1
    43    11    41    1
    44    11    42    1
    45    12    43    1
    46    15    44    1
    47    16    45    1
    48    16    46    1
    49    18    47    1
    50    19    48    1
    51    22    49    1
    52    22    50    1
    53    22    51    1
    54    23    52    1
    55    29    53    1
    56    29    54    1
    57    30    55    1
    58    30    56    1
