
     RDKit          3D

 56 58  0  0  0  0  0  0  0  0999 V2000
   -7.7868    2.7388    1.3772 C   0  0  0  0  0  0  0  0  0  0  0  0
   -6.4312    2.2830    1.5741 N   0  0  0  0  0  0  0  0  0  0  0  0
   -5.9218    1.2010    0.8324 C   0  0  0  0  0  0  0  0  0  0  0  0
   -6.6894    0.5563   -0.0861 N   0  0  0  0  0  0  0  0  0  0  0  0
   -6.2017   -0.4763   -0.7926 C   0  0  0  0  0  0  0  0  0  0  0  0
   -7.0868   -1.1404   -1.7820 C   0  0  0  0  0  0  0  0  0  0  0  0
   -4.9476   -0.8480   -0.5665 N   0  0  0  0  0  0  0  0  0  0  0  0
   -4.1372   -0.2525    0.3273 C   0  0  0  0  0  0  0  0  0  0  0  0
   -2.8127   -0.6694    0.5463 N   0  0  0  0  0  0  0  0  0  0  0  0
   -2.3197   -1.8051   -0.2258 C   0  0  0  0  0  0  0  0  0  0  0  0
   -1.0147   -1.5416   -0.8739 C   0  0  0  0  0  0  0  0  0  0  0  0
   -0.3706   -0.2377   -0.5231 C   0  0  0  0  0  0  0  0  0  0  0  0
    1.0966   -0.3917   -0.7979 C   0  0  0  0  0  0  0  0  0  0  0  0
    1.7272    0.3104   -1.6146 O   0  0  0  0  0  0  0  0  0  0  0  0
    1.8558   -1.3817   -0.1124 N   0  0  0  0  0  0  0  0  0  0  0  0
    3.2372   -1.6255   -0.2778 C   0  0  0  0  0  0  0  0  0  0  0  0
    4.1629   -0.5498    0.0614 C   0  0  0  0  0  0  0  0  0  0  0  0
    3.7352    0.6131    0.6355 C   0  0  0  0  0  0  0  0  0  0  0  0
    4.6439    1.5941    0.9463 C   0  0  0  0  0  0  0  0  0  0  0  0
    5.9811    1.4301    0.6912 C   0  0  0  0  0  0  0  0  0  0  0  0
    6.8612    2.4445    1.0206 O   0  0  0  0  0  0  0  0  0  0  0  0
    8.2486    2.3744    0.8001 C   0  0  0  0  0  0  0  0  0  0  0  0
    6.4104    0.2750    0.1206 C   0  0  0  0  0  0  0  0  0  0  0  0
    5.4959   -0.7252   -0.1981 C   0  0  0  0  0  0  0  0  0  0  0  0
    6.0230   -1.9899   -0.8324 C   0  0  0  0  0  0  0  0  0  0  0  0
    5.5037   -2.2138   -2.0642 F   0  0  0  0  0  0  0  0  0  0  0  0
    7.3906   -1.8744   -0.9583 F   0  0  0  0  0  0  0  0  0  0  0  0
    5.8137   -3.0666    0.0359 F   0  0  0  0  0  0  0  0  0  0  0  0
   -0.5266    0.1617    0.9084 C   0  0  0  0  0  0  0  0  0  0  0  0
   -1.8983   -0.0734    1.4666 C   0  0  0  0  0  0  0  0  0  0  0  0
   -4.6561    0.7750    1.0153 N   0  0  0  0  0  0  0  0  0  0  0  0
   -7.8604    3.8312    1.3966 H   0  0  0  0  0  0  0  0  0  0  0  0
   -8.2068    2.3783    0.4019 H   0  0  0  0  0  0  0  0  0  0  0  0
   -8.4877    2.3343    2.1499 H   0  0  0  0  0  0  0  0  0  0  0  0
   -5.8407    2.7692    2.2725 H   0  0  0  0  0  0  0  0  0  0  0  0
   -7.3057   -2.1638   -1.3755 H   0  0  0  0  0  0  0  0  0  0  0  0
   -8.0039   -0.5535   -1.9645 H   0  0  0  0  0  0  0  0  0  0  0  0
   -6.4795   -1.2700   -2.7179 H   0  0  0  0  0  0  0  0  0  0  0  0
   -3.0890   -2.1867   -0.9388 H   0  0  0  0  0  0  0  0  0  0  0  0
   -2.2035   -2.6352    0.5332 H   0  0  0  0  0  0  0  0  0  0  0  0
   -0.2841   -2.3616   -0.6789 H   0  0  0  0  0  0  0  0  0  0  0  0
   -1.1731   -1.5460   -1.9874 H   0  0  0  0  0  0  0  0  0  0  0  0
   -0.7640    0.5420   -1.2045 H   0  0  0  0  0  0  0  0  0  0  0  0
    1.3114   -1.9710    0.5755 H   0  0  0  0  0  0  0  0  0  0  0  0
    3.5372   -2.5187    0.3065 H   0  0  0  0  0  0  0  0  0  0  0  0
    3.3757   -1.9461   -1.3564 H   0  0  0  0  0  0  0  0  0  0  0  0
    2.6848    0.8094    0.8724 H   0  0  0  0  0  0  0  0  0  0  0  0
    4.3073    2.4985    1.3930 H   0  0  0  0  0  0  0  0  0  0  0  0
    8.4656    2.4766   -0.2779 H   0  0  0  0  0  0  0  0  0  0  0  0
    8.7678    3.1244    1.4289 H   0  0  0  0  0  0  0  0  0  0  0  0
    8.5959    1.3817    1.1562 H   0  0  0  0  0  0  0  0  0  0  0  0
    7.4736    0.1197   -0.0932 H   0  0  0  0  0  0  0  0  0  0  0  0
    0.2601   -0.3292    1.5513 H   0  0  0  0  0  0  0  0  0  0  0  0
   -0.3172    1.2498    0.9949 H   0  0  0  0  0  0  0  0  0  0  0  0
   -2.3463    0.8514    1.9048 H   0  0  0  0  0  0  0  0  0  0  0  0
   -1.8033   -0.7793    2.3379 H   0  0  0  0  0  0  0  0  0  0  0  0
  1  2  1  0
  2  3  1  0
  3  4  2  0
  4  5  1  0
  5  6  1  0
  5  7  2  0
  7  8  1  0
  8  9  1  0
  9 10  1  0
 10 11  1  0
 11 12  1  0
 12 13  1  0
 13 14  2  0
 13 15  1  0
 15 16  1  0
 16 17  1  0
 17 18  2  0
 18 19  1  0
 19 20  2  0
 20 21  1  0
 21 22  1  0
 20 23  1  0
 23 24  2  0
 24 25  1  0
 25 26  1  0
 25 27  1  0
 25 28  1  0
 12 29  1  0
 29 30  1  0
  8 31  2  0
 31  3  1  0
 30  9  1  0
 24 17  1  0
  1 32  1  0
  1 33  1  0
  1 34  1  0
  2 35  1  0
  6 36  1  0
  6 37  1  0
  6 38  1  0
 10 39  1  0
 10 40  1  0
 11 41  1  0
 11 42  1  0
 12 43  1  0
 15 44  1  0
 16 45  1  0
 16 46  1  0
 18 47  1  0
 19 48  1  0
 22 49  1  0
 22 50  1  0
 22 51  1  0
 23 52  1  0
 29 53  1  0
 29 54  1  0
 30 55  1  0
 30 56  1  0
M  END
$$$$
