@<TRIPOS>MOLECULE
*****
 31 33 0 0 0
SMALL
GASTEIGER

@<TRIPOS>ATOM
      1 N          -5.7552    0.2508    0.9944 N.pl3   1  UNL1       -0.3274
      2 C          -4.3363    0.1712    0.7894 C.ar    1  UNL1        0.2148
      3 N          -3.9692    0.2914   -0.5001 N.ar    1  UNL1       -0.2145
      4 C          -2.6637    0.2332   -0.8212 C.ar    1  UNL1        0.0789
      5 C          -1.6529    0.0517    0.1283 C.ar    1  UNL1        0.0537
      6 C          -2.1335   -0.0601    1.4167 C.ar    1  UNL1        0.1301
      7 N          -1.1970   -0.2480    2.4708 N.pl3   1  UNL1       -0.3425
      8 N          -3.4159   -0.0065    1.7638 N.ar    1  UNL1       -0.1995
      9 C          -0.3196   -0.0054   -0.2196 C.ar    1  UNL1        0.0252
     10 S           0.8735   -0.2411    1.0898 S.3     1  UNL1       -0.0887
     11 C           2.5282   -0.2911    0.4738 C.ar    1  UNL1        0.0128
     12 C           3.1347   -1.4756    0.0843 C.ar    1  UNL1       -0.0480
     13 C           4.4306   -1.3939   -0.3812 C.ar    1  UNL1       -0.0607
     14 C           5.1127   -0.1809   -0.4618 C.ar    1  UNL1       -0.0617
     15 C           4.5173    0.9847   -0.0789 C.ar    1  UNL1       -0.0607
     16 C           3.2259    0.9058    0.3852 C.ar    1  UNL1       -0.0480
     17 C           0.0281    0.1191   -1.5348 C.ar    1  UNL1       -0.0472
     18 C          -0.9652    0.2997   -2.4885 C.ar    1  UNL1       -0.0587
     19 C          -2.3011    0.3590   -2.1576 C.ar    1  UNL1       -0.0354
     20 H          -6.2803   -0.6211    1.1639 H       1  UNL1        0.1452
     21 H          -6.0907    1.2192    0.9441 H       1  UNL1        0.1452
     22 H          -0.7297   -0.9210    3.0899 H       1  UNL1        0.1437
     23 H          -0.8790    0.7487    2.6581 H       1  UNL1        0.1437
     24 H           2.5876   -2.4016    0.1555 H       1  UNL1        0.0629
     25 H           4.9093   -2.3005   -0.6847 H       1  UNL1        0.0618
     26 H           6.1273   -0.1918   -0.8367 H       1  UNL1        0.0618
     27 H           5.0738    1.8960   -0.1558 H       1  UNL1        0.0618
     28 H           2.7349    1.8400    0.6971 H       1  UNL1        0.0629
     29 H           1.0878    0.0742   -1.8163 H       1  UNL1        0.0629
     30 H          -0.6386    0.3927   -3.5135 H       1  UNL1        0.0619
     31 H          -3.0437    0.5012   -2.9332 H       1  UNL1        0.0639
@<TRIPOS>BOND
     1     1     2    1
     2     2     3   ar
     3     3     4   ar
     4     4     5   ar
     5     5     6   ar
     6     6     7    1
     7     6     8   ar
     8     5     9   ar
     9     9    10    1
    10    10    11    1
    11    11    12   ar
    12    12    13   ar
    13    13    14   ar
    14    14    15   ar
    15    15    16   ar
    16     9    17   ar
    17    17    18   ar
    18    18    19   ar
    19     8     2   ar
    20    16    11   ar
    21    19     4   ar
    22     1    20    1
    23     1    21    1
    24     7    22    1
    25     7    23    1
    26    12    24    1
    27    13    25    1
    28    14    26    1
    29    15    27    1
    30    16    28    1
    31    17    29    1
    32    18    30    1
    33    19    31    1
