
     RDKit          3D

 31 33  0  0  0  0  0  0  0  0999 V2000
   -5.7552    0.2508    0.9944 N   0  0  0  0  0  0  0  0  0  0  0  0
   -4.3363    0.1712    0.7894 C   0  0  0  0  0  0  0  0  0  0  0  0
   -3.9692    0.2914   -0.5001 N   0  0  0  0  0  0  0  0  0  0  0  0
   -2.6637    0.2332   -0.8212 C   0  0  0  0  0  0  0  0  0  0  0  0
   -1.6529    0.0517    0.1283 C   0  0  0  0  0  0  0  0  0  0  0  0
   -2.1335   -0.0601    1.4167 C   0  0  0  0  0  0  0  0  0  0  0  0
   -1.1970   -0.2480    2.4708 N   0  0  0  0  0  0  0  0  0  0  0  0
   -3.4159   -0.0065    1.7638 N   0  0  0  0  0  0  0  0  0  0  0  0
   -0.3196   -0.0054   -0.2196 C   0  0  0  0  0  0  0  0  0  0  0  0
    0.8735   -0.2411    1.0898 S   0  0  0  0  0  0  0  0  0  0  0  0
    2.5282   -0.2911    0.4738 C   0  0  0  0  0  0  0  0  0  0  0  0
    3.1347   -1.4756    0.0843 C   0  0  0  0  0  0  0  0  0  0  0  0
    4.4306   -1.3939   -0.3812 C   0  0  0  0  0  0  0  0  0  0  0  0
    5.1127   -0.1809   -0.4618 C   0  0  0  0  0  0  0  0  0  0  0  0
    4.5173    0.9847   -0.0789 C   0  0  0  0  0  0  0  0  0  0  0  0
    3.2259    0.9058    0.3852 C   0  0  0  0  0  0  0  0  0  0  0  0
    0.0281    0.1191   -1.5348 C   0  0  0  0  0  0  0  0  0  0  0  0
   -0.9652    0.2997   -2.4885 C   0  0  0  0  0  0  0  0  0  0  0  0
   -2.3011    0.3590   -2.1576 C   0  0  0  0  0  0  0  0  0  0  0  0
   -6.2803   -0.6211    1.1639 H   0  0  0  0  0  0  0  0  0  0  0  0
   -6.0907    1.2192    0.9441 H   0  0  0  0  0  0  0  0  0  0  0  0
   -0.7297   -0.9210    3.0899 H   0  0  0  0  0  0  0  0  0  0  0  0
   -0.8790    0.7487    2.6581 H   0  0  0  0  0  0  0  0  0  0  0  0
    2.5876   -2.4016    0.1555 H   0  0  0  0  0  0  0  0  0  0  0  0
    4.9093   -2.3005   -0.6847 H   0  0  0  0  0  0  0  0  0  0  0  0
    6.1273   -0.1918   -0.8367 H   0  0  0  0  0  0  0  0  0  0  0  0
    5.0738    1.8960   -0.1558 H   0  0  0  0  0  0  0  0  0  0  0  0
    2.7349    1.8400    0.6971 H   0  0  0  0  0  0  0  0  0  0  0  0
    1.0878    0.0742   -1.8163 H   0  0  0  0  0  0  0  0  0  0  0  0
   -0.6386    0.3927   -3.5135 H   0  0  0  0  0  0  0  0  0  0  0  0
   -3.0437    0.5012   -2.9332 H   0  0  0  0  0  0  0  0  0  0  0  0
  1  2  1  0
  2  3  2  0
  3  4  1  0
  4  5  2  0
  5  6  1  0
  6  7  1  0
  6  8  2  0
  5  9  1  0
  9 10  1  0
 10 11  1  0
 11 12  2  0
 12 13  1  0
 13 14  2  0
 14 15  1  0
 15 16  2  0
  9 17  2  0
 17 18  1  0
 18 19  2  0
  8  2  1  0
 16 11  1  0
 19  4  1  0
  1 20  1  0
  1 21  1  0
  7 22  1  0
  7 23  1  0
 12 24  1  0
 13 25  1  0
 14 26  1  0
 15 27  1  0
 16 28  1  0
 17 29  1  0
 18 30  1  0
 19 31  1  0
M  END
$$$$
