@<TRIPOS>MOLECULE
*****
 53 57 0 0 0
SMALL
GASTEIGER

@<TRIPOS>ATOM
      1 C           3.6398   -0.3222   -2.1616 C.3     1  UNL1       -0.0274
      2 C           2.9599    0.6618   -1.1967 C.3     1  UNL1        0.1037
      3 O           1.7632    0.3161   -0.7378 O.3     1  UNL1       -0.4725
      4 C           0.9861   -0.5302   -0.1092 C.ar    1  UNL1        0.2265
      5 N          -0.3465   -0.2364   -0.0017 N.ar    1  UNL1       -0.2121
      6 C          -1.2441   -1.0072    0.6099 C.ar    1  UNL1        0.0798
      7 C          -2.6660   -0.6276    0.6873 C.ar    1  UNL1        0.0380
      8 C          -3.6278   -1.3830    1.3038 C.ar    1  UNL1        0.0586
      9 N          -4.7989   -0.7283    1.1770 N.ar    1  UNL1       -0.1787
     10 N          -4.6363    0.4036    0.5128 N.ar    1  UNL1       -0.2655
     11 C          -5.6845    1.3244    0.2119 C.3     1  UNL1        0.0780
     12 C          -5.6315    1.7893   -1.2492 C.3     1  UNL1       -0.0048
     13 C          -7.0710    2.0722   -1.5242 C.3     1  UNL1        0.0498
     14 O          -7.8477    1.3701   -0.6503 O.3     1  UNL1       -0.3776
     15 C          -7.0546    0.6693    0.2224 C.3     1  UNL1        0.0701
     16 C          -3.3106    0.4831    0.1991 C.ar    1  UNL1        0.0351
     17 C          -0.7936   -2.1797    1.1709 C.ar    1  UNL1       -0.0076
     18 C           0.5359   -2.5334    1.0979 C.ar    1  UNL1        0.0999
     19 N           1.2516   -3.5864    1.5447 N.ar    1  UNL1       -0.1712
     20 N           2.5253   -3.4690    1.2251 N.ar    1  UNL1       -0.2732
     21 C           3.5793   -4.4184    1.5463 C.3     1  UNL1        0.0302
     22 C           2.6750   -2.3180    0.5508 C.ar    1  UNL1        0.0380
     23 C           1.4224   -1.7057    0.4570 C.ar    1  UNL1        0.0812
     24 C           4.0119    1.1011   -0.2227 C.3     1  UNL1        0.0196
     25 C           5.1773    1.7887   -0.9465 C.3     1  UNL1        0.0182
     26 N           5.8592    2.4190    0.1899 N.am    1  UNL1       -0.3149
     27 C           4.8972    2.7137    1.1950 C.2     1  UNL1        0.2135
     28 O           5.1312    3.3248    2.2482 O.2     1  UNL1       -0.2758
     29 C           3.5782    2.1496    0.7326 C.3     1  UNL1        0.0315
     30 H           4.5445   -0.7677   -1.6858 H       1  UNL1        0.0265
     31 H           2.9387   -1.0741   -2.5300 H       1  UNL1        0.0265
     32 H           4.0261    0.2523   -3.0221 H       1  UNL1        0.0265
     33 H           2.8107    1.5834   -1.8696 H       1  UNL1        0.0734
     34 H          -3.5304   -2.3249    1.8091 H       1  UNL1        0.0854
     35 H          -5.6720    2.2448    0.8532 H       1  UNL1        0.0568
     36 H          -5.3434    0.8961   -1.8414 H       1  UNL1        0.0309
     37 H          -4.9536    2.6325   -1.3692 H       1  UNL1        0.0309
     38 H          -7.2278    3.1691   -1.3732 H       1  UNL1        0.0560
     39 H          -7.3471    1.8855   -2.5964 H       1  UNL1        0.0560
     40 H          -7.4755    0.6372    1.2529 H       1  UNL1        0.0581
     41 H          -6.9243   -0.3641   -0.1818 H       1  UNL1        0.0581
     42 H          -2.8312    1.2721   -0.3384 H       1  UNL1        0.0833
     43 H          -1.4882   -2.8432    1.6810 H       1  UNL1        0.0661
     44 H           4.5215   -4.1037    1.0484 H       1  UNL1        0.0473
     45 H           3.6782   -4.4635    2.6394 H       1  UNL1        0.0473
     46 H           3.3472   -5.4327    1.1799 H       1  UNL1        0.0473
     47 H           3.5969   -1.9361    0.1588 H       1  UNL1        0.0834
     48 H           4.4752    0.2733    0.3488 H       1  UNL1        0.0356
     49 H           4.7514    2.5900   -1.5752 H       1  UNL1        0.0466
     50 H           5.8049    1.0698   -1.4726 H       1  UNL1        0.0466
     51 H           6.8875    2.5943    0.1961 H       1  UNL1        0.1487
     52 H           3.0306    2.9850    0.2950 H       1  UNL1        0.0363
     53 H           3.0998    1.6832    1.6006 H       1  UNL1        0.0363
@<TRIPOS>BOND
     1     1     2    1
     2     2     3    1
     3     3     4    1
     4     4     5   ar
     5     5     6   ar
     6     6     7    1
     7     7     8   ar
     8     8     9   ar
     9     9    10   ar
    10    10    11    1
    11    11    12    1
    12    12    13    1
    13    13    14    1
    14    14    15    1
    15    10    16   ar
    16     6    17   ar
    17    17    18   ar
    18    18    19   ar
    19    19    20   ar
    20    20    21    1
    21    20    22   ar
    22    22    23   ar
    23     2    24    1
    24    24    25    1
    25    25    26    1
    26    26    27   am
    27    27    28    2
    28    27    29    1
    29    23     4   ar
    30    29    24    1
    31    16     7   ar
    32    23    18   ar
    33    15    11    1
    34     1    30    1
    35     1    31    1
    36     1    32    1
    37     2    33    1
    38     8    34    1
    39    11    35    1
    40    12    36    1
    41    12    37    1
    42    13    38    1
    43    13    39    1
    44    15    40    1
    45    15    41    1
    46    16    42    1
    47    17    43    1
    48    21    44    1
    49    21    45    1
    50    21    46    1
    51    22    47    1
    52    24    48    1
    53    25    49    1
    54    25    50    1
    55    26    51    1
    56    29    52    1
    57    29    53    1
