
     RDKit          3D

 53 57  0  0  0  0  0  0  0  0999 V2000
    3.6398   -0.3222   -2.1616 C   0  0  0  0  0  0  0  0  0  0  0  0
    2.9599    0.6618   -1.1967 C   0  0  1  0  0  0  0  0  0  0  0  0
    1.7632    0.3161   -0.7378 O   0  0  0  0  0  0  0  0  0  0  0  0
    0.9861   -0.5302   -0.1092 C   0  0  0  0  0  0  0  0  0  0  0  0
   -0.3465   -0.2364   -0.0017 N   0  0  0  0  0  0  0  0  0  0  0  0
   -1.2441   -1.0072    0.6099 C   0  0  0  0  0  0  0  0  0  0  0  0
   -2.6660   -0.6276    0.6873 C   0  0  0  0  0  0  0  0  0  0  0  0
   -3.6278   -1.3830    1.3038 C   0  0  0  0  0  0  0  0  0  0  0  0
   -4.7989   -0.7283    1.1770 N   0  0  0  0  0  0  0  0  0  0  0  0
   -4.6363    0.4036    0.5128 N   0  0  0  0  0  0  0  0  0  0  0  0
   -5.6845    1.3244    0.2119 C   0  0  1  0  0  0  0  0  0  0  0  0
   -5.6315    1.7893   -1.2492 C   0  0  0  0  0  0  0  0  0  0  0  0
   -7.0710    2.0722   -1.5242 C   0  0  0  0  0  0  0  0  0  0  0  0
   -7.8477    1.3701   -0.6503 O   0  0  0  0  0  0  0  0  0  0  0  0
   -7.0546    0.6693    0.2224 C   0  0  0  0  0  0  0  0  0  0  0  0
   -3.3106    0.4831    0.1991 C   0  0  0  0  0  0  0  0  0  0  0  0
   -0.7936   -2.1797    1.1709 C   0  0  0  0  0  0  0  0  0  0  0  0
    0.5359   -2.5334    1.0979 C   0  0  0  0  0  0  0  0  0  0  0  0
    1.2516   -3.5864    1.5447 N   0  0  0  0  0  0  0  0  0  0  0  0
    2.5253   -3.4690    1.2251 N   0  0  0  0  0  0  0  0  0  0  0  0
    3.5793   -4.4184    1.5463 C   0  0  0  0  0  0  0  0  0  0  0  0
    2.6750   -2.3180    0.5508 C   0  0  0  0  0  0  0  0  0  0  0  0
    1.4224   -1.7057    0.4570 C   0  0  0  0  0  0  0  0  0  0  0  0
    4.0119    1.1011   -0.2227 C   0  0  1  0  0  0  0  0  0  0  0  0
    5.1773    1.7887   -0.9465 C   0  0  0  0  0  0  0  0  0  0  0  0
    5.8592    2.4190    0.1899 N   0  0  0  0  0  0  0  0  0  0  0  0
    4.8972    2.7137    1.1950 C   0  0  0  0  0  0  0  0  0  0  0  0
    5.1312    3.3248    2.2482 O   0  0  0  0  0  0  0  0  0  0  0  0
    3.5782    2.1496    0.7326 C   0  0  0  0  0  0  0  0  0  0  0  0
    4.5445   -0.7677   -1.6858 H   0  0  0  0  0  0  0  0  0  0  0  0
    2.9387   -1.0741   -2.5300 H   0  0  0  0  0  0  0  0  0  0  0  0
    4.0261    0.2523   -3.0221 H   0  0  0  0  0  0  0  0  0  0  0  0
    2.8107    1.5834   -1.8696 H   0  0  0  0  0  0  0  0  0  0  0  0
   -3.5304   -2.3249    1.8091 H   0  0  0  0  0  0  0  0  0  0  0  0
   -5.6720    2.2448    0.8532 H   0  0  0  0  0  0  0  0  0  0  0  0
   -5.3434    0.8961   -1.8414 H   0  0  0  0  0  0  0  0  0  0  0  0
   -4.9536    2.6325   -1.3692 H   0  0  0  0  0  0  0  0  0  0  0  0
   -7.2278    3.1691   -1.3732 H   0  0  0  0  0  0  0  0  0  0  0  0
   -7.3471    1.8855   -2.5964 H   0  0  0  0  0  0  0  0  0  0  0  0
   -7.4755    0.6372    1.2529 H   0  0  0  0  0  0  0  0  0  0  0  0
   -6.9243   -0.3641   -0.1818 H   0  0  0  0  0  0  0  0  0  0  0  0
   -2.8312    1.2721   -0.3384 H   0  0  0  0  0  0  0  0  0  0  0  0
   -1.4882   -2.8432    1.6810 H   0  0  0  0  0  0  0  0  0  0  0  0
    4.5215   -4.1037    1.0484 H   0  0  0  0  0  0  0  0  0  0  0  0
    3.6782   -4.4635    2.6394 H   0  0  0  0  0  0  0  0  0  0  0  0
    3.3472   -5.4327    1.1799 H   0  0  0  0  0  0  0  0  0  0  0  0
    3.5969   -1.9361    0.1588 H   0  0  0  0  0  0  0  0  0  0  0  0
    4.4752    0.2733    0.3488 H   0  0  0  0  0  0  0  0  0  0  0  0
    4.7514    2.5900   -1.5752 H   0  0  0  0  0  0  0  0  0  0  0  0
    5.8049    1.0698   -1.4726 H   0  0  0  0  0  0  0  0  0  0  0  0
    6.8875    2.5943    0.1961 H   0  0  0  0  0  0  0  0  0  0  0  0
    3.0306    2.9850    0.2950 H   0  0  0  0  0  0  0  0  0  0  0  0
    3.0998    1.6832    1.6006 H   0  0  0  0  0  0  0  0  0  0  0  0
  1  2  1  0
  2  3  1  0
  3  4  1  0
  4  5  2  0
  5  6  1  0
  6  7  1  0
  7  8  1  0
  8  9  2  0
  9 10  1  0
 10 11  1  0
 11 12  1  0
 12 13  1  0
 13 14  1  0
 14 15  1  0
 10 16  1  0
  6 17  2  0
 17 18  1  0
 18 19  2  0
 19 20  1  0
 20 21  1  0
 20 22  1  0
 22 23  2  0
  2 24  1  0
 24 25  1  0
 25 26  1  0
 26 27  1  0
 27 28  2  0
 27 29  1  0
 23  4  1  0
 29 24  1  0
 16  7  2  0
 23 18  1  0
 15 11  1  0
  1 30  1  0
  1 31  1  0
  1 32  1  0
  2 33  1  6
  8 34  1  0
 11 35  1  1
 12 36  1  0
 12 37  1  0
 13 38  1  0
 13 39  1  0
 15 40  1  0
 15 41  1  0
 16 42  1  0
 17 43  1  0
 21 44  1  0
 21 45  1  0
 21 46  1  0
 22 47  1  0
 24 48  1  1
 25 49  1  0
 25 50  1  0
 26 51  1  0
 29 52  1  0
 29 53  1  0
M  END
$$$$
