@<TRIPOS>MOLECULE
*****
 43 45 0 0 0
SMALL
GASTEIGER

@<TRIPOS>ATOM
      1 C          -0.1416    0.6399    1.6982 C.3     1  UNL1       -0.0351
      2 C          -0.4471   -0.2699    0.5533 C.3     1  UNL1        0.1077
      3 N           0.5357   -1.2972    0.4681 N.pl3   1  UNL1       -0.3306
      4 C           1.9134   -1.0445    0.2333 C.ar    1  UNL1        0.0279
      5 C           2.8297   -2.1028    0.1712 C.ar    1  UNL1       -0.0401
      6 C           4.1669   -1.8766   -0.0587 C.ar    1  UNL1       -0.0478
      7 C           4.6747   -0.5894   -0.2404 C.ar    1  UNL1        0.0388
      8 C           6.0903   -0.3718   -0.4820 C.2     1  UNL1        0.2665
      9 O           6.8347   -1.3958   -0.5196 O.2     1  UNL1       -0.2681
     10 N           6.6356    0.9182   -0.6700 N.am    1  UNL1       -0.1935
     11 O           7.9732    1.0365   -0.8914 O.3     1  UNL1       -0.2949
     12 C           3.7905    0.4545   -0.1823 C.ar    1  UNL1       -0.0478
     13 C           2.4494    0.2011    0.0503 C.ar    1  UNL1       -0.0401
     14 C          -0.4826    0.4466   -0.7781 C.3     1  UNL1       -0.0071
     15 C          -1.7983    0.0430   -1.4097 C.3     1  UNL1        0.0222
     16 N          -2.6279   -0.1936   -0.2454 N.am    1  UNL1       -0.2696
     17 C          -4.0109    0.1471   -0.2219 C.ar    1  UNL1        0.0364
     18 C          -4.4204    1.3913    0.2044 C.ar    1  UNL1       -0.0389
     19 C          -5.7655    1.7493    0.2370 C.ar    1  UNL1       -0.0416
     20 C          -6.7377    0.8520   -0.1635 C.ar    1  UNL1        0.0411
     21 CL         -8.4349    1.3215   -0.1159 Cl      1  UNL1       -0.0835
     22 C          -6.3366   -0.3923   -0.5905 C.ar    1  UNL1       -0.0416
     23 C          -4.9965   -0.7335   -0.6173 C.ar    1  UNL1       -0.0389
     24 C          -1.8182   -0.7756    0.7335 C.2     1  UNL1        0.2430
     25 O          -2.2097   -1.5833    1.6028 O.2     1  UNL1       -0.2729
     26 H          -0.0584    1.7126    1.4287 H       1  UNL1        0.0255
     27 H           0.8337    0.3482    2.1346 H       1  UNL1        0.0255
     28 H          -0.8773    0.4911    2.5294 H       1  UNL1        0.0255
     29 H           0.2266   -2.2828    0.5840 H       1  UNL1        0.1471
     30 H           2.4884   -3.1018    0.3039 H       1  UNL1        0.0636
     31 H           4.8859   -2.6868   -0.1090 H       1  UNL1        0.0626
     32 H           6.0460    1.7659   -0.6431 H       1  UNL1        0.1825
     33 H           8.4808    1.0580   -0.0325 H       1  UNL1        0.2414
     34 H           4.1037    1.4923   -0.3136 H       1  UNL1        0.0626
     35 H           1.8041    1.0705    0.0818 H       1  UNL1        0.0636
     36 H           0.3049    0.0565   -1.4809 H       1  UNL1        0.0306
     37 H          -0.4204    1.5453   -0.6727 H       1  UNL1        0.0306
     38 H          -2.2123    0.8490   -2.0493 H       1  UNL1        0.0469
     39 H          -1.7187   -0.9213   -1.9542 H       1  UNL1        0.0469
     40 H          -3.6997    2.1064    0.5197 H       1  UNL1        0.0637
     41 H          -6.1010    2.7233    0.5697 H       1  UNL1        0.0633
     42 H          -7.0968   -1.0891   -0.9020 H       1  UNL1        0.0633
     43 H          -4.6556   -1.7119   -0.9512 H       1  UNL1        0.0637
@<TRIPOS>BOND
     1     1     2    1
     2     2     3    1
     3     3     4    1
     4     4     5   ar
     5     5     6   ar
     6     6     7   ar
     7     7     8    1
     8     8     9    2
     9     8    10   am
    10    10    11    1
    11     7    12   ar
    12    12    13   ar
    13     2    14    1
    14    14    15    1
    15    15    16    1
    16    16    17    1
    17    17    18   ar
    18    18    19   ar
    19    19    20   ar
    20    20    21    1
    21    20    22   ar
    22    22    23   ar
    23    16    24   am
    24    24    25    2
    25    24     2    1
    26    13     4   ar
    27    23    17   ar
    28     1    26    1
    29     1    27    1
    30     1    28    1
    31     3    29    1
    32     5    30    1
    33     6    31    1
    34    10    32    1
    35    11    33    1
    36    12    34    1
    37    13    35    1
    38    14    36    1
    39    14    37    1
    40    15    38    1
    41    15    39    1
    42    18    40    1
    43    19    41    1
    44    22    42    1
    45    23    43    1
