
     RDKit          3D

 56 58  0  0  0  0  0  0  0  0999 V2000
   -4.4732    3.8677   -3.6203 C   0  0  0  0  0  0  0  0  0  0  0  0
   -3.4586    3.2073   -2.7770 C   0  0  0  0  0  0  0  0  0  0  0  0
   -2.1184    3.3776   -2.6402 C   0  0  0  0  0  0  0  0  0  0  0  0
   -1.4669    2.6350   -1.8011 N   0  0  0  0  0  0  0  0  0  0  0  0
   -2.0403    1.7334   -1.0840 C   0  0  0  0  0  0  0  0  0  0  0  0
   -1.5147    0.7846   -0.0834 C   0  0  0  0  0  0  0  0  0  0  0  0
   -2.4042   -0.0864    0.5253 C   0  0  0  0  0  0  0  0  0  0  0  0
   -1.9906   -1.0014    1.4672 C   0  0  0  0  0  0  0  0  0  0  0  0
   -2.7911   -1.8869    2.1101 O   0  0  0  0  0  0  0  0  0  0  0  0
   -4.1453   -2.1198    2.0408 C   0  0  0  0  0  0  0  0  0  0  0  0
   -5.0323   -0.9512    2.3434 C   0  0  0  0  0  0  0  0  0  0  0  0
   -4.5281   -2.8186    0.7343 C   0  0  0  0  0  0  0  0  0  0  0  0
   -3.7745   -4.1465    0.7614 C   0  0  0  0  0  0  0  0  0  0  0  0
   -5.9011   -3.0331    0.6999 O   0  0  0  0  0  0  0  0  0  0  0  0
   -0.6472   -1.0047    1.7713 C   0  0  0  0  0  0  0  0  0  0  0  0
    0.2670   -0.1321    1.1667 C   0  0  0  0  0  0  0  0  0  0  0  0
    1.6822   -0.1941    1.5409 C   0  0  0  0  0  0  0  0  0  0  0  0
    2.0866   -1.0400    2.4005 O   0  0  0  0  0  0  0  0  0  0  0  0
    2.6765    0.6513    0.9961 N   0  0  0  0  0  0  0  0  0  0  0  0
    4.0765    0.5310    1.4199 C   0  0  2  0  0  0  0  0  0  0  0  0
    4.5355    1.8063    2.1047 C   0  0  0  0  0  0  0  0  0  0  0  0
    4.9559    0.2113    0.2710 C   0  0  0  0  0  0  0  0  0  0  0  0
    4.8030    0.9112   -0.9048 C   0  0  0  0  0  0  0  0  0  0  0  0
    5.6030    0.6136   -1.9409 N   0  0  0  0  0  0  0  0  0  0  0  0
    6.5425   -0.3421   -1.8622 C   0  0  0  0  0  0  0  0  0  0  0  0
    7.4043   -0.6367   -3.0382 C   0  0  0  0  0  0  0  0  0  0  0  0
    8.5256    0.1677   -2.9658 F   0  0  0  0  0  0  0  0  0  0  0  0
    7.7541   -1.9757   -3.0157 F   0  0  0  0  0  0  0  0  0  0  0  0
    6.7365   -0.3562   -4.2031 F   0  0  0  0  0  0  0  0  0  0  0  0
    6.7010   -1.0311   -0.7210 N   0  0  0  0  0  0  0  0  0  0  0  0
    5.9226   -0.7673    0.3421 C   0  0  0  0  0  0  0  0  0  0  0  0
   -0.1704    0.7725    0.2292 C   0  0  0  0  0  0  0  0  0  0  0  0
   -3.7435    1.8770   -1.5946 S   0  0  0  0  0  0  0  0  0  0  0  0
   -4.8130    4.8001   -3.1268 H   0  0  0  0  0  0  0  0  0  0  0  0
   -5.3182    3.1490   -3.7630 H   0  0  0  0  0  0  0  0  0  0  0  0
   -4.0240    4.0786   -4.5997 H   0  0  0  0  0  0  0  0  0  0  0  0
   -1.6151    4.1635   -3.2648 H   0  0  0  0  0  0  0  0  0  0  0  0
   -3.4343   -0.0300    0.2383 H   0  0  0  0  0  0  0  0  0  0  0  0
   -4.3686   -2.8870    2.8461 H   0  0  0  0  0  0  0  0  0  0  0  0
   -5.8297   -0.9282    1.5421 H   0  0  0  0  0  0  0  0  0  0  0  0
   -5.5925   -1.0922    3.2896 H   0  0  0  0  0  0  0  0  0  0  0  0
   -4.5549    0.0295    2.3395 H   0  0  0  0  0  0  0  0  0  0  0  0
   -4.2240   -2.2638   -0.1510 H   0  0  0  0  0  0  0  0  0  0  0  0
   -2.8697   -4.0759    1.4219 H   0  0  0  0  0  0  0  0  0  0  0  0
   -3.4893   -4.4096   -0.2888 H   0  0  0  0  0  0  0  0  0  0  0  0
   -4.4790   -4.9013    1.1642 H   0  0  0  0  0  0  0  0  0  0  0  0
   -6.2816   -2.7837   -0.1848 H   0  0  0  0  0  0  0  0  0  0  0  0
   -0.2621   -1.7117    2.5139 H   0  0  0  0  0  0  0  0  0  0  0  0
    2.3995    1.3626    0.2879 H   0  0  0  0  0  0  0  0  0  0  0  0
    4.1339   -0.2736    2.1656 H   0  0  0  0  0  0  0  0  0  0  0  0
    3.7390    2.2231    2.7446 H   0  0  0  0  0  0  0  0  0  0  0  0
    4.8311    2.5938    1.3963 H   0  0  0  0  0  0  0  0  0  0  0  0
    5.3661    1.5030    2.7958 H   0  0  0  0  0  0  0  0  0  0  0  0
    4.0423    1.7021   -1.0053 H   0  0  0  0  0  0  0  0  0  0  0  0
    6.0839   -1.3467    1.2419 H   0  0  0  0  0  0  0  0  0  0  0  0
    0.4880    1.4750   -0.2757 H   0  0  0  0  0  0  0  0  0  0  0  0
  1  2  1  0
  2  3  2  0
  3  4  1  0
  4  5  2  0
  5  6  1  0
  6  7  2  0
  7  8  1  0
  8  9  1  0
  9 10  1  0
 10 11  1  0
 10 12  1  0
 12 13  1  0
 12 14  1  0
  8 15  2  0
 15 16  1  0
 16 17  1  0
 17 18  2  0
 17 19  1  0
 19 20  1  0
 20 21  1  0
 20 22  1  0
 22 23  2  0
 23 24  1  0
 24 25  2  0
 25 26  1  0
 26 27  1  0
 26 28  1  0
 26 29  1  0
 25 30  1  0
 30 31  2  0
 16 32  2  0
  5 33  1  0
 33  2  1  0
 32  6  1  0
 31 22  1  0
  1 34  1  0
  1 35  1  0
  1 36  1  0
  3 37  1  0
  7 38  1  0
 10 39  1  0
 11 40  1  0
 11 41  1  0
 11 42  1  0
 12 43  1  0
 13 44  1  0
 13 45  1  0
 13 46  1  0
 14 47  1  0
 15 48  1  0
 19 49  1  0
 20 50  1  1
 21 51  1  0
 21 52  1  0
 21 53  1  0
 23 54  1  0
 31 55  1  0
 32 56  1  0
M  END
$$$$
