@<TRIPOS>MOLECULE
*****
 56 58 0 0 0
SMALL
GASTEIGER

@<TRIPOS>ATOM
      1 C          -4.4732    3.8677   -3.6203 C.3     1  UNL1       -0.0319
      2 C          -3.4586    3.2073   -2.7770 C.ar    1  UNL1        0.0068
      3 C          -2.1184    3.3776   -2.6402 C.ar    1  UNL1        0.0383
      4 N          -1.4669    2.6350   -1.8011 N.ar    1  UNL1       -0.2471
      5 C          -2.0403    1.7334   -1.0840 C.ar    1  UNL1        0.1086
      6 C          -1.5147    0.7846   -0.0834 C.ar    1  UNL1        0.0113
      7 C          -2.4042   -0.0864    0.5253 C.ar    1  UNL1       -0.0102
      8 C          -1.9906   -1.0014    1.4672 C.ar    1  UNL1        0.1224
      9 O          -2.7911   -1.8869    2.1101 O.3     1  UNL1       -0.4865
     10 C          -4.1453   -2.1198    2.0408 C.3     1  UNL1        0.1228
     11 C          -5.0323   -0.9512    2.3434 C.3     1  UNL1       -0.0253
     12 C          -4.5281   -2.8186    0.7343 C.3     1  UNL1        0.0889
     13 C          -3.7745   -4.1465    0.7614 C.3     1  UNL1       -0.0355
     14 O          -5.9011   -3.0331    0.6999 O.3     1  UNL1       -0.3884
     15 C          -0.6472   -1.0047    1.7713 C.ar    1  UNL1       -0.0078
     16 C           0.2670   -0.1321    1.1667 C.ar    1  UNL1        0.0408
     17 C           1.6822   -0.1941    1.5409 C.2     1  UNL1        0.2447
     18 O           2.0866   -1.0400    2.4005 O.2     1  UNL1       -0.2702
     19 N           2.6765    0.6513    0.9961 N.am    1  UNL1       -0.3047
     20 C           4.0765    0.5310    1.4199 C.3     1  UNL1        0.0487
     21 C           4.5355    1.8063    2.1047 C.3     1  UNL1       -0.0423
     22 C           4.9559    0.2113    0.2710 C.ar    1  UNL1        0.0087
     23 C           4.8030    0.9112   -0.9048 C.ar    1  UNL1        0.0363
     24 N           5.6030    0.6136   -1.9409 N.ar    1  UNL1       -0.2321
     25 C           6.5425   -0.3421   -1.8622 C.ar    1  UNL1        0.2339
     26 C           7.4043   -0.6367   -3.0382 C.3     1  UNL1        0.4522
     27 F           8.5256    0.1677   -2.9658 F       1  UNL1       -0.1632
     28 F           7.7541   -1.9757   -3.0157 F       1  UNL1       -0.1632
     29 F           6.7365   -0.3562   -4.2031 F       1  UNL1       -0.1632
     30 N           6.7010   -1.0311   -0.7210 N.ar    1  UNL1       -0.2321
     31 C           5.9226   -0.7673    0.3421 C.ar    1  UNL1        0.0363
     32 C          -0.1704    0.7725    0.2292 C.ar    1  UNL1       -0.0397
     33 S          -3.7435    1.8770   -1.5946 S.2     1  UNL1       -0.0725
     34 H          -4.8130    4.8001   -3.1268 H       1  UNL1        0.0283
     35 H          -5.3182    3.1490   -3.7630 H       1  UNL1        0.0283
     36 H          -4.0240    4.0786   -4.5997 H       1  UNL1        0.0283
     37 H          -1.6151    4.1635   -3.2648 H       1  UNL1        0.0838
     38 H          -3.4343   -0.0300    0.2383 H       1  UNL1        0.0661
     39 H          -4.3686   -2.8870    2.8461 H       1  UNL1        0.0756
     40 H          -5.8297   -0.9282    1.5421 H       1  UNL1        0.0266
     41 H          -5.5925   -1.0922    3.2896 H       1  UNL1        0.0266
     42 H          -4.5549    0.0295    2.3395 H       1  UNL1        0.0266
     43 H          -4.2240   -2.2638   -0.1510 H       1  UNL1        0.0627
     44 H          -2.8697   -4.0759    1.4219 H       1  UNL1        0.0256
     45 H          -3.4893   -4.4096   -0.2888 H       1  UNL1        0.0256
     46 H          -4.4790   -4.9013    1.1642 H       1  UNL1        0.0256
     47 H          -6.2816   -2.7837   -0.1848 H       1  UNL1        0.2099
     48 H          -0.2621   -1.7117    2.5139 H       1  UNL1        0.0662
     49 H           2.3995    1.3626    0.2879 H       1  UNL1        0.1496
     50 H           4.1339   -0.2736    2.1656 H       1  UNL1        0.0546
     51 H           3.7390    2.2231    2.7446 H       1  UNL1        0.0251
     52 H           4.8311    2.5938    1.3963 H       1  UNL1        0.0251
     53 H           5.3661    1.5030    2.7958 H       1  UNL1        0.0251
     54 H           4.0423    1.7021   -1.0053 H       1  UNL1        0.0834
     55 H           6.0839   -1.3467    1.2419 H       1  UNL1        0.0834
     56 H           0.4880    1.4750   -0.2757 H       1  UNL1        0.0632
@<TRIPOS>BOND
     1     1     2    1
     2     2     3   ar
     3     3     4   ar
     4     4     5   ar
     5     5     6    1
     6     6     7   ar
     7     7     8   ar
     8     8     9    1
     9     9    10    1
    10    10    11    1
    11    10    12    1
    12    12    13    1
    13    12    14    1
    14     8    15   ar
    15    15    16   ar
    16    16    17    1
    17    17    18    2
    18    17    19   am
    19    19    20    1
    20    20    21    1
    21    20    22    1
    22    22    23   ar
    23    23    24   ar
    24    24    25   ar
    25    25    26    1
    26    26    27    1
    27    26    28    1
    28    26    29    1
    29    25    30   ar
    30    30    31   ar
    31    16    32   ar
    32     5    33   ar
    33    33     2   ar
    34    32     6   ar
    35    31    22   ar
    36     1    34    1
    37     1    35    1
    38     1    36    1
    39     3    37    1
    40     7    38    1
    41    10    39    1
    42    11    40    1
    43    11    41    1
    44    11    42    1
    45    12    43    1
    46    13    44    1
    47    13    45    1
    48    13    46    1
    49    14    47    1
    50    15    48    1
    51    19    49    1
    52    20    50    1
    53    21    51    1
    54    21    52    1
    55    21    53    1
    56    23    54    1
    57    31    55    1
    58    32    56    1
