
     RDKit          3D

 50 53  0  0  0  0  0  0  0  0999 V2000
   -3.4484   -2.6345   -0.8419 C   0  0  0  0  0  0  0  0  0  0  0  0
   -2.0800   -2.3676   -0.4821 N   0  0  0  0  0  0  0  0  0  0  0  0
   -1.2084   -2.7859   -1.5461 C   0  0  0  0  0  0  0  0  0  0  0  0
    0.2358   -2.5830   -1.2647 C   0  0  0  0  0  0  0  0  0  0  0  0
    0.6020   -1.4794   -0.3570 C   0  0  1  0  0  0  0  0  0  0  0  0
    1.2525   -0.4487   -1.1377 N   0  0  0  0  0  0  0  0  0  0  0  0
    2.5889   -0.0709   -0.8611 C   0  0  0  0  0  0  0  0  0  0  0  0
    3.1853   -0.6476    0.0687 O   0  0  0  0  0  0  0  0  0  0  0  0
    3.2682    0.9406   -1.6072 N   0  0  0  0  0  0  0  0  0  0  0  0
    4.6103    1.2860   -1.2952 C   0  0  0  0  0  0  0  0  0  0  0  0
    4.9449    2.2727   -0.3904 C   0  0  0  0  0  0  0  0  0  0  0  0
    6.2548    2.5997   -0.0935 C   0  0  0  0  0  0  0  0  0  0  0  0
    7.2877    1.9375   -0.7040 C   0  0  0  0  0  0  0  0  0  0  0  0
    8.6451    2.2875   -0.3853 C   0  0  0  0  0  0  0  0  0  0  0  0
    9.7479    2.5826   -0.1078 N   0  0  0  0  0  0  0  0  0  0  0  0
    6.9844    0.9423   -1.6167 C   0  0  0  0  0  0  0  0  0  0  0  0
    5.6825    0.6286   -1.9013 C   0  0  0  0  0  0  0  0  0  0  0  0
   -0.5222   -0.8202    0.3838 C   0  0  0  0  0  0  0  0  0  0  0  0
   -1.8414   -0.9237   -0.3246 C   0  0  2  0  0  0  0  0  0  0  0  0
   -2.9120   -0.2989    0.4875 C   0  0  0  0  0  0  0  0  0  0  0  0
   -3.4597   -0.7332    1.6340 N   0  0  0  0  0  0  0  0  0  0  0  0
   -4.4048    0.1284    2.0481 C   0  0  0  0  0  0  0  0  0  0  0  0
   -5.2585    0.1656    3.1413 C   0  0  0  0  0  0  0  0  0  0  0  0
   -6.1554    1.1963    3.3267 C   0  0  0  0  0  0  0  0  0  0  0  0
   -6.1817    2.2010    2.3858 C   0  0  0  0  0  0  0  0  0  0  0  0
   -5.3550    2.2007    1.2924 C   0  0  0  0  0  0  0  0  0  0  0  0
   -4.4657    1.1697    1.1175 C   0  0  0  0  0  0  0  0  0  0  0  0
   -3.5339    0.8534    0.1915 N   0  0  0  0  0  0  0  0  0  0  0  0
   -3.6136   -2.6008   -1.9370 H   0  0  0  0  0  0  0  0  0  0  0  0
   -4.1593   -1.9746   -0.2998 H   0  0  0  0  0  0  0  0  0  0  0  0
   -3.6826   -3.6709   -0.5261 H   0  0  0  0  0  0  0  0  0  0  0  0
   -1.4806   -2.1950   -2.4466 H   0  0  0  0  0  0  0  0  0  0  0  0
   -1.4322   -3.8557   -1.8309 H   0  0  0  0  0  0  0  0  0  0  0  0
    0.8128   -2.5197   -2.2350 H   0  0  0  0  0  0  0  0  0  0  0  0
    0.6131   -3.5492   -0.8126 H   0  0  0  0  0  0  0  0  0  0  0  0
    1.3490   -1.8220    0.4091 H   0  0  0  0  0  0  0  0  0  0  0  0
    0.7756    0.0516   -1.9238 H   0  0  0  0  0  0  0  0  0  0  0  0
    2.7922    1.4398   -2.3886 H   0  0  0  0  0  0  0  0  0  0  0  0
    4.1713    2.8259    0.1191 H   0  0  0  0  0  0  0  0  0  0  0  0
    6.4917    3.3752    0.6179 H   0  0  0  0  0  0  0  0  0  0  0  0
    7.8070    0.4351   -2.0842 H   0  0  0  0  0  0  0  0  0  0  0  0
    5.4927   -0.1603   -2.6251 H   0  0  0  0  0  0  0  0  0  0  0  0
   -0.3098    0.2663    0.5889 H   0  0  0  0  0  0  0  0  0  0  0  0
   -0.6410   -1.2934    1.3810 H   0  0  0  0  0  0  0  0  0  0  0  0
   -1.7422   -0.4375   -1.3148 H   0  0  0  0  0  0  0  0  0  0  0  0
   -5.2093   -0.6363    3.8562 H   0  0  0  0  0  0  0  0  0  0  0  0
   -6.8278    1.2154    4.1974 H   0  0  0  0  0  0  0  0  0  0  0  0
   -6.8919    3.0160    2.5336 H   0  0  0  0  0  0  0  0  0  0  0  0
   -5.4055    3.0024    0.5814 H   0  0  0  0  0  0  0  0  0  0  0  0
   -3.3729    1.4884   -0.6382 H   0  0  0  0  0  0  0  0  0  0  0  0
  1  2  1  0
  2  3  1  0
  3  4  1  0
  4  5  1  0
  5  6  1  0
  6  7  1  0
  7  8  2  0
  7  9  1  0
  9 10  1  0
 10 11  2  0
 11 12  1  0
 12 13  2  0
 13 14  1  0
 14 15  3  0
 13 16  1  0
 16 17  2  0
  5 18  1  0
 18 19  1  0
 19 20  1  0
 20 21  2  0
 21 22  1  0
 22 23  2  0
 23 24  1  0
 24 25  2  0
 25 26  1  0
 26 27  2  0
 27 28  1  0
 19  2  1  0
 28 20  1  0
 17 10  1  0
 27 22  1  0
  1 29  1  0
  1 30  1  0
  1 31  1  0
  3 32  1  0
  3 33  1  0
  4 34  1  0
  4 35  1  0
  5 36  1  1
  6 37  1  0
  9 38  1  0
 11 39  1  0
 12 40  1  0
 16 41  1  0
 17 42  1  0
 18 43  1  0
 18 44  1  0
 19 45  1  6
 23 46  1  0
 24 47  1  0
 25 48  1  0
 26 49  1  0
 28 50  1  0
M  END
$$$$
