@<TRIPOS>MOLECULE
*****
 50 53 0 0 0
SMALL
GASTEIGER

@<TRIPOS>ATOM
      1 C          -3.4484   -2.6345   -0.8419 C.3     1  UNL1       -0.0121
      2 N          -2.0800   -2.3676   -0.4821 N.3     1  UNL1       -0.2957
      3 C          -1.2084   -2.7859   -1.5461 C.3     1  UNL1        0.0010
      4 C           0.2358   -2.5830   -1.2647 C.3     1  UNL1       -0.0216
      5 C           0.6020   -1.4794   -0.3570 C.3     1  UNL1        0.0276
      6 N           1.2525   -0.4487   -1.1377 N.am    1  UNL1       -0.2962
      7 C           2.5889   -0.0709   -0.8611 C.2     1  UNL1        0.3041
      8 O           3.1853   -0.6476    0.0687 O.2     1  UNL1       -0.2525
      9 N           3.2682    0.9406   -1.6072 N.am    1  UNL1       -0.2695
     10 C           4.6103    1.2860   -1.2952 C.ar    1  UNL1        0.0348
     11 C           4.9449    2.2727   -0.3904 C.ar    1  UNL1       -0.0392
     12 C           6.2548    2.5997   -0.0935 C.ar    1  UNL1       -0.0426
     13 C           7.2877    1.9375   -0.7040 C.ar    1  UNL1        0.0519
     14 C           8.6451    2.2875   -0.3853 C.1     1  UNL1        0.0992
     15 N           9.7479    2.5826   -0.1078 N.1     1  UNL1       -0.1909
     16 C           6.9844    0.9423   -1.6167 C.ar    1  UNL1       -0.0426
     17 C           5.6825    0.6286   -1.9013 C.ar    1  UNL1       -0.0392
     18 C          -0.5222   -0.8202    0.3838 C.3     1  UNL1       -0.0117
     19 C          -1.8414   -0.9237   -0.3246 C.3     1  UNL1        0.0700
     20 C          -2.9120   -0.2989    0.4875 C.ar    1  UNL1        0.1255
     21 N          -3.4597   -0.7332    1.6340 N.ar    1  UNL1       -0.2309
     22 C          -4.4048    0.1284    2.0481 C.ar    1  UNL1        0.0892
     23 C          -5.2585    0.1656    3.1413 C.ar    1  UNL1       -0.0342
     24 C          -6.1554    1.1963    3.3267 C.ar    1  UNL1       -0.0596
     25 C          -6.1817    2.2010    2.3858 C.ar    1  UNL1       -0.0597
     26 C          -5.3550    2.2007    1.2924 C.ar    1  UNL1       -0.0363
     27 C          -4.4657    1.1697    1.1175 C.ar    1  UNL1        0.0662
     28 N          -3.5339    0.8534    0.1915 N.ar    1  UNL1       -0.3405
     29 H          -3.6136   -2.6008   -1.9370 H       1  UNL1        0.0391
     30 H          -4.1593   -1.9746   -0.2998 H       1  UNL1        0.0391
     31 H          -3.6826   -3.6709   -0.5261 H       1  UNL1        0.0391
     32 H          -1.4806   -2.1950   -2.4466 H       1  UNL1        0.0427
     33 H          -1.4322   -3.8557   -1.8309 H       1  UNL1        0.0427
     34 H           0.8128   -2.5197   -2.2350 H       1  UNL1        0.0295
     35 H           0.6131   -3.5492   -0.8126 H       1  UNL1        0.0295
     36 H           1.3490   -1.8220    0.4091 H       1  UNL1        0.0500
     37 H           0.7756    0.0516   -1.9238 H       1  UNL1        0.1505
     38 H           2.7922    1.4398   -2.3886 H       1  UNL1        0.1564
     39 H           4.1713    2.8259    0.1191 H       1  UNL1        0.0636
     40 H           6.4917    3.3752    0.6179 H       1  UNL1        0.0631
     41 H           7.8070    0.4351   -2.0842 H       1  UNL1        0.0631
     42 H           5.4927   -0.1603   -2.6251 H       1  UNL1        0.0636
     43 H          -0.3098    0.2663    0.5889 H       1  UNL1        0.0302
     44 H          -0.6410   -1.2934    1.3810 H       1  UNL1        0.0302
     45 H          -1.7422   -0.4375   -1.3148 H       1  UNL1        0.0543
     46 H          -5.2093   -0.6363    3.8562 H       1  UNL1        0.0639
     47 H          -6.8278    1.2154    4.1974 H       1  UNL1        0.0618
     48 H          -6.8919    3.0160    2.5336 H       1  UNL1        0.0618
     49 H          -5.4055    3.0024    0.5814 H       1  UNL1        0.0639
     50 H          -3.3729    1.4884   -0.6382 H       1  UNL1        0.1671
@<TRIPOS>BOND
     1     1     2    1
     2     2     3    1
     3     3     4    1
     4     4     5    1
     5     5     6    1
     6     6     7   am
     7     7     8    2
     8     7     9   am
     9     9    10    1
    10    10    11   ar
    11    11    12   ar
    12    12    13   ar
    13    13    14    1
    14    14    15    3
    15    13    16   ar
    16    16    17   ar
    17     5    18    1
    18    18    19    1
    19    19    20    1
    20    20    21   ar
    21    21    22   ar
    22    22    23   ar
    23    23    24   ar
    24    24    25   ar
    25    25    26   ar
    26    26    27   ar
    27    27    28   ar
    28    19     2    1
    29    28    20   ar
    30    17    10   ar
    31    27    22   ar
    32     1    29    1
    33     1    30    1
    34     1    31    1
    35     3    32    1
    36     3    33    1
    37     4    34    1
    38     4    35    1
    39     5    36    1
    40     6    37    1
    41     9    38    1
    42    11    39    1
    43    12    40    1
    44    16    41    1
    45    17    42    1
    46    18    43    1
    47    18    44    1
    48    19    45    1
    49    23    46    1
    50    24    47    1
    51    25    48    1
    52    26    49    1
    53    28    50    1
