@<TRIPOS>MOLECULE
*****
 56 60 0 0 0
SMALL
GASTEIGER

@<TRIPOS>ATOM
      1 C          -2.6300   -1.1031    1.5284 C.3     1  UNL1       -0.0134
      2 S          -3.4213   -1.9130    0.1005 S.3     1  UNL1       -0.1268
      3 C          -4.3385   -0.6566   -0.7798 C.ar    1  UNL1        0.0288
      4 C          -5.6790   -0.4006   -0.4530 C.ar    1  UNL1       -0.0465
      5 C          -6.3826    0.5603   -1.1157 C.ar    1  UNL1       -0.0606
      6 C          -5.7614    1.2787   -2.1121 C.ar    1  UNL1       -0.0599
      7 C          -4.4276    1.0328   -2.4467 C.ar    1  UNL1       -0.0394
      8 C          -3.6996    0.0470   -1.7696 C.ar    1  UNL1        0.0460
      9 N          -2.3701   -0.2104   -2.1082 N.pl3   1  UNL1       -0.2967
     10 C          -1.2486   -0.0823   -1.2580 C.ar    1  UNL1        0.1544
     11 N          -1.0133    1.0791   -0.6294 N.ar    1  UNL1       -0.1970
     12 C           0.0398    1.2617    0.2019 C.ar    1  UNL1        0.2203
     13 N           0.2839    2.5081    0.8377 N.pl3   1  UNL1       -0.2972
     14 C          -0.3487    3.6919    0.3067 C.3     1  UNL1        0.0274
     15 C           0.6436    4.8276    0.1531 C.3     1  UNL1        0.0118
     16 N           1.2801    5.0427    1.4177 N.3     1  UNL1       -0.3130
     17 C           1.9939    3.8805    1.8590 C.3     1  UNL1        0.0118
     18 C           1.1288    2.6471    1.9870 C.3     1  UNL1        0.0274
     19 N           0.8570    0.1986    0.3714 N.ar    1  UNL1       -0.2092
     20 C           0.6480   -0.9743   -0.2435 C.ar    1  UNL1        0.1357
     21 C           1.5199   -2.0382   -0.0383 C.ar    1  UNL1        0.1484
     22 N           2.6280   -1.8283    0.8282 N.pl3   1  UNL1       -0.3270
     23 C           3.5714   -2.8819    1.0973 C.3     1  UNL1        0.0133
     24 C           4.2325   -3.3412   -0.1621 C.3     1  UNL1       -0.0255
     25 C           5.2466   -4.4468    0.0944 C.3     1  UNL1       -0.0485
     26 C           5.6935   -3.1030   -0.4036 C.3     1  UNL1       -0.0485
     27 N           1.3005   -3.1942   -0.6544 N.ar    1  UNL1       -0.2187
     28 C           0.2454   -3.3436   -1.4745 C.ar    1  UNL1        0.1190
     29 N          -0.6303   -2.3494   -1.7113 N.ar    1  UNL1       -0.2303
     30 C          -0.4192   -1.1671   -1.0892 C.ar    1  UNL1        0.1343
     31 H          -2.6872   -0.0006    1.4305 H       1  UNL1        0.0344
     32 H          -3.2052   -1.4674    2.4233 H       1  UNL1        0.0344
     33 H          -1.5629   -1.4253    1.6156 H       1  UNL1        0.0344
     34 H          -6.1350   -1.0022    0.3505 H       1  UNL1        0.0629
     35 H          -7.4150    0.7361   -0.8423 H       1  UNL1        0.0618
     36 H          -6.3541    2.0315   -2.6128 H       1  UNL1        0.0618
     37 H          -3.9560    1.6090   -3.2314 H       1  UNL1        0.0636
     38 H          -2.1566   -0.5320   -3.0879 H       1  UNL1        0.1537
     39 H          -0.8032    3.4929   -0.6804 H       1  UNL1        0.0477
     40 H          -1.1244    4.0163    1.0105 H       1  UNL1        0.0477
     41 H           0.0640    5.7237   -0.1464 H       1  UNL1        0.0439
     42 H           1.3771    4.5657   -0.6508 H       1  UNL1        0.0439
     43 H           0.5731    5.3755    2.0976 H       1  UNL1        0.1220
     44 H           2.8321    3.6951    1.1416 H       1  UNL1        0.0439
     45 H           2.4582    4.0970    2.8456 H       1  UNL1        0.0439
     46 H           1.7912    1.7566    2.0347 H       1  UNL1        0.0477
     47 H           0.5035    2.7548    2.8876 H       1  UNL1        0.0477
     48 H           2.7648   -0.8937    1.2784 H       1  UNL1        0.1475
     49 H           3.0673   -3.7667    1.5844 H       1  UNL1        0.0464
     50 H           4.3115   -2.5490    1.8573 H       1  UNL1        0.0464
     51 H           3.6066   -3.4784   -1.0575 H       1  UNL1        0.0316
     52 H           5.2653   -5.3214   -0.5721 H       1  UNL1        0.0269
     53 H           5.5498   -4.6710    1.1482 H       1  UNL1        0.0269
     54 H           6.1946   -2.3858    0.2851 H       1  UNL1        0.0269
     55 H           6.0610   -3.1045   -1.4502 H       1  UNL1        0.0269
     56 H           0.0371   -4.2779   -1.9930 H       1  UNL1        0.1048
@<TRIPOS>BOND
     1     1     2    1
     2     2     3    1
     3     3     4   ar
     4     4     5   ar
     5     5     6   ar
     6     6     7   ar
     7     7     8   ar
     8     8     9    1
     9     9    10    1
    10    10    11   ar
    11    11    12   ar
    12    12    13    1
    13    13    14    1
    14    14    15    1
    15    15    16    1
    16    16    17    1
    17    17    18    1
    18    12    19   ar
    19    19    20   ar
    20    20    21   ar
    21    21    22    1
    22    22    23    1
    23    23    24    1
    24    24    25    1
    25    25    26    1
    26    21    27   ar
    27    27    28   ar
    28    28    29   ar
    29    29    30   ar
    30     8     3   ar
    31    30    10   ar
    32    18    13    1
    33    30    20   ar
    34    26    24    1
    35     1    31    1
    36     1    32    1
    37     1    33    1
    38     4    34    1
    39     5    35    1
    40     6    36    1
    41     7    37    1
    42     9    38    1
    43    14    39    1
    44    14    40    1
    45    15    41    1
    46    15    42    1
    47    16    43    1
    48    17    44    1
    49    17    45    1
    50    18    46    1
    51    18    47    1
    52    22    48    1
    53    23    49    1
    54    23    50    1
    55    24    51    1
    56    25    52    1
    57    25    53    1
    58    26    54    1
    59    26    55    1
    60    28    56    1
