
     RDKit          3D

 26 28  0  0  0  0  0  0  0  0999 V2000
   -3.7593    1.6775    0.3934 F   0  0  0  0  0  0  0  0  0  0  0  0
   -2.6980    0.8800    0.7108 C   0  0  0  0  0  0  0  0  0  0  0  0
   -2.7756    0.0833    1.8581 C   0  0  0  0  0  0  0  0  0  0  0  0
   -1.6742   -0.6820    2.1022 C   0  0  0  0  0  0  0  0  0  0  0  0
   -0.5275   -0.7343    1.3368 C   0  0  0  0  0  0  0  0  0  0  0  0
    0.5619   -1.5393    1.6438 O   0  0  0  0  0  0  0  0  0  0  0  0
    1.3196   -2.1403    0.6092 C   0  0  0  0  0  0  0  0  0  0  0  0
    1.2271   -1.4410   -0.7013 C   0  0  0  0  0  0  0  0  0  0  0  0
    0.7629   -0.0121   -0.5936 C   0  0  1  0  0  0  0  0  0  0  0  0
    1.7463    0.8924   -0.0630 N   0  0  0  0  0  0  0  0  0  0  0  0
    1.7052    2.0977   -0.8229 C   0  0  0  0  0  0  0  0  0  0  0  0
    2.2113    3.2207   -0.5383 O   0  0  0  0  0  0  0  0  0  0  0  0
    0.9670    1.8147   -2.0082 N   0  0  0  0  0  0  0  0  0  0  0  0
    0.5527    0.4554   -1.9912 C   0  0  0  0  0  0  0  0  0  0  0  0
    0.1070   -0.1694   -2.9907 O   0  0  0  0  0  0  0  0  0  0  0  0
   -0.4848    0.0730    0.2002 C   0  0  0  0  0  0  0  0  0  0  0  0
   -1.5738    0.8799   -0.1097 C   0  0  0  0  0  0  0  0  0  0  0  0
   -3.6405    0.0721    2.5048 H   0  0  0  0  0  0  0  0  0  0  0  0
   -1.7289   -1.3104    3.0024 H   0  0  0  0  0  0  0  0  0  0  0  0
    0.9339   -3.1747    0.4948 H   0  0  0  0  0  0  0  0  0  0  0  0
    2.3740   -2.2618    0.9660 H   0  0  0  0  0  0  0  0  0  0  0  0
    2.2206   -1.4673   -1.1932 H   0  0  0  0  0  0  0  0  0  0  0  0
    0.4933   -1.9598   -1.3522 H   0  0  0  0  0  0  0  0  0  0  0  0
    2.4270    0.7983    0.7315 H   0  0  0  0  0  0  0  0  0  0  0  0
    0.7401    2.4724   -2.7956 H   0  0  0  0  0  0  0  0  0  0  0  0
   -1.4873    1.4748   -0.9874 H   0  0  0  0  0  0  0  0  0  0  0  0
  1  2  1  0
  2  3  2  0
  3  4  1  0
  4  5  2  0
  5  6  1  0
  6  7  1  0
  7  8  1  0
  8  9  1  0
  9 10  1  1
 10 11  1  0
 11 12  2  0
 11 13  1  0
 13 14  1  0
 14 15  2  0
  9 16  1  0
 16 17  2  0
 17  2  1  0
 16  5  1  0
 14  9  1  0
  3 18  1  0
  4 19  1  0
  7 20  1  0
  7 21  1  0
  8 22  1  0
  8 23  1  0
 10 24  1  0
 13 25  1  0
 17 26  1  0
M  END
$$$$
