@<TRIPOS>MOLECULE
*****
 26 28 0 0 0
SMALL
GASTEIGER

@<TRIPOS>ATOM
      1 F          -3.7593    1.6775    0.3934 F       1  UNL1       -0.2055
      2 C          -2.6980    0.8800    0.7108 C.ar    1  UNL1        0.1240
      3 C          -2.7756    0.0833    1.8581 C.ar    1  UNL1       -0.0230
      4 C          -1.6742   -0.6820    2.1022 C.ar    1  UNL1       -0.0169
      5 C          -0.5275   -0.7343    1.3368 C.ar    1  UNL1        0.1263
      6 O           0.5619   -1.5393    1.6438 O.3     1  UNL1       -0.4915
      7 C           1.3196   -2.1403    0.6092 C.3     1  UNL1        0.0923
      8 C           1.2271   -1.4410   -0.7013 C.3     1  UNL1        0.0157
      9 C           0.7629   -0.0121   -0.5936 C.3     1  UNL1        0.1442
     10 N           1.7463    0.8924   -0.0630 N.am    1  UNL1       -0.2811
     11 C           1.7052    2.0977   -0.8229 C.2     1  UNL1        0.3070
     12 O           2.2113    3.2207   -0.5383 O.2     1  UNL1       -0.2524
     13 N           0.9670    1.8147   -2.0082 N.am    1  UNL1       -0.2381
     14 C           0.5527    0.4554   -1.9912 C.2     1  UNL1        0.2487
     15 O           0.1070   -0.1694   -2.9907 O.2     1  UNL1       -0.2726
     16 C          -0.4848    0.0730    0.2002 C.ar    1  UNL1        0.0292
     17 C          -1.5738    0.8799   -0.1097 C.ar    1  UNL1       -0.0173
     18 H          -3.6405    0.0721    2.5048 H       1  UNL1        0.0647
     19 H          -1.7289   -1.3104    3.0024 H       1  UNL1        0.0655
     20 H           0.9339   -3.1747    0.4948 H       1  UNL1        0.0697
     21 H           2.3740   -2.2618    0.9660 H       1  UNL1        0.0697
     22 H           2.2206   -1.4673   -1.1932 H       1  UNL1        0.0327
     23 H           0.4933   -1.9598   -1.3522 H       1  UNL1        0.0327
     24 H           2.4270    0.7983    0.7315 H       1  UNL1        0.1516
     25 H           0.7401    2.4724   -2.7956 H       1  UNL1        0.1591
     26 H          -1.4873    1.4748   -0.9874 H       1  UNL1        0.0651
@<TRIPOS>BOND
     1     1     2    1
     2     2     3   ar
     3     3     4   ar
     4     4     5   ar
     5     5     6    1
     6     6     7    1
     7     7     8    1
     8     8     9    1
     9     9    10    1
    10    10    11   am
    11    11    12    2
    12    11    13   am
    13    13    14   am
    14    14    15    2
    15     9    16    1
    16    16    17   ar
    17    17     2   ar
    18    16     5   ar
    19    14     9    1
    20     3    18    1
    21     4    19    1
    22     7    20    1
    23     7    21    1
    24     8    22    1
    25     8    23    1
    26    10    24    1
    27    13    25    1
    28    17    26    1
