@<TRIPOS>MOLECULE
*****
 28 29 0 0 0
SMALL
GASTEIGER

@<TRIPOS>ATOM
      1 N           5.2227   -1.5642   -2.4819 N.1     1  UNL1       -0.1908
      2 C           4.3788   -1.4118   -1.7127 C.1     1  UNL1        0.1004
      3 C           3.3231   -1.2462   -0.7489 C.ar    1  UNL1        0.0692
      4 C           2.8681   -2.2580    0.0594 C.ar    1  UNL1       -0.0421
      5 C           1.8528   -2.0556    0.9706 C.ar    1  UNL1       -0.0470
      6 C           1.2426   -0.7897    1.1022 C.ar    1  UNL1        0.0095
      7 S          -0.0185   -0.6060    2.3195 S.3     1  UNL1       -0.1205
      8 C          -1.0163    0.8579    2.2317 C.3     1  UNL1        0.0234
      9 C          -1.9134    0.8100    1.0628 C.ar    1  UNL1       -0.0372
     10 C          -3.1360    0.1210    1.1265 C.ar    1  UNL1       -0.0567
     11 C          -4.0195    0.0388    0.0958 C.ar    1  UNL1       -0.0475
     12 C          -3.7195    0.6662   -1.1074 C.ar    1  UNL1        0.0179
     13 BR         -4.8872    0.5836   -2.5834 Br      1  UNL1       -0.0503
     14 C          -2.5405    1.3448   -1.2017 C.ar    1  UNL1       -0.0475
     15 C          -1.6526    1.4160   -0.1340 C.ar    1  UNL1       -0.0567
     16 C           1.7222    0.1960    0.2809 C.ar    1  UNL1       -0.0297
     17 C           2.7481    0.0083   -0.6458 C.ar    1  UNL1        0.0701
     18 C           3.1799    1.1241   -1.4562 C.1     1  UNL1        0.1005
     19 N           3.5383    2.0207   -2.1315 N.1     1  UNL1       -0.1908
     20 H           3.3304   -3.2465   -0.0298 H       1  UNL1        0.0631
     21 H           1.5411   -2.8770    1.5714 H       1  UNL1        0.0629
     22 H          -1.6187    0.9403    3.1893 H       1  UNL1        0.0428
     23 H          -0.3662    1.7750    2.2225 H       1  UNL1        0.0428
     24 H          -3.3708   -0.3705    2.0715 H       1  UNL1        0.0621
     25 H          -4.9722   -0.4903    0.1298 H       1  UNL1        0.0629
     26 H          -2.2639    1.8473   -2.1158 H       1  UNL1        0.0629
     27 H          -0.7293    1.9924   -0.2642 H       1  UNL1        0.0621
     28 H           1.2765    1.1733    0.3909 H       1  UNL1        0.0642
@<TRIPOS>BOND
     1     1     2    3
     2     2     3    1
     3     3     4   ar
     4     4     5   ar
     5     5     6   ar
     6     6     7    1
     7     7     8    1
     8     8     9    1
     9     9    10   ar
    10    10    11   ar
    11    11    12   ar
    12    12    13    1
    13    12    14   ar
    14    14    15   ar
    15     6    16   ar
    16    16    17   ar
    17    17    18    1
    18    18    19    3
    19    17     3   ar
    20    15     9   ar
    21     4    20    1
    22     5    21    1
    23     8    22    1
    24     8    23    1
    25    10    24    1
    26    11    25    1
    27    14    26    1
    28    15    27    1
    29    16    28    1
