@<TRIPOS>MOLECULE
*****
 55 58 0 0 0
SMALL
GASTEIGER

@<TRIPOS>ATOM
      1 O           4.2284   -2.4504   -0.6790 O.2     1  UNL1       -0.2685
      2 C           4.7423   -1.3287   -0.4511 C.2     1  UNL1        0.2640
      3 N           4.0944   -0.1026   -0.7644 N.am    1  UNL1       -0.3073
      4 C           2.8073   -0.0290   -1.3523 C.3     1  UNL1        0.0409
      5 C           1.6523   -0.5765   -0.5671 C.3     1  UNL1        0.0843
      6 O           1.8330   -1.9222   -0.3241 O.3     1  UNL1       -0.3869
      7 C           1.5603    0.1117    0.7661 C.3     1  UNL1       -0.0066
      8 C           0.4642    1.1340    0.8407 C.3     1  UNL1        0.0175
      9 N          -0.7935    0.6770    0.3710 N.pl3   1  UNL1       -0.2994
     10 C          -1.9850    1.2936    0.8092 C.ar    1  UNL1        0.2214
     11 N          -3.1878    0.8607    0.3638 N.ar    1  UNL1       -0.1790
     12 C          -4.3591    1.4003    0.7390 C.ar    1  UNL1        0.2254
     13 O          -5.5870    0.9396    0.2685 O.3     1  UNL1       -0.4378
     14 C          -5.5669   -0.1219   -0.6234 C.ar    1  UNL1        0.1331
     15 C          -5.6177   -1.4424   -0.1916 C.ar    1  UNL1       -0.0191
     16 C          -5.5936   -2.4451   -1.1388 C.ar    1  UNL1       -0.0556
     17 C          -5.5210   -2.1404   -2.4789 C.ar    1  UNL1       -0.0262
     18 C          -5.4721   -0.8269   -2.8754 C.ar    1  UNL1        0.1269
     19 F          -5.4002   -0.5583   -4.2139 F       1  UNL1       -0.2054
     20 C          -5.4939    0.1948   -1.9651 C.ar    1  UNL1        0.0160
     21 C          -4.2864    2.4605    1.6360 C.ar    1  UNL1        0.0305
     22 C          -3.0733    2.9109    2.0969 C.ar    1  UNL1        0.1522
     23 C          -2.9771    4.0515    3.0641 C.3     1  UNL1        0.4345
     24 F          -2.7163    5.2237    2.4189 F       1  UNL1       -0.1644
     25 F          -4.2013    4.1079    3.7317 F       1  UNL1       -0.1644
     26 F          -1.9425    3.8123    3.9528 F       1  UNL1       -0.1644
     27 N          -1.9446    2.3253    1.6802 N.ar    1  UNL1       -0.2101
     28 C          -0.8547   -0.4183   -0.5543 C.3     1  UNL1        0.0175
     29 C           0.3862   -0.4611   -1.3791 C.3     1  UNL1       -0.0066
     30 C           6.0723   -1.3211    0.1673 C.ar    1  UNL1        0.1433
     31 C           6.6829   -2.5171    0.4628 C.ar    1  UNL1        0.0580
     32 N           7.8959   -2.5979    1.0277 N.ar    1  UNL1       -0.2595
     33 C           8.5470   -1.4573    1.3194 C.ar    1  UNL1        0.0457
     34 C           7.9565   -0.2483    1.0332 C.ar    1  UNL1        0.0465
     35 N           6.7385   -0.2028    0.4664 N.ar    1  UNL1       -0.2473
     36 H           4.6655    0.7690   -0.5168 H       1  UNL1        0.1492
     37 H           2.7905   -0.5357   -2.3720 H       1  UNL1        0.0490
     38 H           2.6105    1.0604   -1.6063 H       1  UNL1        0.0490
     39 H           1.0026   -2.4489   -0.4381 H       1  UNL1        0.2102
     40 H           1.4435   -0.6177    1.5874 H       1  UNL1        0.0309
     41 H           2.5202    0.6379    0.9404 H       1  UNL1        0.0309
     42 H           0.3525    1.4459    1.8995 H       1  UNL1        0.0465
     43 H           0.7244    2.0750    0.2854 H       1  UNL1        0.0465
     44 H          -5.6736   -1.6170    0.8666 H       1  UNL1        0.0654
     45 H          -5.6336   -3.4656   -0.7902 H       1  UNL1        0.0620
     46 H          -5.5031   -2.9504   -3.2134 H       1  UNL1        0.0646
     47 H          -5.4533    1.2166   -2.3251 H       1  UNL1        0.0683
     48 H          -5.2093    2.9228    1.9629 H       1  UNL1        0.0692
     49 H          -0.9889   -1.3930   -0.0356 H       1  UNL1        0.0465
     50 H          -1.7073   -0.2409   -1.2586 H       1  UNL1        0.0465
     51 H           0.2822   -1.3049   -2.1000 H       1  UNL1        0.0309
     52 H           0.4314    0.4638   -1.9909 H       1  UNL1        0.0309
     53 H           6.1952   -3.4695    0.2452 H       1  UNL1        0.0853
     54 H           9.5402   -1.5213    1.7819 H       1  UNL1        0.0845
     55 H           8.5230    0.6377    1.2879 H       1  UNL1        0.0845
@<TRIPOS>BOND
     1     1     2    2
     2     2     3   am
     3     3     4    1
     4     4     5    1
     5     5     6    1
     6     5     7    1
     7     7     8    1
     8     8     9    1
     9     9    10    1
    10    10    11   ar
    11    11    12   ar
    12    12    13    1
    13    13    14    1
    14    14    15   ar
    15    15    16   ar
    16    16    17   ar
    17    17    18   ar
    18    18    19    1
    19    18    20   ar
    20    12    21   ar
    21    21    22   ar
    22    22    23    1
    23    23    24    1
    24    23    25    1
    25    23    26    1
    26    22    27   ar
    27     9    28    1
    28    28    29    1
    29     2    30    1
    30    30    31   ar
    31    31    32   ar
    32    32    33   ar
    33    33    34   ar
    34    34    35   ar
    35    29     5    1
    36    35    30   ar
    37    27    10   ar
    38    20    14   ar
    39     3    36    1
    40     4    37    1
    41     4    38    1
    42     6    39    1
    43     7    40    1
    44     7    41    1
    45     8    42    1
    46     8    43    1
    47    15    44    1
    48    16    45    1
    49    17    46    1
    50    20    47    1
    51    21    48    1
    52    28    49    1
    53    28    50    1
    54    29    51    1
    55    29    52    1
    56    31    53    1
    57    33    54    1
    58    34    55    1
