@<TRIPOS>MOLECULE
*****
 50 53 0 0 0
SMALL
GASTEIGER

@<TRIPOS>ATOM
      1 C           3.4221    1.5581    1.4060 C.3     1  UNL1       -0.0455
      2 C           2.5626    0.3078    1.2281 C.3     1  UNL1        0.0884
      3 C           2.7173   -0.4716    2.5331 C.3     1  UNL1       -0.0455
      4 C           1.1725    0.7574    1.0340 C.2     1  UNL1        0.3177
      5 O           0.9064    1.9871    1.0395 O.2     1  UNL1       -0.2498
      6 O           0.0835   -0.0738    0.8384 O.3     1  UNL1       -0.4572
      7 C          -1.2400    0.2988    0.6563 C.3     1  UNL1        0.1164
      8 C          -1.7553    1.0660    1.8513 C.3     1  UNL1       -0.0243
      9 C          -2.0636   -0.9636    0.5296 C.3     1  UNL1       -0.0005
     10 C          -1.8273   -1.6881   -0.7824 C.3     1  UNL1       -0.0437
     11 C          -2.2077   -0.7682   -1.9230 C.3     1  UNL1       -0.0400
     12 C          -3.6711   -0.3854   -1.8334 C.3     1  UNL1       -0.0473
     13 C          -3.8587    0.3358   -0.4899 C.3     1  UNL1       -0.0400
     14 C          -3.5506   -0.6641    0.5699 C.3     1  UNL1       -0.0437
     15 C          -2.9685    1.5338   -0.5267 C.3     1  UNL1       -0.0437
     16 C          -1.4913    1.1465   -0.5540 C.3     1  UNL1       -0.0005
     17 C          -1.2976    0.4201   -1.8635 C.3     1  UNL1       -0.0437
     18 C           3.1245   -0.4625    0.1164 C.ar    1  UNL1       -0.0130
     19 C           4.3834   -0.1909   -0.3570 C.ar    1  UNL1       -0.0547
     20 C           4.9367   -0.9200   -1.4159 C.ar    1  UNL1       -0.0433
     21 C           4.1778   -1.9265   -1.9758 C.ar    1  UNL1        0.0276
     22 N           2.9439   -2.1919   -1.5109 N.ar    1  UNL1       -0.2630
     23 C           2.4117   -1.4757   -0.4773 C.ar    1  UNL1        0.0318
     24 H           3.6023    2.0431    0.4090 H       1  UNL1        0.0243
     25 H           4.3622    1.3132    1.9256 H       1  UNL1        0.0243
     26 H           2.8469    2.2706    2.0202 H       1  UNL1        0.0243
     27 H           2.9975    0.2099    3.3744 H       1  UNL1        0.0243
     28 H           3.5042   -1.2321    2.4383 H       1  UNL1        0.0243
     29 H           1.7494   -0.9371    2.8350 H       1  UNL1        0.0243
     30 H          -2.8526    1.1682    1.8769 H       1  UNL1        0.0268
     31 H          -1.2544    2.0575    1.8572 H       1  UNL1        0.0268
     32 H          -1.4237    0.5300    2.7590 H       1  UNL1        0.0268
     33 H          -1.7909   -1.6890    1.3379 H       1  UNL1        0.0339
     34 H          -2.5493   -2.5278   -0.8039 H       1  UNL1        0.0272
     35 H          -0.7909   -1.9906   -0.9233 H       1  UNL1        0.0272
     36 H          -2.0606   -1.3147   -2.8774 H       1  UNL1        0.0301
     37 H          -4.2558   -1.3198   -1.8721 H       1  UNL1        0.0271
     38 H          -3.9083    0.3385   -2.6144 H       1  UNL1        0.0271
     39 H          -4.9015    0.6973   -0.3859 H       1  UNL1        0.0301
     40 H          -4.0327   -1.6310    0.2258 H       1  UNL1        0.0272
     41 H          -3.9574   -0.4901    1.5590 H       1  UNL1        0.0272
     42 H          -3.1901    2.3038    0.2168 H       1  UNL1        0.0272
     43 H          -3.1400    2.0245   -1.5317 H       1  UNL1        0.0272
     44 H          -0.9269    2.0882   -0.5752 H       1  UNL1        0.0339
     45 H          -0.2635    0.0581   -1.9993 H       1  UNL1        0.0272
     46 H          -1.5892    1.1304   -2.6648 H       1  UNL1        0.0272
     47 H           5.0160    0.5939    0.0555 H       1  UNL1        0.0622
     48 H           5.9111   -0.7354   -1.8080 H       1  UNL1        0.0633
     49 H           4.5499   -2.5312   -2.8028 H       1  UNL1        0.0829
     50 H           1.4375   -1.7029   -0.1243 H       1  UNL1        0.0832
@<TRIPOS>BOND
     1     1     2    1
     2     2     3    1
     3     2     4    1
     4     4     5    2
     5     4     6    1
     6     6     7    1
     7     7     8    1
     8     7     9    1
     9     9    10    1
    10    10    11    1
    11    11    12    1
    12    12    13    1
    13    13    14    1
    14    13    15    1
    15    15    16    1
    16    16    17    1
    17     2    18    1
    18    18    19   ar
    19    19    20   ar
    20    20    21   ar
    21    21    22   ar
    22    22    23   ar
    23    16     7    1
    24    23    18   ar
    25    14     9    1
    26    17    11    1
    27     1    24    1
    28     1    25    1
    29     1    26    1
    30     3    27    1
    31     3    28    1
    32     3    29    1
    33     8    30    1
    34     8    31    1
    35     8    32    1
    36     9    33    1
    37    10    34    1
    38    10    35    1
    39    11    36    1
    40    12    37    1
    41    12    38    1
    42    13    39    1
    43    14    40    1
    44    14    41    1
    45    15    42    1
    46    15    43    1
    47    16    44    1
    48    17    45    1
    49    17    46    1
    50    19    47    1
    51    20    48    1
    52    21    49    1
    53    23    50    1
