
     RDKit          3D

 72 76  0  0  0  0  0  0  0  0999 V2000
    7.5254   -3.0875    0.7528 C   0  0  0  0  0  0  0  0  0  0  0  0
    7.8710   -2.2788   -0.4690 C   0  0  0  0  0  0  0  0  0  0  0  0
    8.0152   -0.8371   -0.1884 C   0  0  0  0  0  0  0  0  0  0  0  0
    9.1695   -0.1679   -0.0957 N   0  0  0  0  0  0  0  0  0  0  0  0
    8.9809    1.0943    0.1588 N   0  0  0  0  0  0  0  0  0  0  0  0
   10.0004    2.1132    0.3243 C   0  0  0  0  0  0  0  0  0  0  0  0
    7.6359    1.2649    0.2378 C   0  0  0  0  0  0  0  0  0  0  0  0
    6.9814    0.0774    0.0265 C   0  0  0  0  0  0  0  0  0  0  0  0
    5.6013   -0.2244    0.0151 N   0  0  0  0  0  0  0  0  0  0  0  0
    4.5611    0.7157    0.2300 C   0  0  0  0  0  0  0  0  0  0  0  0
    4.8723    1.9923    0.4697 N   0  0  0  0  0  0  0  0  0  0  0  0
    3.9251    2.9436    0.6780 C   0  0  0  0  0  0  0  0  0  0  0  0
    2.5907    2.5254    0.6309 C   0  0  0  0  0  0  0  0  0  0  0  0
    1.5141    3.5096    0.8501 C   0  0  0  0  0  0  0  0  0  0  0  0
    2.2610    1.2125    0.3848 C   0  0  0  0  0  0  0  0  0  0  0  0
    0.8624    0.8028    0.3395 C   0  0  0  0  0  0  0  0  0  0  0  0
   -0.1542    1.0149    1.2516 C   0  0  0  0  0  0  0  0  0  0  0  0
   -1.2935    0.4402    0.7650 N   0  0  0  0  0  0  0  0  0  0  0  0
   -1.0496   -0.1301   -0.4185 C   0  0  0  0  0  0  0  0  0  0  0  0
   -1.9092   -0.8225   -1.2591 C   0  0  0  0  0  0  0  0  0  0  0  0
   -3.2647   -1.0012   -0.9179 N   0  0  0  0  0  0  0  0  0  0  0  0
   -4.2620   -1.7085   -1.5967 C   0  0  0  0  0  0  0  0  0  0  0  0
   -3.9711   -2.2916   -2.6632 O   0  0  0  0  0  0  0  0  0  0  0  0
   -5.6730   -1.8144   -1.1221 C   0  0  1  0  0  0  0  0  0  0  0  0
   -5.9362   -3.2737   -0.8097 C   0  0  0  0  0  0  0  0  0  0  0  0
   -5.9838   -1.0425    0.0137 N   0  0  0  0  0  0  0  0  0  0  0  0
   -5.8511    0.3790   -0.1454 C   0  0  0  0  0  0  0  0  0  0  0  0
   -7.2855    0.9030   -0.3059 C   0  0  0  0  0  0  0  0  0  0  0  0
   -7.9085    0.7980    0.9846 N   0  0  0  0  0  0  0  0  0  0  0  0
   -7.5225    1.9881    1.7411 C   0  0  0  0  0  0  0  0  0  0  0  0
   -7.6778   -0.4104    1.6770 C   0  0  0  0  0  0  0  0  0  0  0  0
   -6.9694   -1.4816    0.9082 C   0  0  0  0  0  0  0  0  0  0  0  0
   -1.3812   -1.3113   -2.4287 C   0  0  0  0  0  0  0  0  0  0  0  0
   -0.0370   -1.1090   -2.7379 C   0  0  0  0  0  0  0  0  0  0  0  0
    0.7689   -0.4191   -1.8746 C   0  0  0  0  0  0  0  0  0  0  0  0
    0.2719    0.0902   -0.6830 C   0  0  0  0  0  0  0  0  0  0  0  0
    3.2669    0.3438    0.1910 N   0  0  0  0  0  0  0  0  0  0  0  0
    6.4483   -3.3748    0.6950 H   0  0  0  0  0  0  0  0  0  0  0  0
    7.6982   -2.5005    1.6562 H   0  0  0  0  0  0  0  0  0  0  0  0
    8.1212   -4.0450    0.7837 H   0  0  0  0  0  0  0  0  0  0  0  0
    8.8291   -2.6777   -0.8606 H   0  0  0  0  0  0  0  0  0  0  0  0
    7.1183   -2.4835   -1.2627 H   0  0  0  0  0  0  0  0  0  0  0  0
   10.6050    1.9142    1.2353 H   0  0  0  0  0  0  0  0  0  0  0  0
    9.5246    3.1077    0.4513 H   0  0  0  0  0  0  0  0  0  0  0  0
   10.6270    2.1851   -0.5873 H   0  0  0  0  0  0  0  0  0  0  0  0
    7.1883    2.2216    0.4412 H   0  0  0  0  0  0  0  0  0  0  0  0
    5.3597   -1.2512   -0.1735 H   0  0  0  0  0  0  0  0  0  0  0  0
    4.1903    3.9728    0.8705 H   0  0  0  0  0  0  0  0  0  0  0  0
    1.2586    3.5688    1.9311 H   0  0  0  0  0  0  0  0  0  0  0  0
    0.6164    3.1558    0.3059 H   0  0  0  0  0  0  0  0  0  0  0  0
    1.8356    4.5088    0.4590 H   0  0  0  0  0  0  0  0  0  0  0  0
   -0.0152    1.5516    2.1788 H   0  0  0  0  0  0  0  0  0  0  0  0
   -2.1967    0.4630    1.2671 H   0  0  0  0  0  0  0  0  0  0  0  0
   -3.5814   -0.5311   -0.0079 H   0  0  0  0  0  0  0  0  0  0  0  0
   -6.3901   -1.5410   -1.9463 H   0  0  0  0  0  0  0  0  0  0  0  0
   -5.2968   -3.9256   -1.4402 H   0  0  0  0  0  0  0  0  0  0  0  0
   -5.7365   -3.4127    0.2708 H   0  0  0  0  0  0  0  0  0  0  0  0
   -7.0137   -3.4562   -0.9645 H   0  0  0  0  0  0  0  0  0  0  0  0
   -5.3773    0.8983    0.6857 H   0  0  0  0  0  0  0  0  0  0  0  0
   -5.3793    0.5677   -1.1396 H   0  0  0  0  0  0  0  0  0  0  0  0
   -7.2067    1.9434   -0.6288 H   0  0  0  0  0  0  0  0  0  0  0  0
   -7.8022    0.3333   -1.0991 H   0  0  0  0  0  0  0  0  0  0  0  0
   -8.2889    2.2424    2.4971 H   0  0  0  0  0  0  0  0  0  0  0  0
   -6.5357    1.8048    2.2053 H   0  0  0  0  0  0  0  0  0  0  0  0
   -7.3733    2.8499    1.0352 H   0  0  0  0  0  0  0  0  0  0  0  0
   -8.6522   -0.8267    2.0147 H   0  0  0  0  0  0  0  0  0  0  0  0
   -7.1109   -0.1815    2.6215 H   0  0  0  0  0  0  0  0  0  0  0  0
   -7.7155   -2.1142    0.3890 H   0  0  0  0  0  0  0  0  0  0  0  0
   -6.4889   -2.1534    1.6795 H   0  0  0  0  0  0  0  0  0  0  0  0
   -1.9659   -1.8735   -3.1754 H   0  0  0  0  0  0  0  0  0  0  0  0
    0.3391   -1.5056   -3.6587 H   0  0  0  0  0  0  0  0  0  0  0  0
    1.8224   -0.2323   -2.0636 H   0  0  0  0  0  0  0  0  0  0  0  0
  1  2  1  0
  2  3  1  0
  3  4  2  0
  4  5  1  0
  5  6  1  0
  5  7  1  0
  7  8  2  0
  8  9  1  0
  9 10  1  0
 10 11  2  0
 11 12  1  0
 12 13  2  0
 13 14  1  0
 13 15  1  0
 15 16  1  0
 16 17  2  0
 17 18  1  0
 18 19  1  0
 19 20  2  0
 20 21  1  0
 21 22  1  0
 22 23  2  0
 22 24  1  0
 24 25  1  0
 24 26  1  0
 26 27  1  0
 27 28  1  0
 28 29  1  0
 29 30  1  0
 29 31  1  0
 31 32  1  0
 20 33  1  0
 33 34  2  0
 34 35  1  0
 35 36  2  0
 15 37  2  0
  8  3  1  0
 37 10  1  0
 36 16  1  0
 36 19  1  0
 32 26  1  0
  1 38  1  0
  1 39  1  0
  1 40  1  0
  2 41  1  0
  2 42  1  0
  6 43  1  0
  6 44  1  0
  6 45  1  0
  7 46  1  0
  9 47  1  0
 12 48  1  0
 14 49  1  0
 14 50  1  0
 14 51  1  0
 17 52  1  0
 18 53  1  0
 21 54  1  0
 24 55  1  6
 25 56  1  0
 25 57  1  0
 25 58  1  0
 27 59  1  0
 27 60  1  0
 28 61  1  0
 28 62  1  0
 30 63  1  0
 30 64  1  0
 30 65  1  0
 31 66  1  0
 31 67  1  0
 32 68  1  0
 32 69  1  0
 33 70  1  0
 34 71  1  0
 35 72  1  0
M  END
$$$$
