@<TRIPOS>MOLECULE
*****
 72 76 0 0 0
SMALL
GASTEIGER

@<TRIPOS>ATOM
      1 C           7.5254   -3.0875    0.7528 C.3     1  UNL1       -0.0597
      2 C           7.8710   -2.2788   -0.4690 C.3     1  UNL1       -0.0097
      3 C           8.0152   -0.8371   -0.1884 C.ar    1  UNL1        0.0839
      4 N           9.1695   -0.1679   -0.0957 N.ar    1  UNL1       -0.1746
      5 N           8.9809    1.0943    0.1588 N.ar    1  UNL1       -0.2724
      6 C          10.0004    2.1132    0.3243 C.3     1  UNL1        0.0303
      7 C           7.6359    1.2649    0.2378 C.ar    1  UNL1        0.0467
      8 C           6.9814    0.0774    0.0265 C.ar    1  UNL1        0.0747
      9 N           5.6013   -0.2244    0.0151 N.pl3   1  UNL1       -0.2809
     10 C           4.5611    0.7157    0.2300 C.ar    1  UNL1        0.2201
     11 N           4.8723    1.9923    0.4697 N.ar    1  UNL1       -0.2224
     12 C           3.9251    2.9436    0.6780 C.ar    1  UNL1        0.0361
     13 C           2.5907    2.5254    0.6309 C.ar    1  UNL1       -0.0062
     14 C           1.5141    3.5096    0.8501 C.3     1  UNL1       -0.0362
     15 C           2.2610    1.2125    0.3848 C.ar    1  UNL1        0.0809
     16 C           0.8624    0.8028    0.3395 C.ar    1  UNL1        0.0258
     17 C          -0.1542    1.0149    1.2516 C.ar    1  UNL1        0.0120
     18 N          -1.2935    0.4402    0.7650 N.ar    1  UNL1       -0.3586
     19 C          -1.0496   -0.1301   -0.4185 C.ar    1  UNL1        0.0686
     20 C          -1.9092   -0.8225   -1.2591 C.ar    1  UNL1        0.0576
     21 N          -3.2647   -1.0012   -0.9179 N.am    1  UNL1       -0.2825
     22 C          -4.2620   -1.7085   -1.5967 C.2     1  UNL1        0.2342
     23 O          -3.9711   -2.2916   -2.6632 O.2     1  UNL1       -0.2738
     24 C          -5.6730   -1.8144   -1.1221 C.3     1  UNL1        0.0848
     25 C          -5.9362   -3.2737   -0.8097 C.3     1  UNL1       -0.0409
     26 N          -5.9838   -1.0425    0.0137 N.3     1  UNL1       -0.2893
     27 C          -5.8511    0.3790   -0.1454 C.3     1  UNL1        0.0124
     28 C          -7.2855    0.9030   -0.3059 C.3     1  UNL1        0.0114
     29 N          -7.9085    0.7980    0.9846 N.3     1  UNL1       -0.3029
     30 C          -7.5225    1.9881    1.7411 C.3     1  UNL1       -0.0127
     31 C          -7.6778   -0.4104    1.6770 C.3     1  UNL1        0.0114
     32 C          -6.9694   -1.4816    0.9082 C.3     1  UNL1        0.0124
     33 C          -1.3812   -1.3113   -2.4287 C.ar    1  UNL1       -0.0384
     34 C          -0.0370   -1.1090   -2.7379 C.ar    1  UNL1       -0.0593
     35 C           0.7689   -0.4191   -1.8746 C.ar    1  UNL1       -0.0518
     36 C           0.2719    0.0902   -0.6830 C.ar    1  UNL1        0.0107
     37 N           3.2669    0.3438    0.1910 N.ar    1  UNL1       -0.2139
     38 H           6.4483   -3.3748    0.6950 H       1  UNL1        0.0233
     39 H           7.6982   -2.5005    1.6562 H       1  UNL1        0.0233
     40 H           8.1212   -4.0450    0.7837 H       1  UNL1        0.0233
     41 H           8.8291   -2.6777   -0.8606 H       1  UNL1        0.0327
     42 H           7.1183   -2.4835   -1.2627 H       1  UNL1        0.0327
     43 H          10.6050    1.9142    1.2353 H       1  UNL1        0.0473
     44 H           9.5246    3.1077    0.4513 H       1  UNL1        0.0473
     45 H          10.6270    2.1851   -0.5873 H       1  UNL1        0.0473
     46 H           7.1883    2.2216    0.4412 H       1  UNL1        0.0845
     47 H           5.3597   -1.2512   -0.1735 H       1  UNL1        0.1551
     48 H           4.1903    3.9728    0.8705 H       1  UNL1        0.0834
     49 H           1.2586    3.5688    1.9311 H       1  UNL1        0.0279
     50 H           0.6164    3.1558    0.3059 H       1  UNL1        0.0279
     51 H           1.8356    4.5088    0.4590 H       1  UNL1        0.0279
     52 H          -0.0152    1.5516    2.1788 H       1  UNL1        0.0814
     53 H          -2.1967    0.4630    1.2671 H       1  UNL1        0.1654
     54 H          -3.5814   -0.5311   -0.0079 H       1  UNL1        0.1549
     55 H          -6.3901   -1.5410   -1.9463 H       1  UNL1        0.0556
     56 H          -5.2968   -3.9256   -1.4402 H       1  UNL1        0.0249
     57 H          -5.7365   -3.4127    0.2708 H       1  UNL1        0.0249
     58 H          -7.0137   -3.4562   -0.9645 H       1  UNL1        0.0249
     59 H          -5.3773    0.8983    0.6857 H       1  UNL1        0.0439
     60 H          -5.3793    0.5677   -1.1396 H       1  UNL1        0.0439
     61 H          -7.2067    1.9434   -0.6288 H       1  UNL1        0.0439
     62 H          -7.8022    0.3333   -1.0991 H       1  UNL1        0.0439
     63 H          -8.2889    2.2424    2.4971 H       1  UNL1        0.0391
     64 H          -6.5357    1.8048    2.2053 H       1  UNL1        0.0391
     65 H          -7.3733    2.8499    1.0352 H       1  UNL1        0.0391
     66 H          -8.6522   -0.8267    2.0147 H       1  UNL1        0.0439
     67 H          -7.1109   -0.1815    2.6215 H       1  UNL1        0.0439
     68 H          -7.7155   -2.1142    0.3890 H       1  UNL1        0.0439
     69 H          -6.4889   -2.1534    1.6795 H       1  UNL1        0.0439
     70 H          -1.9659   -1.8735   -3.1754 H       1  UNL1        0.0637
     71 H           0.3391   -1.5056   -3.6587 H       1  UNL1        0.0618
     72 H           1.8224   -0.2323   -2.0636 H       1  UNL1        0.0624
@<TRIPOS>BOND
     1     1     2    1
     2     2     3    1
     3     3     4   ar
     4     4     5   ar
     5     5     6    1
     6     5     7   ar
     7     7     8   ar
     8     8     9    1
     9     9    10    1
    10    10    11   ar
    11    11    12   ar
    12    12    13   ar
    13    13    14    1
    14    13    15   ar
    15    15    16    1
    16    16    17   ar
    17    17    18   ar
    18    18    19   ar
    19    19    20   ar
    20    20    21    1
    21    21    22   am
    22    22    23    2
    23    22    24    1
    24    24    25    1
    25    24    26    1
    26    26    27    1
    27    27    28    1
    28    28    29    1
    29    29    30    1
    30    29    31    1
    31    31    32    1
    32    20    33   ar
    33    33    34   ar
    34    34    35   ar
    35    35    36   ar
    36    15    37   ar
    37     8     3   ar
    38    37    10   ar
    39    36    16   ar
    40    36    19   ar
    41    32    26    1
    42     1    38    1
    43     1    39    1
    44     1    40    1
    45     2    41    1
    46     2    42    1
    47     6    43    1
    48     6    44    1
    49     6    45    1
    50     7    46    1
    51     9    47    1
    52    12    48    1
    53    14    49    1
    54    14    50    1
    55    14    51    1
    56    17    52    1
    57    18    53    1
    58    21    54    1
    59    24    55    1
    60    25    56    1
    61    25    57    1
    62    25    58    1
    63    27    59    1
    64    27    60    1
    65    28    61    1
    66    28    62    1
    67    30    63    1
    68    30    64    1
    69    30    65    1
    70    31    66    1
    71    31    67    1
    72    32    68    1
    73    32    69    1
    74    33    70    1
    75    34    71    1
    76    35    72    1
