@<TRIPOS>MOLECULE
*****
 68 70 0 0 0
SMALL
GASTEIGER

@<TRIPOS>ATOM
      1 C          10.2807   -3.0735    3.2693 C.3     1  UNL1        0.0817
      2 O           9.7309   -1.8119    2.6093 O.3     1  UNL1       -0.4679
      3 C           8.3849   -1.6170    3.0655 C.2     1  UNL1        0.3068
      4 O           7.9913   -2.5358    3.8596 O.2     1  UNL1       -0.2509
      5 C           7.5648   -0.5060    2.6785 C.3     1  UNL1        0.0449
      6 C           6.1483   -0.5214    3.2097 C.3     1  UNL1       -0.0430
      7 C           5.3577   -1.6460    2.6349 C.3     1  UNL1       -0.0526
      8 C           3.9509   -1.8171    3.0114 C.3     1  UNL1       -0.0530
      9 C           3.0527   -0.5973    2.7875 C.3     1  UNL1       -0.0528
     10 C           3.2385   -0.2099    1.3810 C.3     1  UNL1       -0.0490
     11 C           2.5938    0.9495    0.7695 C.3     1  UNL1       -0.0250
     12 C           1.1586    0.8980    0.4823 C.ar    1  UNL1       -0.0121
     13 C           0.7728    0.7280   -0.8163 C.ar    1  UNL1       -0.0541
     14 C          -0.5302    0.7140   -1.0079 C.ar    1  UNL1       -0.0398
     15 C          -1.5905    0.8190   -0.1561 C.ar    1  UNL1        0.0392
     16 N          -2.9106    0.6330   -0.6744 N.am    1  UNL1       -0.2676
     17 C          -3.7648    1.4658   -1.4001 C.2     1  UNL1        0.1515
     18 S          -3.4695    2.9365   -2.0023 S.2     1  UNL1       -0.0174
     19 N          -5.0064    0.7414   -1.5245 N.am    1  UNL1       -0.2196
     20 C          -6.0787    1.2168   -2.3380 C.ar    1  UNL1        0.0436
     21 C          -7.3818    1.1264   -2.1331 C.ar    1  UNL1       -0.0386
     22 C          -8.4111    1.5277   -2.9532 C.ar    1  UNL1       -0.0420
     23 C          -8.1810    2.0622   -4.0748 C.ar    1  UNL1        0.0635
     24 C          -9.0771    2.6138   -5.0395 C.1     1  UNL1        0.0997
     25 N          -9.7715    3.0614   -5.7869 N.1     1  UNL1       -0.1909
     26 C          -6.7498    2.2607   -4.5422 C.ar    1  UNL1        0.0739
     27 C          -6.4915    2.8765   -5.7883 C.3     1  UNL1        0.4187
     28 F          -6.8791    4.2036   -5.8118 F       1  UNL1       -0.1659
     29 F          -5.1236    2.8545   -6.0711 F       1  UNL1       -0.1659
     30 F          -7.1731    2.2371   -6.8420 F       1  UNL1       -0.1659
     31 C          -5.7893    1.8237   -3.6378 C.ar    1  UNL1       -0.0270
     32 C          -4.9477   -0.5209   -0.8538 C.2     1  UNL1        0.2489
     33 O          -6.0065   -1.1488   -0.6489 O.2     1  UNL1       -0.2725
     34 C          -3.5228   -0.7103   -0.5906 C.3     1  UNL1        0.1123
     35 C          -2.9650   -1.5974   -1.6689 C.3     1  UNL1       -0.0349
     36 C          -3.2582   -1.2907    0.7952 C.3     1  UNL1       -0.0349
     37 C          -1.1753    0.9899    1.1421 C.ar    1  UNL1       -0.0047
     38 C           0.2079    1.0444    1.5376 C.ar    1  UNL1        0.1283
     39 F           0.5436    1.2543    2.8024 F       1  UNL1       -0.2051
     40 H           9.7037   -3.8985    2.9214 H       1  UNL1        0.0661
     41 H          11.3035   -3.0836    2.8465 H       1  UNL1        0.0661
     42 H          10.2723   -2.8531    4.3211 H       1  UNL1        0.0661
     43 H           8.0144    0.4692    3.0334 H       1  UNL1        0.0377
     44 H           7.5559   -0.4614    1.5559 H       1  UNL1        0.0377
     45 H           5.6640    0.4777    3.1346 H       1  UNL1        0.0270
     46 H           6.2796   -0.6620    4.3338 H       1  UNL1        0.0270
     47 H           5.8906   -2.5961    2.9688 H       1  UNL1        0.0265
     48 H           5.5254   -1.6727    1.5061 H       1  UNL1        0.0265
     49 H           3.5504   -2.7088    2.4603 H       1  UNL1        0.0265
     50 H           3.8853   -2.1225    4.0937 H       1  UNL1        0.0265
     51 H           2.0460   -0.9121    3.0971 H       1  UNL1        0.0265
     52 H           3.3539    0.2362    3.4452 H       1  UNL1        0.0265
     53 H           4.3704   -0.0589    1.2469 H       1  UNL1        0.0268
     54 H           3.1063   -1.1471    0.6988 H       1  UNL1        0.0268
     55 H           2.7856    1.8907    1.3927 H       1  UNL1        0.0314
     56 H           3.1206    1.2450   -0.2011 H       1  UNL1        0.0314
     57 H           1.4356    0.5893   -1.6810 H       1  UNL1        0.0622
     58 H          -0.8426    0.7166   -2.0971 H       1  UNL1        0.0636
     59 H          -7.6858    0.6660   -1.1377 H       1  UNL1        0.0637
     60 H          -9.4581    1.4047   -2.5503 H       1  UNL1        0.0631
     61 H          -4.7447    1.9138   -3.8865 H       1  UNL1        0.0642
     62 H          -2.7446   -2.6096   -1.2517 H       1  UNL1        0.0255
     63 H          -2.0385   -1.2458   -2.1099 H       1  UNL1        0.0255
     64 H          -3.7395   -1.7588   -2.4632 H       1  UNL1        0.0255
     65 H          -2.1597   -1.3980    0.8728 H       1  UNL1        0.0255
     66 H          -3.5814   -0.6200    1.6076 H       1  UNL1        0.0255
     67 H          -3.6896   -2.3050    0.8976 H       1  UNL1        0.0255
     68 H          -1.9014    1.0713    1.9114 H       1  UNL1        0.0665
@<TRIPOS>BOND
     1     1     2    1
     2     2     3    1
     3     3     4    2
     4     3     5    1
     5     5     6    1
     6     6     7    1
     7     7     8    1
     8     8     9    1
     9     9    10    1
    10    10    11    1
    11    11    12    1
    12    12    13   ar
    13    13    14   ar
    14    14    15   ar
    15    15    16    1
    16    16    17    1
    17    17    18    2
    18    17    19    1
    19    19    20    1
    20    20    21   ar
    21    21    22   ar
    22    22    23   ar
    23    23    24    1
    24    24    25    3
    25    23    26   ar
    26    26    27    1
    27    27    28    1
    28    27    29    1
    29    27    30    1
    30    26    31   ar
    31    19    32   am
    32    32    33    2
    33    32    34    1
    34    34    35    1
    35    34    36    1
    36    15    37   ar
    37    37    38   ar
    38    38    39    1
    39    38    12   ar
    40    34    16    1
    41    31    20   ar
    42     1    40    1
    43     1    41    1
    44     1    42    1
    45     5    43    1
    46     5    44    1
    47     6    45    1
    48     6    46    1
    49     7    47    1
    50     7    48    1
    51     8    49    1
    52     8    50    1
    53     9    51    1
    54     9    52    1
    55    10    53    1
    56    10    54    1
    57    11    55    1
    58    11    56    1
    59    13    57    1
    60    14    58    1
    61    21    59    1
    62    22    60    1
    63    31    61    1
    64    35    62    1
    65    35    63    1
    66    35    64    1
    67    36    65    1
    68    36    66    1
    69    36    67    1
    70    37    68    1
