@<TRIPOS>MOLECULE
*****
 76 80 0 0 0
SMALL
GASTEIGER

@<TRIPOS>ATOM
      1 C          -4.0470    5.3842   -1.4371 C.3     1  UNL1       -0.0397
      2 C          -4.2510    3.9508   -1.0804 C.ar    1  UNL1       -0.0503
      3 C          -4.3788    3.5801    0.2354 C.ar    1  UNL1       -0.0568
      4 C          -4.5679    2.2483    0.5778 C.ar    1  UNL1       -0.0359
      5 C          -4.6360    1.2458   -0.3747 C.ar    1  UNL1        0.0674
      6 N          -4.8292   -0.1251   -0.0369 N.ar    1  UNL1       -0.2181
      7 N          -5.7334   -0.6089    0.8240 N.ar    1  UNL1       -0.1691
      8 C          -5.6295   -1.9462    0.8946 C.ar    1  UNL1        0.0706
      9 C          -6.4616   -2.8411    1.7406 C.3     1  UNL1        0.0063
     10 C          -6.0568   -4.2981    1.5426 C.3     1  UNL1       -0.0546
     11 C          -6.2725   -2.5462    3.2150 C.3     1  UNL1       -0.0546
     12 C          -7.9305   -2.7302    1.4083 C.3     1  UNL1       -0.0546
     13 C          -4.6101   -2.2849    0.0319 C.ar    1  UNL1        0.0021
     14 C          -4.1018   -1.1276   -0.5599 C.ar    1  UNL1        0.1299
     15 N          -3.0408   -1.0924   -1.5052 N.am    1  UNL1       -0.2538
     16 C          -1.6770   -0.9524   -1.1018 C.2     1  UNL1        0.3092
     17 O          -1.4284   -0.8578    0.1063 O.2     1  UNL1       -0.2521
     18 N          -0.6107   -0.9178   -2.0172 N.am    1  UNL1       -0.2686
     19 C           0.7582   -0.7803   -1.6920 C.ar    1  UNL1        0.0427
     20 C           1.4989   -1.9090   -1.4560 C.ar    1  UNL1       -0.0364
     21 C           2.8263   -1.8039   -1.1452 C.ar    1  UNL1       -0.0176
     22 C           3.4656   -0.5822   -1.0572 C.ar    1  UNL1        0.1283
     23 O           4.8116   -0.4680   -0.7426 O.3     1  UNL1       -0.4901
     24 C           5.6184   -1.5964   -0.4922 C.3     1  UNL1        0.1023
     25 C           7.0166   -1.1879   -0.1849 C.3     1  UNL1        0.0333
     26 N           7.2263   -0.3573    0.9335 N.3     1  UNL1       -0.2948
     27 C           6.7805    0.9768    0.8977 C.3     1  UNL1        0.0225
     28 C           7.9917    1.9125    1.0043 C.3     1  UNL1        0.0604
     29 O           8.6592    1.5912    2.1698 O.3     1  UNL1       -0.3772
     30 C           9.2347    0.3238    2.0679 C.3     1  UNL1        0.0604
     31 C           8.1724   -0.7477    1.9025 C.3     1  UNL1        0.0225
     32 C           2.7236    0.5440   -1.2933 C.ar    1  UNL1        0.0256
     33 C           3.2800    1.8071   -1.2286 C.ar    1  UNL1       -0.0505
     34 C           2.5563    2.9497   -1.4623 C.ar    1  UNL1       -0.0611
     35 C           1.2337    2.8222   -1.7706 C.ar    1  UNL1       -0.0611
     36 C           0.6260    1.5843   -1.8489 C.ar    1  UNL1       -0.0521
     37 C           1.3671    0.4507   -1.6115 C.ar    1  UNL1        0.0069
     38 C          -4.5089    1.6113   -1.6927 C.ar    1  UNL1       -0.0359
     39 C          -4.3191    2.9521   -2.0247 C.ar    1  UNL1       -0.0568
     40 H          -3.6229    5.4641   -2.4604 H       1  UNL1        0.0278
     41 H          -3.3193    5.8533   -0.7469 H       1  UNL1        0.0278
     42 H          -4.9996    5.9500   -1.4133 H       1  UNL1        0.0278
     43 H          -4.3284    4.3522    0.9976 H       1  UNL1        0.0621
     44 H          -4.6657    1.9761    1.6019 H       1  UNL1        0.0639
     45 H          -6.4984   -4.7322    0.6174 H       1  UNL1        0.0239
     46 H          -6.3797   -4.9239    2.3883 H       1  UNL1        0.0239
     47 H          -4.9509   -4.3416    1.4788 H       1  UNL1        0.0239
     48 H          -5.3734   -3.0849    3.6321 H       1  UNL1        0.0239
     49 H          -7.1466   -3.0180    3.7395 H       1  UNL1        0.0239
     50 H          -6.2951   -1.4791    3.4571 H       1  UNL1        0.0239
     51 H          -7.9981   -2.4660    0.3299 H       1  UNL1        0.0239
     52 H          -8.4751   -3.6771    1.5368 H       1  UNL1        0.0239
     53 H          -8.3748   -1.8939    1.9964 H       1  UNL1        0.0239
     54 H          -4.2434   -3.2747   -0.1725 H       1  UNL1        0.0671
     55 H          -3.2681   -1.1741   -2.5387 H       1  UNL1        0.1578
     56 H          -0.8538   -1.0026   -3.0492 H       1  UNL1        0.1564
     57 H           1.0507   -2.9133   -1.5100 H       1  UNL1        0.0637
     58 H           3.3789   -2.7048   -0.9658 H       1  UNL1        0.0655
     59 H           5.1624   -2.1506    0.3336 H       1  UNL1        0.0709
     60 H           5.6513   -2.2929   -1.3540 H       1  UNL1        0.0709
     61 H           7.6821   -2.0863   -0.0621 H       1  UNL1        0.0460
     62 H           7.4924   -0.6620   -1.0728 H       1  UNL1        0.0460
     63 H           6.3675    1.1641   -0.1295 H       1  UNL1        0.0449
     64 H           6.0742    1.2820    1.6993 H       1  UNL1        0.0449
     65 H           8.6482    1.8158    0.1013 H       1  UNL1        0.0572
     66 H           7.5980    2.9486    1.1141 H       1  UNL1        0.0572
     67 H           9.9793    0.2696    1.2358 H       1  UNL1        0.0572
     68 H           9.7992    0.1353    3.0040 H       1  UNL1        0.0572
     69 H           8.7102   -1.6577    1.5027 H       1  UNL1        0.0449
     70 H           7.7024   -0.9560    2.8920 H       1  UNL1        0.0449
     71 H           4.3312    1.9245   -0.9865 H       1  UNL1        0.0625
     72 H           3.0085    3.9172   -1.4067 H       1  UNL1        0.0618
     73 H           0.6137    3.7059   -1.9651 H       1  UNL1        0.0618
     74 H          -0.4275    1.5279   -2.0970 H       1  UNL1        0.0624
     75 H          -4.5592    0.8451   -2.4458 H       1  UNL1        0.0639
     76 H          -4.2264    3.1866   -3.0574 H       1  UNL1        0.0621
@<TRIPOS>BOND
     1     1     2    1
     2     2     3   ar
     3     3     4   ar
     4     4     5   ar
     5     5     6    1
     6     6     7   ar
     7     7     8   ar
     8     8     9    1
     9     9    10    1
    10     9    11    1
    11     9    12    1
    12     8    13   ar
    13    13    14   ar
    14    14    15    1
    15    15    16   am
    16    16    17    2
    17    16    18   am
    18    18    19    1
    19    19    20   ar
    20    20    21   ar
    21    21    22   ar
    22    22    23    1
    23    23    24    1
    24    24    25    1
    25    25    26    1
    26    26    27    1
    27    27    28    1
    28    28    29    1
    29    29    30    1
    30    30    31    1
    31    22    32   ar
    32    32    33   ar
    33    33    34   ar
    34    34    35   ar
    35    35    36   ar
    36    36    37   ar
    37     5    38   ar
    38    38    39   ar
    39    39     2   ar
    40    14     6   ar
    41    37    19   ar
    42    31    26    1
    43    37    32   ar
    44     1    40    1
    45     1    41    1
    46     1    42    1
    47     3    43    1
    48     4    44    1
    49    10    45    1
    50    10    46    1
    51    10    47    1
    52    11    48    1
    53    11    49    1
    54    11    50    1
    55    12    51    1
    56    12    52    1
    57    12    53    1
    58    13    54    1
    59    15    55    1
    60    18    56    1
    61    20    57    1
    62    21    58    1
    63    24    59    1
    64    24    60    1
    65    25    61    1
    66    25    62    1
    67    27    63    1
    68    27    64    1
    69    28    65    1
    70    28    66    1
    71    30    67    1
    72    30    68    1
    73    31    69    1
    74    31    70    1
    75    33    71    1
    76    34    72    1
    77    35    73    1
    78    36    74    1
    79    38    75    1
    80    39    76    1
