
     RDKit          3D

 76 80  0  0  0  0  0  0  0  0999 V2000
   -4.0470    5.3842   -1.4371 C   0  0  0  0  0  0  0  0  0  0  0  0
   -4.2510    3.9508   -1.0804 C   0  0  0  0  0  0  0  0  0  0  0  0
   -4.3788    3.5801    0.2354 C   0  0  0  0  0  0  0  0  0  0  0  0
   -4.5679    2.2483    0.5778 C   0  0  0  0  0  0  0  0  0  0  0  0
   -4.6360    1.2458   -0.3747 C   0  0  0  0  0  0  0  0  0  0  0  0
   -4.8292   -0.1251   -0.0369 N   0  0  0  0  0  0  0  0  0  0  0  0
   -5.7334   -0.6089    0.8240 N   0  0  0  0  0  0  0  0  0  0  0  0
   -5.6295   -1.9462    0.8946 C   0  0  0  0  0  0  0  0  0  0  0  0
   -6.4616   -2.8411    1.7406 C   0  0  0  0  0  0  0  0  0  0  0  0
   -6.0568   -4.2981    1.5426 C   0  0  0  0  0  0  0  0  0  0  0  0
   -6.2725   -2.5462    3.2150 C   0  0  0  0  0  0  0  0  0  0  0  0
   -7.9305   -2.7302    1.4083 C   0  0  0  0  0  0  0  0  0  0  0  0
   -4.6101   -2.2849    0.0319 C   0  0  0  0  0  0  0  0  0  0  0  0
   -4.1018   -1.1276   -0.5599 C   0  0  0  0  0  0  0  0  0  0  0  0
   -3.0408   -1.0924   -1.5052 N   0  0  0  0  0  0  0  0  0  0  0  0
   -1.6770   -0.9524   -1.1018 C   0  0  0  0  0  0  0  0  0  0  0  0
   -1.4284   -0.8578    0.1063 O   0  0  0  0  0  0  0  0  0  0  0  0
   -0.6107   -0.9178   -2.0172 N   0  0  0  0  0  0  0  0  0  0  0  0
    0.7582   -0.7803   -1.6920 C   0  0  0  0  0  0  0  0  0  0  0  0
    1.4989   -1.9090   -1.4560 C   0  0  0  0  0  0  0  0  0  0  0  0
    2.8263   -1.8039   -1.1452 C   0  0  0  0  0  0  0  0  0  0  0  0
    3.4656   -0.5822   -1.0572 C   0  0  0  0  0  0  0  0  0  0  0  0
    4.8116   -0.4680   -0.7426 O   0  0  0  0  0  0  0  0  0  0  0  0
    5.6184   -1.5964   -0.4922 C   0  0  0  0  0  0  0  0  0  0  0  0
    7.0166   -1.1879   -0.1849 C   0  0  0  0  0  0  0  0  0  0  0  0
    7.2263   -0.3573    0.9335 N   0  0  0  0  0  0  0  0  0  0  0  0
    6.7805    0.9768    0.8977 C   0  0  0  0  0  0  0  0  0  0  0  0
    7.9917    1.9125    1.0043 C   0  0  0  0  0  0  0  0  0  0  0  0
    8.6592    1.5912    2.1698 O   0  0  0  0  0  0  0  0  0  0  0  0
    9.2347    0.3238    2.0679 C   0  0  0  0  0  0  0  0  0  0  0  0
    8.1724   -0.7477    1.9025 C   0  0  0  0  0  0  0  0  0  0  0  0
    2.7236    0.5440   -1.2933 C   0  0  0  0  0  0  0  0  0  0  0  0
    3.2800    1.8071   -1.2286 C   0  0  0  0  0  0  0  0  0  0  0  0
    2.5563    2.9497   -1.4623 C   0  0  0  0  0  0  0  0  0  0  0  0
    1.2337    2.8222   -1.7706 C   0  0  0  0  0  0  0  0  0  0  0  0
    0.6260    1.5843   -1.8489 C   0  0  0  0  0  0  0  0  0  0  0  0
    1.3671    0.4507   -1.6115 C   0  0  0  0  0  0  0  0  0  0  0  0
   -4.5089    1.6113   -1.6927 C   0  0  0  0  0  0  0  0  0  0  0  0
   -4.3191    2.9521   -2.0247 C   0  0  0  0  0  0  0  0  0  0  0  0
   -3.6229    5.4641   -2.4604 H   0  0  0  0  0  0  0  0  0  0  0  0
   -3.3193    5.8533   -0.7469 H   0  0  0  0  0  0  0  0  0  0  0  0
   -4.9996    5.9500   -1.4133 H   0  0  0  0  0  0  0  0  0  0  0  0
   -4.3284    4.3522    0.9976 H   0  0  0  0  0  0  0  0  0  0  0  0
   -4.6657    1.9761    1.6019 H   0  0  0  0  0  0  0  0  0  0  0  0
   -6.4984   -4.7322    0.6174 H   0  0  0  0  0  0  0  0  0  0  0  0
   -6.3797   -4.9239    2.3883 H   0  0  0  0  0  0  0  0  0  0  0  0
   -4.9509   -4.3416    1.4788 H   0  0  0  0  0  0  0  0  0  0  0  0
   -5.3734   -3.0849    3.6321 H   0  0  0  0  0  0  0  0  0  0  0  0
   -7.1466   -3.0180    3.7395 H   0  0  0  0  0  0  0  0  0  0  0  0
   -6.2951   -1.4791    3.4571 H   0  0  0  0  0  0  0  0  0  0  0  0
   -7.9981   -2.4660    0.3299 H   0  0  0  0  0  0  0  0  0  0  0  0
   -8.4751   -3.6771    1.5368 H   0  0  0  0  0  0  0  0  0  0  0  0
   -8.3748   -1.8939    1.9964 H   0  0  0  0  0  0  0  0  0  0  0  0
   -4.2434   -3.2747   -0.1725 H   0  0  0  0  0  0  0  0  0  0  0  0
   -3.2681   -1.1741   -2.5387 H   0  0  0  0  0  0  0  0  0  0  0  0
   -0.8538   -1.0026   -3.0492 H   0  0  0  0  0  0  0  0  0  0  0  0
    1.0507   -2.9133   -1.5100 H   0  0  0  0  0  0  0  0  0  0  0  0
    3.3789   -2.7048   -0.9658 H   0  0  0  0  0  0  0  0  0  0  0  0
    5.1624   -2.1506    0.3336 H   0  0  0  0  0  0  0  0  0  0  0  0
    5.6513   -2.2929   -1.3540 H   0  0  0  0  0  0  0  0  0  0  0  0
    7.6821   -2.0863   -0.0621 H   0  0  0  0  0  0  0  0  0  0  0  0
    7.4924   -0.6620   -1.0728 H   0  0  0  0  0  0  0  0  0  0  0  0
    6.3675    1.1641   -0.1295 H   0  0  0  0  0  0  0  0  0  0  0  0
    6.0742    1.2820    1.6993 H   0  0  0  0  0  0  0  0  0  0  0  0
    8.6482    1.8158    0.1013 H   0  0  0  0  0  0  0  0  0  0  0  0
    7.5980    2.9486    1.1141 H   0  0  0  0  0  0  0  0  0  0  0  0
    9.9793    0.2696    1.2358 H   0  0  0  0  0  0  0  0  0  0  0  0
    9.7992    0.1353    3.0040 H   0  0  0  0  0  0  0  0  0  0  0  0
    8.7102   -1.6577    1.5027 H   0  0  0  0  0  0  0  0  0  0  0  0
    7.7024   -0.9560    2.8920 H   0  0  0  0  0  0  0  0  0  0  0  0
    4.3312    1.9245   -0.9865 H   0  0  0  0  0  0  0  0  0  0  0  0
    3.0085    3.9172   -1.4067 H   0  0  0  0  0  0  0  0  0  0  0  0
    0.6137    3.7059   -1.9651 H   0  0  0  0  0  0  0  0  0  0  0  0
   -0.4275    1.5279   -2.0970 H   0  0  0  0  0  0  0  0  0  0  0  0
   -4.5592    0.8451   -2.4458 H   0  0  0  0  0  0  0  0  0  0  0  0
   -4.2264    3.1866   -3.0574 H   0  0  0  0  0  0  0  0  0  0  0  0
  1  2  1  0
  2  3  2  0
  3  4  1  0
  4  5  2  0
  5  6  1  0
  6  7  1  0
  7  8  2  0
  8  9  1  0
  9 10  1  0
  9 11  1  0
  9 12  1  0
  8 13  1  0
 13 14  2  0
 14 15  1  0
 15 16  1  0
 16 17  2  0
 16 18  1  0
 18 19  1  0
 19 20  2  0
 20 21  1  0
 21 22  2  0
 22 23  1  0
 23 24  1  0
 24 25  1  0
 25 26  1  0
 26 27  1  0
 27 28  1  0
 28 29  1  0
 29 30  1  0
 30 31  1  0
 22 32  1  0
 32 33  2  0
 33 34  1  0
 34 35  2  0
 35 36  1  0
 36 37  2  0
  5 38  1  0
 38 39  2  0
 39  2  1  0
 14  6  1  0
 37 19  1  0
 31 26  1  0
 37 32  1  0
  1 40  1  0
  1 41  1  0
  1 42  1  0
  3 43  1  0
  4 44  1  0
 10 45  1  0
 10 46  1  0
 10 47  1  0
 11 48  1  0
 11 49  1  0
 11 50  1  0
 12 51  1  0
 12 52  1  0
 12 53  1  0
 13 54  1  0
 15 55  1  0
 18 56  1  0
 20 57  1  0
 21 58  1  0
 24 59  1  0
 24 60  1  0
 25 61  1  0
 25 62  1  0
 27 63  1  0
 27 64  1  0
 28 65  1  0
 28 66  1  0
 30 67  1  0
 30 68  1  0
 31 69  1  0
 31 70  1  0
 33 71  1  0
 34 72  1  0
 35 73  1  0
 36 74  1  0
 38 75  1  0
 39 76  1  0
M  END
$$$$
