
     RDKit          3D

 61 67  0  0  0  0  0  0  0  0999 V2000
    2.6551    4.0009    1.3627 O   0  0  0  0  0  0  0  0  0  0  0  0
    3.6096    3.2504    1.0135 C   0  0  0  0  0  0  0  0  0  0  0  0
    4.9701    3.5835    1.0147 N   0  0  0  0  0  0  0  0  0  0  0  0
    5.6451    2.4459    0.5535 C   0  0  0  0  0  0  0  0  0  0  0  0
    6.9045    2.2977    0.3922 O   0  0  0  0  0  0  0  0  0  0  0  0
    4.6228    1.3926    0.2687 C   0  0  0  0  0  0  0  0  0  0  0  0
    5.0054    0.0711   -0.2123 C   0  0  0  0  0  0  0  0  0  0  0  0
    5.4951   -0.1513   -1.4989 C   0  0  0  0  0  0  0  0  0  0  0  0
    5.8130   -1.4462   -1.6363 N   0  0  0  0  0  0  0  0  0  0  0  0
    5.5399   -2.0517   -0.4736 C   0  0  0  0  0  0  0  0  0  0  0  0
    5.7118   -3.3725   -0.1220 C   0  0  0  0  0  0  0  0  0  0  0  0
    5.3696   -3.7431    1.1566 C   0  0  0  0  0  0  0  0  0  0  0  0
    4.8684   -2.7765    2.0335 C   0  0  0  0  0  0  0  0  0  0  0  0
    4.7111   -1.4672    1.6425 C   0  0  0  0  0  0  0  0  0  0  0  0
    5.0468   -1.1064    0.3862 N   0  0  0  0  0  0  0  0  0  0  0  0
    3.4139    1.8439    0.5318 C   0  0  0  0  0  0  0  0  0  0  0  0
    2.1057    1.2191    0.4218 C   0  0  0  0  0  0  0  0  0  0  0  0
    1.6179    0.0561    0.9230 C   0  0  0  0  0  0  0  0  0  0  0  0
    0.3194   -0.1069    0.5204 N   0  0  0  0  0  0  0  0  0  0  0  0
   -0.0622    0.9293   -0.2407 C   0  0  0  0  0  0  0  0  0  0  0  0
   -1.2239    1.2410   -0.8801 C   0  0  0  0  0  0  0  0  0  0  0  0
   -1.3137    2.4173   -1.6242 C   0  0  0  0  0  0  0  0  0  0  0  0
   -0.2443    3.2511   -1.7091 C   0  0  0  0  0  0  0  0  0  0  0  0
    0.9337    2.9201   -1.0497 C   0  0  0  0  0  0  0  0  0  0  0  0
    1.0436    1.7636   -0.3101 C   0  0  0  0  0  0  0  0  0  0  0  0
   -2.5788    0.5694   -0.9652 C   0  0  0  0  0  0  0  0  0  0  0  0
   -2.5776   -0.6919   -0.3355 N   0  0  0  0  0  0  0  0  0  0  0  0
   -3.7530   -1.1758    0.2665 C   0  0  0  0  0  0  0  0  0  0  0  0
   -3.5744   -2.3007    0.9126 O   0  0  0  0  0  0  0  0  0  0  0  0
   -5.0653   -0.6468    0.2810 N   0  0  0  0  0  0  0  0  0  0  0  0
   -6.0071   -1.3898    1.1389 C   0  0  0  0  0  0  0  0  0  0  0  0
   -7.3979   -1.3541    0.6303 C   0  0  0  0  0  0  0  0  0  0  0  0
   -7.7535   -0.0082    0.3789 O   0  0  0  0  0  0  0  0  0  0  0  0
   -7.0644    0.3192   -0.7714 C   0  0  0  0  0  0  0  0  0  0  0  0
   -5.5795    0.4611   -0.4368 C   0  0  0  0  0  0  0  0  0  0  0  0
   -1.4096   -1.5907   -0.2836 C   0  0  0  0  0  0  0  0  0  0  0  0
   -0.4962   -1.2577    0.8766 C   0  0  0  0  0  0  0  0  0  0  0  0
    5.4088    4.4831    1.2954 H   0  0  0  0  0  0  0  0  0  0  0  0
    5.6019    0.6112   -2.2687 H   0  0  0  0  0  0  0  0  0  0  0  0
    6.0990   -4.0756   -0.8282 H   0  0  0  0  0  0  0  0  0  0  0  0
    5.4767   -4.7542    1.5005 H   0  0  0  0  0  0  0  0  0  0  0  0
    4.5881   -3.0210    3.0448 H   0  0  0  0  0  0  0  0  0  0  0  0
    4.3279   -0.7392    2.3260 H   0  0  0  0  0  0  0  0  0  0  0  0
    2.0830   -0.6700    1.5448 H   0  0  0  0  0  0  0  0  0  0  0  0
   -2.2340    2.6794   -2.1424 H   0  0  0  0  0  0  0  0  0  0  0  0
   -0.2996    4.1554   -2.2754 H   0  0  0  0  0  0  0  0  0  0  0  0
    1.7452    3.6194   -1.1583 H   0  0  0  0  0  0  0  0  0  0  0  0
   -3.2460    1.2887   -0.4170 H   0  0  0  0  0  0  0  0  0  0  0  0
   -2.8545    0.6085   -2.0249 H   0  0  0  0  0  0  0  0  0  0  0  0
   -5.9892   -0.9401    2.1777 H   0  0  0  0  0  0  0  0  0  0  0  0
   -5.7010   -2.4324    1.2591 H   0  0  0  0  0  0  0  0  0  0  0  0
   -7.4701   -1.9632   -0.2853 H   0  0  0  0  0  0  0  0  0  0  0  0
   -8.0859   -1.7184    1.4202 H   0  0  0  0  0  0  0  0  0  0  0  0
   -7.1520   -0.4591   -1.5339 H   0  0  0  0  0  0  0  0  0  0  0  0
   -7.4157    1.3010   -1.1422 H   0  0  0  0  0  0  0  0  0  0  0  0
   -5.0818    0.5053   -1.4421 H   0  0  0  0  0  0  0  0  0  0  0  0
   -5.5005    1.4391    0.0783 H   0  0  0  0  0  0  0  0  0  0  0  0
   -1.8072   -2.6008   -0.1627 H   0  0  0  0  0  0  0  0  0  0  0  0
   -0.8709   -1.5128   -1.2327 H   0  0  0  0  0  0  0  0  0  0  0  0
   -1.1004   -1.0785    1.7829 H   0  0  0  0  0  0  0  0  0  0  0  0
    0.1767   -2.1217    1.0026 H   0  0  0  0  0  0  0  0  0  0  0  0
  1  2  2  0
  2  3  1  0
  3  4  1  0
  4  5  2  0
  4  6  1  0
  6  7  1  0
  7  8  2  0
  8  9  1  0
  9 10  2  0
 10 11  1  0
 11 12  2  0
 12 13  1  0
 13 14  2  0
 14 15  1  0
  6 16  2  0
 16 17  1  0
 17 18  2  0
 18 19  1  0
 19 20  1  0
 20 21  2  0
 21 22  1  0
 22 23  2  0
 23 24  1  0
 24 25  2  0
 21 26  1  0
 26 27  1  0
 27 28  1  0
 28 29  2  0
 28 30  1  0
 30 31  1  0
 31 32  1  0
 32 33  1  0
 33 34  1  0
 34 35  1  0
 27 36  1  0
 36 37  1  0
 16  2  1  0
 25 17  1  0
 35 30  1  0
 15  7  1  0
 37 19  1  0
 15 10  1  0
 25 20  1  0
  3 38  1  0
  8 39  1  0
 11 40  1  0
 12 41  1  0
 13 42  1  0
 14 43  1  0
 18 44  1  0
 22 45  1  0
 23 46  1  0
 24 47  1  0
 26 48  1  0
 26 49  1  0
 31 50  1  0
 31 51  1  0
 32 52  1  0
 32 53  1  0
 34 54  1  0
 34 55  1  0
 35 56  1  0
 35 57  1  0
 36 58  1  0
 36 59  1  0
 37 60  1  0
 37 61  1  0
M  END
$$$$
