@<TRIPOS>MOLECULE
*****
 61 67 0 0 0
SMALL
GASTEIGER

@<TRIPOS>ATOM
      1 O           2.6551    4.0009    1.3627 O.2     1  UNL1       -0.2697
      2 C           3.6096    3.2504    1.0135 C.2     1  UNL1        0.2519
      3 N           4.9701    3.5835    1.0147 N.am    1  UNL1       -0.2482
      4 C           5.6451    2.4459    0.5535 C.2     1  UNL1        0.2533
      5 O           6.9045    2.2977    0.3922 O.2     1  UNL1       -0.2697
      6 C           4.6228    1.3926    0.2687 C.2     1  UNL1        0.0751
      7 C           5.0054    0.0711   -0.2123 C.ar    1  UNL1        0.0789
      8 C           5.4951   -0.1513   -1.4989 C.ar    1  UNL1        0.0545
      9 N           5.8130   -1.4462   -1.6363 N.ar    1  UNL1       -0.2355
     10 C           5.5399   -2.0517   -0.4736 C.ar    1  UNL1        0.1380
     11 C           5.7118   -3.3725   -0.1220 C.ar    1  UNL1       -0.0188
     12 C           5.3696   -3.7431    1.1566 C.ar    1  UNL1       -0.0569
     13 C           4.8684   -2.7765    2.0335 C.ar    1  UNL1       -0.0450
     14 C           4.7111   -1.4672    1.6425 C.ar    1  UNL1        0.0118
     15 N           5.0468   -1.1064    0.3862 N.ar    1  UNL1       -0.2991
     16 C           3.4139    1.8439    0.5318 C.2     1  UNL1        0.0604
     17 C           2.1057    1.2191    0.4218 C.ar    1  UNL1        0.0131
     18 C           1.6179    0.0561    0.9230 C.ar    1  UNL1        0.0137
     19 N           0.3194   -0.1069    0.5204 N.ar    1  UNL1       -0.3443
     20 C          -0.0622    0.9293   -0.2407 C.ar    1  UNL1        0.0544
     21 C          -1.2239    1.2410   -0.8801 C.ar    1  UNL1       -0.0060
     22 C          -1.3137    2.4173   -1.6242 C.ar    1  UNL1       -0.0551
     23 C          -0.2443    3.2511   -1.7091 C.ar    1  UNL1       -0.0607
     24 C           0.9337    2.9201   -1.0497 C.ar    1  UNL1       -0.0520
     25 C           1.0436    1.7636   -0.3101 C.ar    1  UNL1        0.0081
     26 C          -2.5788    0.5694   -0.9652 C.3     1  UNL1        0.0432
     27 N          -2.5776   -0.6919   -0.3355 N.am    1  UNL1       -0.2794
     28 C          -3.7530   -1.1758    0.2665 C.2     1  UNL1        0.3053
     29 O          -3.5744   -2.3007    0.9126 O.2     1  UNL1       -0.2524
     30 N          -5.0653   -0.6468    0.2810 N.am    1  UNL1       -0.2811
     31 C          -6.0071   -1.3898    1.1389 C.3     1  UNL1        0.0396
     32 C          -7.3979   -1.3541    0.6303 C.3     1  UNL1        0.0635
     33 O          -7.7535   -0.0082    0.3789 O.3     1  UNL1       -0.3767
     34 C          -7.0644    0.3192   -0.7714 C.3     1  UNL1        0.0635
     35 C          -5.5795    0.4611   -0.4368 C.3     1  UNL1        0.0396
     36 C          -1.4096   -1.5907   -0.2836 C.3     1  UNL1        0.0345
     37 C          -0.4962   -1.2577    0.8766 C.3     1  UNL1        0.0392
     38 H           5.4088    4.4831    1.2954 H       1  UNL1        0.1581
     39 H           5.6019    0.6112   -2.2687 H       1  UNL1        0.0852
     40 H           6.0990   -4.0756   -0.8282 H       1  UNL1        0.0654
     41 H           5.4767   -4.7542    1.5005 H       1  UNL1        0.0619
     42 H           4.5881   -3.0210    3.0448 H       1  UNL1        0.0632
     43 H           4.3279   -0.7392    2.3260 H       1  UNL1        0.0813
     44 H           2.0830   -0.6700    1.5448 H       1  UNL1        0.0815
     45 H          -2.2340    2.6794   -2.1424 H       1  UNL1        0.0621
     46 H          -0.2996    4.1554   -2.2754 H       1  UNL1        0.0618
     47 H           1.7452    3.6194   -1.1583 H       1  UNL1        0.0624
     48 H          -3.2460    1.2887   -0.4170 H       1  UNL1        0.0515
     49 H          -2.8545    0.6085   -2.0249 H       1  UNL1        0.0515
     50 H          -5.9892   -0.9401    2.1777 H       1  UNL1        0.0488
     51 H          -5.7010   -2.4324    1.2591 H       1  UNL1        0.0488
     52 H          -7.4701   -1.9632   -0.2853 H       1  UNL1        0.0575
     53 H          -8.0859   -1.7184    1.4202 H       1  UNL1        0.0575
     54 H          -7.1520   -0.4591   -1.5339 H       1  UNL1        0.0575
     55 H          -7.4157    1.3010   -1.1422 H       1  UNL1        0.0575
     56 H          -5.0818    0.5053   -1.4421 H       1  UNL1        0.0488
     57 H          -5.5005    1.4391    0.0783 H       1  UNL1        0.0488
     58 H          -1.8072   -2.6008   -0.1627 H       1  UNL1        0.0483
     59 H          -0.8709   -1.5128   -1.2327 H       1  UNL1        0.0483
     60 H          -1.1004   -1.0785    1.7829 H       1  UNL1        0.0507
     61 H           0.1767   -2.1217    1.0026 H       1  UNL1        0.0507
@<TRIPOS>BOND
     1     1     2    2
     2     2     3   am
     3     3     4   am
     4     4     5    2
     5     4     6    1
     6     6     7    1
     7     7     8   ar
     8     8     9   ar
     9     9    10   ar
    10    10    11   ar
    11    11    12   ar
    12    12    13   ar
    13    13    14   ar
    14    14    15   ar
    15     6    16    2
    16    16    17    1
    17    17    18   ar
    18    18    19   ar
    19    19    20   ar
    20    20    21   ar
    21    21    22   ar
    22    22    23   ar
    23    23    24   ar
    24    24    25   ar
    25    21    26    1
    26    26    27    1
    27    27    28   am
    28    28    29    2
    29    28    30   am
    30    30    31    1
    31    31    32    1
    32    32    33    1
    33    33    34    1
    34    34    35    1
    35    27    36    1
    36    36    37    1
    37    16     2    1
    38    25    17   ar
    39    35    30    1
    40    15     7   ar
    41    37    19    1
    42    15    10   ar
    43    25    20   ar
    44     3    38    1
    45     8    39    1
    46    11    40    1
    47    12    41    1
    48    13    42    1
    49    14    43    1
    50    18    44    1
    51    22    45    1
    52    23    46    1
    53    24    47    1
    54    26    48    1
    55    26    49    1
    56    31    50    1
    57    31    51    1
    58    32    52    1
    59    32    53    1
    60    34    54    1
    61    34    55    1
    62    35    56    1
    63    35    57    1
    64    36    58    1
    65    36    59    1
    66    37    60    1
    67    37    61    1
