
     RDKit          3D

 63 69  0  0  0  0  0  0  0  0999 V2000
   -0.1271   -4.4301   -1.9205 C   0  0  0  0  0  0  0  0  0  0  0  0
    0.0788   -3.2006   -1.0185 C   0  0  0  0  0  0  0  0  0  0  0  0
   -0.9134   -3.3023    0.0982 C   0  0  0  0  0  0  0  0  0  0  0  0
   -0.0095   -1.9517   -1.8614 C   0  0  0  0  0  0  0  0  0  0  0  0
    0.1785   -0.8046   -1.0420 N   0  0  0  0  0  0  0  0  0  0  0  0
    1.4448   -0.3082   -0.7748 C   0  0  0  0  0  0  0  0  0  0  0  0
    2.6746   -0.7668   -1.1802 C   0  0  0  0  0  0  0  0  0  0  0  0
    3.7913   -0.0646   -0.7529 C   0  0  0  0  0  0  0  0  0  0  0  0
    3.6588    1.0458    0.0453 C   0  0  0  0  0  0  0  0  0  0  0  0
    4.8027    1.7847    0.5024 N   0  0  0  0  0  0  0  0  0  0  0  0
    6.1055    1.3679    0.1210 C   0  0  0  0  0  0  0  0  0  0  0  0
    6.6785    1.8721   -0.9765 N   0  0  0  0  0  0  0  0  0  0  0  0
    7.9127    1.5181   -1.3955 C   0  0  0  0  0  0  0  0  0  0  0  0
    8.5976    0.5916   -0.6425 C   0  0  0  0  0  0  0  0  0  0  0  0
    7.9768    0.0784    0.5016 C   0  0  0  0  0  0  0  0  0  0  0  0
    6.7468    0.4726    0.8635 N   0  0  0  0  0  0  0  0  0  0  0  0
    2.4047    1.5054    0.4527 C   0  0  0  0  0  0  0  0  0  0  0  0
    1.3111    0.7931    0.0170 C   0  0  0  0  0  0  0  0  0  0  0  0
   -0.0460    0.9786    0.2408 C   0  0  0  0  0  0  0  0  0  0  0  0
   -0.7524    1.9111    0.9569 C   0  0  0  0  0  0  0  0  0  0  0  0
   -2.1399    1.9241    1.0689 C   0  0  0  0  0  0  0  0  0  0  0  0
   -2.7891    0.8982    0.3856 C   0  0  0  0  0  0  0  0  0  0  0  0
   -2.0797   -0.0575   -0.3558 C   0  0  0  0  0  0  0  0  0  0  0  0
   -0.7249   -0.0288   -0.4297 C   0  0  0  0  0  0  0  0  0  0  0  0
   -2.9293   -0.9366   -1.1752 C   0  0  0  0  0  0  0  0  0  0  0  0
   -3.9605   -1.5851   -0.3058 C   0  0  0  0  0  0  0  0  0  0  0  0
   -4.8005   -0.4743    0.2201 C   0  0  0  0  0  0  0  0  0  0  0  0
   -6.1245   -0.3684    0.4622 N   0  0  0  0  0  0  0  0  0  0  0  0
   -6.3875    0.7845    1.0355 N   0  0  0  0  0  0  0  0  0  0  0  0
   -7.6942    1.2696    1.4534 C   0  0  0  0  0  0  0  0  0  0  0  0
   -5.2176    1.4850    1.1875 C   0  0  0  0  0  0  0  0  0  0  0  0
   -4.2238    0.6970    0.6751 C   0  0  0  0  0  0  0  0  0  0  0  0
   -2.5391    3.0145    1.8981 C   0  0  0  0  0  0  0  0  0  0  0  0
   -3.6370    3.4093    2.2719 O   0  0  0  0  0  0  0  0  0  0  0  0
   -1.3269    3.6949    2.3049 N   0  0  0  0  0  0  0  0  0  0  0  0
   -0.1952    3.0515    1.7369 C   0  0  0  0  0  0  0  0  0  0  0  0
    0.7838   -4.6729   -2.4891 H   0  0  0  0  0  0  0  0  0  0  0  0
   -0.4987   -5.2941   -1.3329 H   0  0  0  0  0  0  0  0  0  0  0  0
   -0.9194   -4.2055   -2.6741 H   0  0  0  0  0  0  0  0  0  0  0  0
    1.0844   -3.3062   -0.5452 H   0  0  0  0  0  0  0  0  0  0  0  0
   -0.8942   -2.4059    0.7384 H   0  0  0  0  0  0  0  0  0  0  0  0
   -1.9215   -3.6045   -0.2529 H   0  0  0  0  0  0  0  0  0  0  0  0
   -0.5436   -4.1537    0.7483 H   0  0  0  0  0  0  0  0  0  0  0  0
   -0.8653   -2.0454   -2.5002 H   0  0  0  0  0  0  0  0  0  0  0  0
    0.9315   -2.0873   -2.5371 H   0  0  0  0  0  0  0  0  0  0  0  0
    2.7610   -1.6434   -1.8079 H   0  0  0  0  0  0  0  0  0  0  0  0
    4.7657   -0.4230   -1.0705 H   0  0  0  0  0  0  0  0  0  0  0  0
    4.6988    2.6202    1.1073 H   0  0  0  0  0  0  0  0  0  0  0  0
    8.3481    1.9505   -2.2955 H   0  0  0  0  0  0  0  0  0  0  0  0
    9.6082    0.2601   -0.9298 H   0  0  0  0  0  0  0  0  0  0  0  0
    8.5482   -0.6590    1.0813 H   0  0  0  0  0  0  0  0  0  0  0  0
    2.3077    2.3661    1.0690 H   0  0  0  0  0  0  0  0  0  0  0  0
   -3.5815   -0.1520   -1.7649 H   0  0  0  0  0  0  0  0  0  0  0  0
   -2.5608   -1.5152   -1.9633 H   0  0  0  0  0  0  0  0  0  0  0  0
   -4.6065   -2.2935   -0.8351 H   0  0  0  0  0  0  0  0  0  0  0  0
   -3.4889   -2.0365    0.6053 H   0  0  0  0  0  0  0  0  0  0  0  0
   -7.6182    1.4028    2.5621 H   0  0  0  0  0  0  0  0  0  0  0  0
   -7.9610    2.2221    0.9656 H   0  0  0  0  0  0  0  0  0  0  0  0
   -8.4474    0.4831    1.2741 H   0  0  0  0  0  0  0  0  0  0  0  0
   -5.2073    2.4428    1.6033 H   0  0  0  0  0  0  0  0  0  0  0  0
   -1.3300    4.5407    2.9316 H   0  0  0  0  0  0  0  0  0  0  0  0
    0.4695    2.5832    2.5221 H   0  0  0  0  0  0  0  0  0  0  0  0
    0.3925    3.7580    1.1216 H   0  0  0  0  0  0  0  0  0  0  0  0
  1  2  1  0
  2  3  1  0
  2  4  1  0
  4  5  1  0
  5  6  1  0
  6  7  2  0
  7  8  1  0
  8  9  2  0
  9 10  1  0
 10 11  1  0
 11 12  2  0
 12 13  1  0
 13 14  2  0
 14 15  1  0
 15 16  2  0
  9 17  1  0
 17 18  2  0
 18 19  1  0
 19 20  2  0
 20 21  1  0
 21 22  2  0
 22 23  1  0
 23 24  2  0
 23 25  1  0
 25 26  1  0
 26 27  1  0
 27 28  2  0
 28 29  1  0
 29 30  1  0
 29 31  1  0
 31 32  2  0
 21 33  1  0
 33 34  2  0
 33 35  1  0
 35 36  1  0
 24  5  1  0
 32 27  1  0
 18  6  1  0
 24 19  1  0
 16 11  1  0
 36 20  1  0
 32 22  1  0
  1 37  1  0
  1 38  1  0
  1 39  1  0
  2 40  1  0
  3 41  1  0
  3 42  1  0
  3 43  1  0
  4 44  1  0
  4 45  1  0
  7 46  1  0
  8 47  1  0
 10 48  1  0
 13 49  1  0
 14 50  1  0
 15 51  1  0
 17 52  1  0
 25 53  1  0
 25 54  1  0
 26 55  1  0
 26 56  1  0
 30 57  1  0
 30 58  1  0
 30 59  1  0
 31 60  1  0
 35 61  1  0
 36 62  1  0
 36 63  1  0
M  END
$$$$
