@<TRIPOS>MOLECULE
*****
 63 69 0 0 0
SMALL
GASTEIGER

@<TRIPOS>ATOM
      1 C          -0.1271   -4.4301   -1.9205 C.3     1  UNL1       -0.0610
      2 C           0.0788   -3.2006   -1.0185 C.3     1  UNL1       -0.0287
      3 C          -0.9134   -3.3023    0.0982 C.3     1  UNL1       -0.0610
      4 C          -0.0095   -1.9517   -1.8614 C.3     1  UNL1        0.0262
      5 N           0.1785   -0.8046   -1.0420 N.ar    1  UNL1       -0.3393
      6 C           1.4448   -0.3082   -0.7748 C.ar    1  UNL1        0.0502
      7 C           2.6746   -0.7668   -1.1802 C.ar    1  UNL1       -0.0358
      8 C           3.7913   -0.0646   -0.7529 C.ar    1  UNL1       -0.0385
      9 C           3.6588    1.0458    0.0453 C.ar    1  UNL1        0.0343
     10 N           4.8027    1.7847    0.5024 N.pl3   1  UNL1       -0.2836
     11 C           6.1055    1.3679    0.1210 C.ar    1  UNL1        0.2194
     12 N           6.6785    1.8721   -0.9765 N.ar    1  UNL1       -0.2227
     13 C           7.9127    1.5181   -1.3955 C.ar    1  UNL1        0.0326
     14 C           8.5976    0.5916   -0.6425 C.ar    1  UNL1       -0.0253
     15 C           7.9768    0.0784    0.5016 C.ar    1  UNL1        0.0326
     16 N           6.7468    0.4726    0.8635 N.ar    1  UNL1       -0.2227
     17 C           2.4047    1.5054    0.4527 C.ar    1  UNL1       -0.0307
     18 C           1.3111    0.7931    0.0170 C.ar    1  UNL1        0.0097
     19 C          -0.0460    0.9786    0.2408 C.ar    1  UNL1        0.0133
     20 C          -0.7524    1.9111    0.9569 C.ar    1  UNL1       -0.0079
     21 C          -2.1399    1.9241    1.0689 C.ar    1  UNL1        0.0501
     22 C          -2.7891    0.8982    0.3856 C.ar    1  UNL1        0.0029
     23 C          -2.0797   -0.0575   -0.3558 C.ar    1  UNL1       -0.0144
     24 C          -0.7249   -0.0288   -0.4297 C.ar    1  UNL1        0.0543
     25 C          -2.9293   -0.9366   -1.1752 C.3     1  UNL1       -0.0196
     26 C          -3.9605   -1.5851   -0.3058 C.3     1  UNL1       -0.0040
     27 C          -4.8005   -0.4743    0.2201 C.ar    1  UNL1        0.0710
     28 N          -6.1245   -0.3684    0.4622 N.ar    1  UNL1       -0.1758
     29 N          -6.3875    0.7845    1.0355 N.ar    1  UNL1       -0.2736
     30 C          -7.6942    1.2696    1.4534 C.3     1  UNL1        0.0302
     31 C          -5.2176    1.4850    1.1875 C.ar    1  UNL1        0.0332
     32 C          -4.2238    0.6970    0.6751 C.ar    1  UNL1        0.0238
     33 C          -2.5391    3.0145    1.8981 C.2     1  UNL1        0.2453
     34 O          -3.6370    3.4093    2.2719 O.2     1  UNL1       -0.2702
     35 N          -1.3269    3.6949    2.3049 N.am    1  UNL1       -0.3072
     36 C          -0.1952    3.0515    1.7369 C.3     1  UNL1        0.0385
     37 H           0.7838   -4.6729   -2.4891 H       1  UNL1        0.0233
     38 H          -0.4987   -5.2941   -1.3329 H       1  UNL1        0.0233
     39 H          -0.9194   -4.2055   -2.6741 H       1  UNL1        0.0233
     40 H           1.0844   -3.3062   -0.5452 H       1  UNL1        0.0313
     41 H          -0.8942   -2.4059    0.7384 H       1  UNL1        0.0233
     42 H          -1.9215   -3.6045   -0.2529 H       1  UNL1        0.0233
     43 H          -0.5436   -4.1537    0.7483 H       1  UNL1        0.0233
     44 H          -0.8653   -2.0454   -2.5002 H       1  UNL1        0.0494
     45 H           0.9315   -2.0873   -2.5371 H       1  UNL1        0.0494
     46 H           2.7610   -1.6434   -1.8079 H       1  UNL1        0.0639
     47 H           4.7657   -0.4230   -1.0705 H       1  UNL1        0.0637
     48 H           4.6988    2.6202    1.1073 H       1  UNL1        0.1550
     49 H           8.3481    1.9505   -2.2955 H       1  UNL1        0.0831
     50 H           9.6082    0.2601   -0.9298 H       1  UNL1        0.0648
     51 H           8.5482   -0.6590    1.0813 H       1  UNL1        0.0831
     52 H           2.3077    2.3661    1.0690 H       1  UNL1        0.0643
     53 H          -3.5815   -0.1520   -1.7649 H       1  UNL1        0.0318
     54 H          -2.5608   -1.5152   -1.9633 H       1  UNL1        0.0318
     55 H          -4.6065   -2.2935   -0.8351 H       1  UNL1        0.0332
     56 H          -3.4889   -2.0365    0.6053 H       1  UNL1        0.0332
     57 H          -7.6182    1.4028    2.5621 H       1  UNL1        0.0473
     58 H          -7.9610    2.2221    0.9656 H       1  UNL1        0.0473
     59 H          -8.4474    0.4831    1.2741 H       1  UNL1        0.0473
     60 H          -5.2073    2.4428    1.6033 H       1  UNL1        0.0832
     61 H          -1.3300    4.5407    2.9316 H       1  UNL1        0.1493
     62 H           0.4695    2.5832    2.5221 H       1  UNL1        0.0512
     63 H           0.3925    3.7580    1.1216 H       1  UNL1        0.0512
@<TRIPOS>BOND
     1     1     2    1
     2     2     3    1
     3     2     4    1
     4     4     5    1
     5     5     6   ar
     6     6     7   ar
     7     7     8   ar
     8     8     9   ar
     9     9    10    1
    10    10    11    1
    11    11    12   ar
    12    12    13   ar
    13    13    14   ar
    14    14    15   ar
    15    15    16   ar
    16     9    17   ar
    17    17    18   ar
    18    18    19   ar
    19    19    20   ar
    20    20    21   ar
    21    21    22   ar
    22    22    23   ar
    23    23    24   ar
    24    23    25    1
    25    25    26    1
    26    26    27    1
    27    27    28   ar
    28    28    29   ar
    29    29    30    1
    30    29    31   ar
    31    31    32   ar
    32    21    33    1
    33    33    34    2
    34    33    35   am
    35    35    36    1
    36    24     5   ar
    37    32    27   ar
    38    18     6   ar
    39    24    19   ar
    40    16    11   ar
    41    36    20    1
    42    32    22    1
    43     1    37    1
    44     1    38    1
    45     1    39    1
    46     2    40    1
    47     3    41    1
    48     3    42    1
    49     3    43    1
    50     4    44    1
    51     4    45    1
    52     7    46    1
    53     8    47    1
    54    10    48    1
    55    13    49    1
    56    14    50    1
    57    15    51    1
    58    17    52    1
    59    25    53    1
    60    25    54    1
    61    26    55    1
    62    26    56    1
    63    30    57    1
    64    30    58    1
    65    30    59    1
    66    31    60    1
    67    35    61    1
    68    36    62    1
    69    36    63    1
