@<TRIPOS>MOLECULE
*****
 55 58 0 0 0
SMALL
GASTEIGER

@<TRIPOS>ATOM
      1 O           2.7200   -2.1253    1.5342 O.2     1  UNL1       -0.2960
      2 C           3.0738   -1.0495    1.1102 C.2     1  UNL1        0.1561
      3 C           4.0727   -0.9004   -0.0019 C.3     1  UNL1        0.0297
      4 C           5.1846   -0.0214    0.5307 C.3     1  UNL1        0.0550
      5 C           6.3463    0.0267   -0.3896 C.ar    1  UNL1       -0.0268
      6 C           6.3410    0.7413   -1.5644 C.ar    1  UNL1       -0.0568
      7 C           7.4632    0.7329   -2.3629 C.ar    1  UNL1       -0.0614
      8 C           8.6114    0.0303   -2.0351 C.ar    1  UNL1       -0.0617
      9 C           8.5975   -0.6781   -0.8566 C.ar    1  UNL1       -0.0614
     10 C           7.4733   -0.6808   -0.0385 C.ar    1  UNL1       -0.0568
     11 N           4.6126    1.3019    0.7349 N.am    1  UNL1       -0.3071
     12 C           3.2581    1.3837    1.1660 C.2     1  UNL1        0.2327
     13 O           2.6829    2.5057    1.0941 O.2     1  UNL1       -0.2745
     14 C           2.5195    0.2056    1.6879 C.3     1  UNL1        0.1695
     15 C           1.1045    0.3285    1.2543 C.2     1  UNL1        0.2364
     16 O           0.7160    1.3042    0.5848 O.2     1  UNL1       -0.2742
     17 N           0.1230   -0.6527    1.5769 N.am    1  UNL1       -0.2845
     18 C          -1.2221   -0.4960    1.1415 C.ar    1  UNL1        0.0334
     19 C          -1.6448   -0.9978   -0.0715 C.ar    1  UNL1       -0.0402
     20 C          -2.9653   -0.8412   -0.4936 C.ar    1  UNL1       -0.0566
     21 C          -3.8722   -0.1773    0.3032 C.ar    1  UNL1       -0.0442
     22 C          -5.2706    0.0232   -0.0761 C.3     1  UNL1       -0.0158
     23 C          -5.2746    0.7953   -1.3983 C.3     1  UNL1       -0.0462
     24 C          -6.6332    1.4637   -1.4880 C.3     1  UNL1       -0.0525
     25 C          -7.6368    0.5830   -0.7991 C.3     1  UNL1       -0.0530
     26 C          -7.3402   -0.8920   -0.9722 C.3     1  UNL1       -0.0525
     27 C          -6.0155   -1.2634   -0.3342 C.3     1  UNL1       -0.0462
     28 C          -3.4238    0.3139    1.5098 C.ar    1  UNL1       -0.0566
     29 C          -2.1249    0.1698    1.9443 C.ar    1  UNL1       -0.0402
     30 H           4.4397   -1.8698   -0.3668 H       1  UNL1        0.0363
     31 H           3.5705   -0.3036   -0.8098 H       1  UNL1        0.0363
     32 H           5.4741   -0.3963    1.5172 H       1  UNL1        0.0552
     33 H           5.4381    1.2885   -1.8134 H       1  UNL1        0.0621
     34 H           7.4620    1.2897   -3.2804 H       1  UNL1        0.0618
     35 H           9.4754    0.0382   -2.6736 H       1  UNL1        0.0618
     36 H           9.4725   -1.2573   -0.5346 H       1  UNL1        0.0618
     37 H           7.4797   -1.2473    0.8913 H       1  UNL1        0.0621
     38 H           5.1267    2.1868    0.5871 H       1  UNL1        0.1493
     39 H           2.6217    0.2285    2.7964 H       1  UNL1        0.0569
     40 H           0.4218   -1.4793    2.1363 H       1  UNL1        0.1548
     41 H          -0.9585   -1.5207   -0.7145 H       1  UNL1        0.0636
     42 H          -3.3051   -1.2283   -1.4369 H       1  UNL1        0.0621
     43 H          -5.8150    0.5723    0.6964 H       1  UNL1        0.0349
     44 H          -5.0857    0.1324   -2.2438 H       1  UNL1        0.0271
     45 H          -4.4854    1.5664   -1.3500 H       1  UNL1        0.0271
     46 H          -6.5457    2.4145   -0.8851 H       1  UNL1        0.0265
     47 H          -6.9018    1.6835   -2.5387 H       1  UNL1        0.0265
     48 H          -8.6191    0.7581   -1.3106 H       1  UNL1        0.0265
     49 H          -7.7908    0.8509    0.2717 H       1  UNL1        0.0265
     50 H          -8.1869   -1.4444   -0.5244 H       1  UNL1        0.0265
     51 H          -7.2423   -1.0703   -2.0576 H       1  UNL1        0.0265
     52 H          -5.4416   -1.9744   -0.9570 H       1  UNL1        0.0271
     53 H          -6.2178   -1.7438    0.6239 H       1  UNL1        0.0271
     54 H          -4.1075    0.8432    2.1666 H       1  UNL1        0.0621
     55 H          -1.7555    0.5487    2.8878 H       1  UNL1        0.0636
@<TRIPOS>BOND
     1     1     2    2
     2     2     3    1
     3     3     4    1
     4     4     5    1
     5     5     6   ar
     6     6     7   ar
     7     7     8   ar
     8     8     9   ar
     9     9    10   ar
    10     4    11    1
    11    11    12   am
    12    12    13    2
    13    12    14    1
    14    14    15    1
    15    15    16    2
    16    15    17   am
    17    17    18    1
    18    18    19   ar
    19    19    20   ar
    20    20    21   ar
    21    21    22    1
    22    22    23    1
    23    23    24    1
    24    24    25    1
    25    25    26    1
    26    26    27    1
    27    21    28   ar
    28    28    29   ar
    29    14     2    1
    30    29    18   ar
    31    10     5   ar
    32    27    22    1
    33     3    30    1
    34     3    31    1
    35     4    32    1
    36     6    33    1
    37     7    34    1
    38     8    35    1
    39     9    36    1
    40    10    37    1
    41    11    38    1
    42    14    39    1
    43    17    40    1
    44    19    41    1
    45    20    42    1
    46    22    43    1
    47    23    44    1
    48    23    45    1
    49    24    46    1
    50    24    47    1
    51    25    48    1
    52    25    49    1
    53    26    50    1
    54    26    51    1
    55    27    52    1
    56    27    53    1
    57    28    54    1
    58    29    55    1
