
     RDKit          3D

 34 37  0  0  0  0  0  0  0  0999 V2000
    3.8381    1.1829    0.2915 C   0  0  0  0  0  0  0  0  0  0  0  0
    2.8434    0.1150    0.4965 C   0  0  0  0  0  0  0  0  0  0  0  0
    3.1205   -1.0752    1.1254 C   0  0  0  0  0  0  0  0  0  0  0  0
    2.1426   -2.0393    1.2867 C   0  0  0  0  0  0  0  0  0  0  0  0
    0.9154   -1.7789    0.8112 N   0  0  0  0  0  0  0  0  0  0  0  0
    0.5668   -0.6510    0.1900 C   0  0  0  0  0  0  0  0  0  0  0  0
    1.5620    0.3148    0.0334 C   0  0  0  0  0  0  0  0  0  0  0  0
    1.4109    1.5932   -0.5897 N   0  0  0  0  0  0  0  0  0  0  0  0
    0.2091    2.3403   -0.7672 C   0  0  0  0  0  0  0  0  0  0  0  0
    0.3594    3.5501   -1.0816 O   0  0  0  0  0  0  0  0  0  0  0  0
   -1.1615    1.8536   -0.6238 C   0  0  0  0  0  0  0  0  0  0  0  0
   -2.0910    2.8545   -0.7592 C   0  0  0  0  0  0  0  0  0  0  0  0
   -3.4320    2.5502   -0.6519 C   0  0  0  0  0  0  0  0  0  0  0  0
   -3.8092    1.2387   -0.4095 C   0  0  0  0  0  0  0  0  0  0  0  0
   -2.8604    0.2816   -0.2825 N   0  0  0  0  0  0  0  0  0  0  0  0
   -1.5618    0.5422   -0.3804 C   0  0  0  0  0  0  0  0  0  0  0  0
   -0.7872   -0.6346   -0.2072 N   0  0  0  0  0  0  0  0  0  0  0  0
   -1.4304   -1.8603   -0.4536 C   0  0  0  0  0  0  0  0  0  0  0  0
   -0.9204   -3.2137   -0.3979 C   0  0  0  0  0  0  0  0  0  0  0  0
   -1.6634   -2.7058    0.8191 C   0  0  0  0  0  0  0  0  0  0  0  0
    4.7733    0.9252    0.8372 H   0  0  0  0  0  0  0  0  0  0  0  0
    4.1311    1.2208   -0.7891 H   0  0  0  0  0  0  0  0  0  0  0  0
    3.4979    2.1627    0.6725 H   0  0  0  0  0  0  0  0  0  0  0  0
    4.1068   -1.2676    1.4997 H   0  0  0  0  0  0  0  0  0  0  0  0
    2.4140   -2.9526    1.7865 H   0  0  0  0  0  0  0  0  0  0  0  0
    2.2608    2.0347   -0.9541 H   0  0  0  0  0  0  0  0  0  0  0  0
   -1.7282    3.8590   -0.9478 H   0  0  0  0  0  0  0  0  0  0  0  0
   -4.1634    3.3385   -0.7585 H   0  0  0  0  0  0  0  0  0  0  0  0
   -4.8594    1.0374   -0.3319 H   0  0  0  0  0  0  0  0  0  0  0  0
   -2.3995   -1.7329   -1.0160 H   0  0  0  0  0  0  0  0  0  0  0  0
    0.0847   -3.5717   -0.2256 H   0  0  0  0  0  0  0  0  0  0  0  0
   -1.5425   -3.9845   -0.9715 H   0  0  0  0  0  0  0  0  0  0  0  0
   -1.1287   -2.4559    1.7348 H   0  0  0  0  0  0  0  0  0  0  0  0
   -2.6975   -3.0714    1.0143 H   0  0  0  0  0  0  0  0  0  0  0  0
  1  2  1  0
  2  3  2  0
  3  4  1  0
  4  5  2  0
  5  6  1  0
  6  7  2  0
  7  8  1  0
  8  9  1  0
  9 10  2  0
  9 11  1  0
 11 12  2  0
 12 13  1  0
 13 14  2  0
 14 15  1  0
 15 16  2  0
 16 17  1  0
 17 18  1  0
 18 19  1  0
 19 20  1  0
  7  2  1  0
 16 11  1  0
 20 18  1  0
 17  6  1  0
  1 21  1  0
  1 22  1  0
  1 23  1  0
  3 24  1  0
  4 25  1  0
  8 26  1  0
 12 27  1  0
 13 28  1  0
 14 29  1  0
 18 30  1  0
 19 31  1  0
 19 32  1  0
 20 33  1  0
 20 34  1  0
M  END
$$$$
