@<TRIPOS>MOLECULE
*****
 34 37 0 0 0
SMALL
GASTEIGER

@<TRIPOS>ATOM
      1 C           3.8381    1.1829    0.2915 C.3     1  UNL1       -0.0378
      2 C           2.8434    0.1150    0.4965 C.ar    1  UNL1       -0.0244
      3 C           3.1205   -1.0752    1.1254 C.ar    1  UNL1       -0.0388
      4 C           2.1426   -2.0393    1.2867 C.ar    1  UNL1        0.0301
      5 N           0.9154   -1.7789    0.8112 N.ar    1  UNL1       -0.2380
      6 C           0.5668   -0.6510    0.1900 C.ar    1  UNL1        0.1485
      7 C           1.5620    0.3148    0.0334 C.ar    1  UNL1        0.0774
      8 N           1.4109    1.5932   -0.5897 N.am    1  UNL1       -0.2784
      9 C           0.2091    2.3403   -0.7672 C.2     1  UNL1        0.2517
     10 O           0.3594    3.5501   -1.0816 O.2     1  UNL1       -0.2697
     11 C          -1.1615    1.8536   -0.6238 C.ar    1  UNL1        0.0772
     12 C          -2.0910    2.8545   -0.7592 C.ar    1  UNL1       -0.0449
     13 C          -3.4320    2.5502   -0.6519 C.ar    1  UNL1       -0.0427
     14 C          -3.8092    1.2387   -0.4095 C.ar    1  UNL1        0.0297
     15 N          -2.8604    0.2816   -0.2825 N.ar    1  UNL1       -0.2392
     16 C          -1.5618    0.5422   -0.3804 C.ar    1  UNL1        0.1390
     17 N          -0.7872   -0.6346   -0.2072 N.pl3   1  UNL1       -0.2649
     18 C          -1.4304   -1.8603   -0.4536 C.3     1  UNL1        0.0314
     19 C          -0.9204   -3.2137   -0.3979 C.3     1  UNL1       -0.0322
     20 C          -1.6634   -2.7058    0.8191 C.3     1  UNL1       -0.0322
     21 H           4.7733    0.9252    0.8372 H       1  UNL1        0.0278
     22 H           4.1311    1.2208   -0.7891 H       1  UNL1        0.0278
     23 H           3.4979    2.1627    0.6725 H       1  UNL1        0.0278
     24 H           4.1068   -1.2676    1.4997 H       1  UNL1        0.0636
     25 H           2.4140   -2.9526    1.7865 H       1  UNL1        0.0830
     26 H           2.2608    2.0347   -0.9541 H       1  UNL1        0.1552
     27 H          -1.7282    3.8590   -0.9478 H       1  UNL1        0.0627
     28 H          -4.1634    3.3385   -0.7585 H       1  UNL1        0.0633
     29 H          -4.8594    1.0374   -0.3319 H       1  UNL1        0.0830
     30 H          -2.3995   -1.7329   -1.0160 H       1  UNL1        0.0505
     31 H           0.0847   -3.5717   -0.2256 H       1  UNL1        0.0284
     32 H          -1.5425   -3.9845   -0.9715 H       1  UNL1        0.0284
     33 H          -1.1287   -2.4559    1.7348 H       1  UNL1        0.0284
     34 H          -2.6975   -3.0714    1.0143 H       1  UNL1        0.0284
@<TRIPOS>BOND
     1     1     2    1
     2     2     3   ar
     3     3     4   ar
     4     4     5   ar
     5     5     6   ar
     6     6     7   ar
     7     7     8    1
     8     8     9   am
     9     9    10    2
    10     9    11    1
    11    11    12   ar
    12    12    13   ar
    13    13    14   ar
    14    14    15   ar
    15    15    16   ar
    16    16    17    1
    17    17    18    1
    18    18    19    1
    19    19    20    1
    20     7     2   ar
    21    16    11   ar
    22    20    18    1
    23    17     6    1
    24     1    21    1
    25     1    22    1
    26     1    23    1
    27     3    24    1
    28     4    25    1
    29     8    26    1
    30    12    27    1
    31    13    28    1
    32    14    29    1
    33    18    30    1
    34    19    31    1
    35    19    32    1
    36    20    33    1
    37    20    34    1
