@<TRIPOS>MOLECULE
*****
 37 39 0 0 0
SMALL
GASTEIGER

@<TRIPOS>ATOM
      1 C           6.3598   -0.1606    2.4150 C.3     1  UNL1        0.0788
      2 O           5.9614    0.0548    1.0827 O.3     1  UNL1       -0.4951
      3 C           4.6059    0.0301    0.7406 C.ar    1  UNL1        0.1207
      4 C           3.6763   -0.2081    1.7300 C.ar    1  UNL1       -0.0194
      5 C           2.3382   -0.2245    1.3483 C.ar    1  UNL1       -0.0506
      6 C           1.9636   -0.0128    0.0446 C.ar    1  UNL1       -0.0170
      7 C           0.6052   -0.0373   -0.2983 C.ar    1  UNL1       -0.0432
      8 C           0.1562    0.1659   -1.5758 C.ar    1  UNL1        0.0223
      9 C          -1.2177    0.1797   -1.9860 C.2     1  UNL1        0.1861
     10 O          -1.3597    0.2973   -3.3058 O.2     1  UNL1       -0.2873
     11 C          -2.4678    0.1007   -1.3395 C.2     1  UNL1       -0.0137
     12 C          -2.8406   -0.0016   -0.0881 C.2     1  UNL1       -0.0495
     13 C          -4.2251   -0.0726    0.3844 C.ar    1  UNL1       -0.0068
     14 C          -5.3158   -0.0398   -0.4360 C.ar    1  UNL1       -0.0517
     15 C          -6.6026   -0.1146    0.1197 C.ar    1  UNL1       -0.0430
     16 C          -6.8014   -0.2203    1.4698 C.ar    1  UNL1        0.0276
     17 N          -5.7175   -0.2510    2.2596 N.ar    1  UNL1       -0.2627
     18 C          -4.4684   -0.1796    1.7358 C.ar    1  UNL1        0.0347
     19 C           1.1790    0.4009   -2.5171 C.ar    1  UNL1       -0.0503
     20 C           2.5144    0.4326   -2.2237 C.ar    1  UNL1       -0.0532
     21 C           2.9080    0.2221   -0.9211 C.ar    1  UNL1       -0.0144
     22 C           4.2541    0.2481   -0.5895 C.ar    1  UNL1       -0.0122
     23 H           5.8456    0.5526    3.0914 H       1  UNL1        0.0660
     24 H           7.4603   -0.0963    2.4682 H       1  UNL1        0.0660
     25 H           6.0928   -1.2215    2.6926 H       1  UNL1        0.0660
     26 H           3.8986   -0.3805    2.7621 H       1  UNL1        0.0654
     27 H           1.6039   -0.4101    2.1155 H       1  UNL1        0.0625
     28 H          -0.0744   -0.2417    0.5044 H       1  UNL1        0.0631
     29 H          -3.3841    0.1278   -2.0140 H       1  UNL1        0.0656
     30 H          -2.0679   -0.0237    0.6445 H       1  UNL1        0.0625
     31 H          -5.2197    0.0435   -1.5195 H       1  UNL1        0.0624
     32 H          -7.4584   -0.0882   -0.5326 H       1  UNL1        0.0633
     33 H          -7.8009   -0.2798    1.9195 H       1  UNL1        0.0829
     34 H          -3.6059   -0.2066    2.3987 H       1  UNL1        0.0835
     35 H           0.8885    0.5691   -3.5454 H       1  UNL1        0.0625
     36 H           3.2764    0.6188   -2.9856 H       1  UNL1        0.0624
     37 H           5.0396    0.4271   -1.3021 H       1  UNL1        0.0660
@<TRIPOS>BOND
     1     1     2    1
     2     2     3    1
     3     3     4   ar
     4     4     5   ar
     5     5     6   ar
     6     6     7   ar
     7     7     8   ar
     8     8     9    1
     9     9    10    2
    10     9    11    1
    11    11    12    2
    12    12    13    1
    13    13    14   ar
    14    14    15   ar
    15    15    16   ar
    16    16    17   ar
    17    17    18   ar
    18     8    19   ar
    19    19    20   ar
    20    20    21   ar
    21    21    22   ar
    22    22     3   ar
    23    21     6   ar
    24    18    13   ar
    25     1    23    1
    26     1    24    1
    27     1    25    1
    28     4    26    1
    29     5    27    1
    30     7    28    1
    31    11    29    1
    32    12    30    1
    33    14    31    1
    34    15    32    1
    35    16    33    1
    36    18    34    1
    37    19    35    1
    38    20    36    1
    39    22    37    1
