
     RDKit          3D

 37 39  0  0  0  0  0  0  0  0999 V2000
    6.3598   -0.1606    2.4150 C   0  0  0  0  0  0  0  0  0  0  0  0
    5.9614    0.0548    1.0827 O   0  0  0  0  0  0  0  0  0  0  0  0
    4.6059    0.0301    0.7406 C   0  0  0  0  0  0  0  0  0  0  0  0
    3.6763   -0.2081    1.7300 C   0  0  0  0  0  0  0  0  0  0  0  0
    2.3382   -0.2245    1.3483 C   0  0  0  0  0  0  0  0  0  0  0  0
    1.9636   -0.0128    0.0446 C   0  0  0  0  0  0  0  0  0  0  0  0
    0.6052   -0.0373   -0.2983 C   0  0  0  0  0  0  0  0  0  0  0  0
    0.1562    0.1659   -1.5758 C   0  0  0  0  0  0  0  0  0  0  0  0
   -1.2177    0.1797   -1.9860 C   0  0  0  0  0  0  0  0  0  0  0  0
   -1.3597    0.2973   -3.3058 O   0  0  0  0  0  0  0  0  0  0  0  0
   -2.4678    0.1007   -1.3395 C   0  0  0  0  0  0  0  0  0  0  0  0
   -2.8406   -0.0016   -0.0881 C   0  0  0  0  0  0  0  0  0  0  0  0
   -4.2251   -0.0726    0.3844 C   0  0  0  0  0  0  0  0  0  0  0  0
   -5.3158   -0.0398   -0.4360 C   0  0  0  0  0  0  0  0  0  0  0  0
   -6.6026   -0.1146    0.1197 C   0  0  0  0  0  0  0  0  0  0  0  0
   -6.8014   -0.2203    1.4698 C   0  0  0  0  0  0  0  0  0  0  0  0
   -5.7175   -0.2510    2.2596 N   0  0  0  0  0  0  0  0  0  0  0  0
   -4.4684   -0.1796    1.7358 C   0  0  0  0  0  0  0  0  0  0  0  0
    1.1790    0.4009   -2.5171 C   0  0  0  0  0  0  0  0  0  0  0  0
    2.5144    0.4326   -2.2237 C   0  0  0  0  0  0  0  0  0  0  0  0
    2.9080    0.2221   -0.9211 C   0  0  0  0  0  0  0  0  0  0  0  0
    4.2541    0.2481   -0.5895 C   0  0  0  0  0  0  0  0  0  0  0  0
    5.8456    0.5526    3.0914 H   0  0  0  0  0  0  0  0  0  0  0  0
    7.4603   -0.0963    2.4682 H   0  0  0  0  0  0  0  0  0  0  0  0
    6.0928   -1.2215    2.6926 H   0  0  0  0  0  0  0  0  0  0  0  0
    3.8986   -0.3805    2.7621 H   0  0  0  0  0  0  0  0  0  0  0  0
    1.6039   -0.4101    2.1155 H   0  0  0  0  0  0  0  0  0  0  0  0
   -0.0744   -0.2417    0.5044 H   0  0  0  0  0  0  0  0  0  0  0  0
   -3.3841    0.1278   -2.0140 H   0  0  0  0  0  0  0  0  0  0  0  0
   -2.0679   -0.0237    0.6445 H   0  0  0  0  0  0  0  0  0  0  0  0
   -5.2197    0.0435   -1.5195 H   0  0  0  0  0  0  0  0  0  0  0  0
   -7.4584   -0.0882   -0.5326 H   0  0  0  0  0  0  0  0  0  0  0  0
   -7.8009   -0.2798    1.9195 H   0  0  0  0  0  0  0  0  0  0  0  0
   -3.6059   -0.2066    2.3987 H   0  0  0  0  0  0  0  0  0  0  0  0
    0.8885    0.5691   -3.5454 H   0  0  0  0  0  0  0  0  0  0  0  0
    3.2764    0.6188   -2.9856 H   0  0  0  0  0  0  0  0  0  0  0  0
    5.0396    0.4271   -1.3021 H   0  0  0  0  0  0  0  0  0  0  0  0
  1  2  1  0
  2  3  1  0
  3  4  2  0
  4  5  1  0
  5  6  2  0
  6  7  1  0
  7  8  2  0
  8  9  1  0
  9 10  2  0
  9 11  1  0
 11 12  2  0
 12 13  1  0
 13 14  2  0
 14 15  1  0
 15 16  2  0
 16 17  1  0
 17 18  2  0
  8 19  1  0
 19 20  2  0
 20 21  1  0
 21 22  2  0
 22  3  1  0
 21  6  1  0
 18 13  1  0
  1 23  1  0
  1 24  1  0
  1 25  1  0
  4 26  1  0
  5 27  1  0
  7 28  1  0
 11 29  1  0
 12 30  1  0
 14 31  1  0
 15 32  1  0
 16 33  1  0
 18 34  1  0
 19 35  1  0
 20 36  1  0
 22 37  1  0
M  END
$$$$
