@<TRIPOS>MOLECULE
*****
 36 36 0 0 0
SMALL
GASTEIGER

@<TRIPOS>ATOM
      1 C          -2.8959    2.4422   -0.6089 C.3     1  UNL1       -0.0650
      2 C          -3.5756    1.1128   -0.7368 C.3     1  UNL1       -0.0518
      3 C          -3.2368    0.1049    0.2884 C.3     1  UNL1       -0.0244
      4 C          -1.8385   -0.3107    0.3973 C.ar    1  UNL1       -0.0023
      5 C          -1.3895   -1.4715   -0.2552 C.ar    1  UNL1       -0.0097
      6 C          -0.0909   -1.8943   -0.2146 C.ar    1  UNL1        0.1620
      7 O           0.3594   -3.0468   -0.8608 O.3     1  UNL1       -0.4914
      8 C          -0.4739   -3.8840   -1.6153 C.3     1  UNL1        0.0790
      9 C           0.8063   -1.1108    0.5199 C.ar    1  UNL1        0.1662
     10 O           2.1060   -1.5300    0.5600 O.3     1  UNL1       -0.4770
     11 C           3.1893   -0.9379    1.1980 C.3     1  UNL1        0.1860
     12 C           3.5006    0.4269    0.7033 C.2     1  UNL1        0.3449
     13 O           2.8769    0.9907   -0.2219 O.2     1  UNL1       -0.2470
     14 O           4.5434    1.1355    1.2906 O.3     1  UNL1       -0.4656
     15 C           4.8578    2.4390    0.8345 C.3     1  UNL1        0.0818
     16 C           0.3791    0.0243    1.1619 C.ar    1  UNL1        0.0255
     17 C          -0.9451    0.4410    1.1116 C.ar    1  UNL1        0.1237
     18 O          -1.2981    1.6195    1.8059 O.3     1  UNL1       -0.5064
     19 H          -1.8020    2.2928   -0.7493 H       1  UNL1        0.0230
     20 H          -3.2797    3.1047   -1.4355 H       1  UNL1        0.0230
     21 H          -3.1044    2.9470    0.3376 H       1  UNL1        0.0230
     22 H          -3.3636    0.7578   -1.7762 H       1  UNL1        0.0266
     23 H          -4.6947    1.2954   -0.7277 H       1  UNL1        0.0266
     24 H          -3.5127    0.5245    1.3033 H       1  UNL1        0.0314
     25 H          -3.8594   -0.8191    0.1762 H       1  UNL1        0.0314
     26 H          -2.1416   -2.0484   -0.8199 H       1  UNL1        0.0659
     27 H          -0.4331   -3.6561   -2.7100 H       1  UNL1        0.0660
     28 H          -0.0986   -4.9469   -1.5076 H       1  UNL1        0.0660
     29 H          -1.5250   -3.9102   -1.3067 H       1  UNL1        0.0660
     30 H           4.0910   -1.5899    1.0168 H       1  UNL1        0.0815
     31 H           3.0490   -0.9017    2.3197 H       1  UNL1        0.0815
     32 H           5.1788    2.3386   -0.2239 H       1  UNL1        0.0661
     33 H           3.9171    3.0429    0.8054 H       1  UNL1        0.0661
     34 H           5.6157    2.9128    1.4626 H       1  UNL1        0.0661
     35 H           1.0519    0.6557    1.7505 H       1  UNL1        0.0692
     36 H          -1.9632    1.4495    2.5760 H       1  UNL1        0.2921
@<TRIPOS>BOND
     1     1     2    1
     2     2     3    1
     3     3     4    1
     4     4     5   ar
     5     5     6   ar
     6     6     7    1
     7     7     8    1
     8     6     9   ar
     9     9    10    1
    10    10    11    1
    11    11    12    1
    12    12    13    2
    13    12    14    1
    14    14    15    1
    15     9    16   ar
    16    16    17   ar
    17    17    18    1
    18    17     4   ar
    19     1    19    1
    20     1    20    1
    21     1    21    1
    22     2    22    1
    23     2    23    1
    24     3    24    1
    25     3    25    1
    26     5    26    1
    27     8    27    1
    28     8    28    1
    29     8    29    1
    30    11    30    1
    31    11    31    1
    32    15    32    1
    33    15    33    1
    34    15    34    1
    35    16    35    1
    36    18    36    1
