
     RDKit          3D

 36 36  0  0  0  0  0  0  0  0999 V2000
   -2.8959    2.4422   -0.6089 C   0  0  0  0  0  0  0  0  0  0  0  0
   -3.5756    1.1128   -0.7368 C   0  0  0  0  0  0  0  0  0  0  0  0
   -3.2368    0.1049    0.2884 C   0  0  0  0  0  0  0  0  0  0  0  0
   -1.8385   -0.3107    0.3973 C   0  0  0  0  0  0  0  0  0  0  0  0
   -1.3895   -1.4715   -0.2552 C   0  0  0  0  0  0  0  0  0  0  0  0
   -0.0909   -1.8943   -0.2146 C   0  0  0  0  0  0  0  0  0  0  0  0
    0.3594   -3.0468   -0.8608 O   0  0  0  0  0  0  0  0  0  0  0  0
   -0.4739   -3.8840   -1.6153 C   0  0  0  0  0  0  0  0  0  0  0  0
    0.8063   -1.1108    0.5199 C   0  0  0  0  0  0  0  0  0  0  0  0
    2.1060   -1.5300    0.5600 O   0  0  0  0  0  0  0  0  0  0  0  0
    3.1893   -0.9379    1.1980 C   0  0  0  0  0  0  0  0  0  0  0  0
    3.5006    0.4269    0.7033 C   0  0  0  0  0  0  0  0  0  0  0  0
    2.8769    0.9907   -0.2219 O   0  0  0  0  0  0  0  0  0  0  0  0
    4.5434    1.1355    1.2906 O   0  0  0  0  0  0  0  0  0  0  0  0
    4.8578    2.4390    0.8345 C   0  0  0  0  0  0  0  0  0  0  0  0
    0.3791    0.0243    1.1619 C   0  0  0  0  0  0  0  0  0  0  0  0
   -0.9451    0.4410    1.1116 C   0  0  0  0  0  0  0  0  0  0  0  0
   -1.2981    1.6195    1.8059 O   0  0  0  0  0  0  0  0  0  0  0  0
   -1.8020    2.2928   -0.7493 H   0  0  0  0  0  0  0  0  0  0  0  0
   -3.2797    3.1047   -1.4355 H   0  0  0  0  0  0  0  0  0  0  0  0
   -3.1044    2.9470    0.3376 H   0  0  0  0  0  0  0  0  0  0  0  0
   -3.3636    0.7578   -1.7762 H   0  0  0  0  0  0  0  0  0  0  0  0
   -4.6947    1.2954   -0.7277 H   0  0  0  0  0  0  0  0  0  0  0  0
   -3.5127    0.5245    1.3033 H   0  0  0  0  0  0  0  0  0  0  0  0
   -3.8594   -0.8191    0.1762 H   0  0  0  0  0  0  0  0  0  0  0  0
   -2.1416   -2.0484   -0.8199 H   0  0  0  0  0  0  0  0  0  0  0  0
   -0.4331   -3.6561   -2.7100 H   0  0  0  0  0  0  0  0  0  0  0  0
   -0.0986   -4.9469   -1.5076 H   0  0  0  0  0  0  0  0  0  0  0  0
   -1.5250   -3.9102   -1.3067 H   0  0  0  0  0  0  0  0  0  0  0  0
    4.0910   -1.5899    1.0168 H   0  0  0  0  0  0  0  0  0  0  0  0
    3.0490   -0.9017    2.3197 H   0  0  0  0  0  0  0  0  0  0  0  0
    5.1788    2.3386   -0.2239 H   0  0  0  0  0  0  0  0  0  0  0  0
    3.9171    3.0429    0.8054 H   0  0  0  0  0  0  0  0  0  0  0  0
    5.6157    2.9128    1.4626 H   0  0  0  0  0  0  0  0  0  0  0  0
    1.0519    0.6557    1.7505 H   0  0  0  0  0  0  0  0  0  0  0  0
   -1.9632    1.4495    2.5760 H   0  0  0  0  0  0  0  0  0  0  0  0
  1  2  1  0
  2  3  1  0
  3  4  1  0
  4  5  2  0
  5  6  1  0
  6  7  1  0
  7  8  1  0
  6  9  2  0
  9 10  1  0
 10 11  1  0
 11 12  1  0
 12 13  2  0
 12 14  1  0
 14 15  1  0
  9 16  1  0
 16 17  2  0
 17 18  1  0
 17  4  1  0
  1 19  1  0
  1 20  1  0
  1 21  1  0
  2 22  1  0
  2 23  1  0
  3 24  1  0
  3 25  1  0
  5 26  1  0
  8 27  1  0
  8 28  1  0
  8 29  1  0
 11 30  1  0
 11 31  1  0
 15 32  1  0
 15 33  1  0
 15 34  1  0
 16 35  1  0
 18 36  1  0
M  END
$$$$
