@<TRIPOS>MOLECULE
*****
 55 59 0 0 0
SMALL
GASTEIGER

@<TRIPOS>ATOM
      1 C           7.7761    0.2056    3.0889 C.3     1  UNL1       -0.0006
      2 N           6.6514   -0.4294    2.4450 N.pl3   1  UNL1       -0.3265
      3 C           5.6484    0.2858    1.7097 C.ar    1  UNL1        0.1584
      4 N           4.6463    0.1302    1.0845 N.ar    1  UNL1       -0.2250
      5 C           3.9029    1.0144    0.4949 C.ar    1  UNL1        0.0802
      6 C           2.6701    0.7379   -0.2636 C.ar    1  UNL1        0.0013
      7 C           2.2066   -0.5527   -0.3996 C.ar    1  UNL1       -0.0508
      8 C           1.0559   -0.8683   -1.1000 C.ar    1  UNL1       -0.0394
      9 C           0.3255    0.1260   -1.6948 C.ar    1  UNL1        0.0398
     10 C           0.7686    1.4246   -1.5732 C.ar    1  UNL1       -0.0238
     11 C           1.9204    1.7193   -0.8693 C.ar    1  UNL1       -0.0476
     12 C          -0.2058    2.2508   -2.3091 C.3     1  UNL1       -0.0096
     13 C          -0.8774    1.2857   -3.2895 C.3     1  UNL1        0.0241
     14 N          -0.8885    0.0672   -2.4594 N.am    1  UNL1       -0.2668
     15 C          -1.9140   -0.9069   -2.4732 C.2     1  UNL1        0.2544
     16 O          -2.9158   -0.6669   -3.2388 O.2     1  UNL1       -0.2695
     17 C          -1.9351   -2.1378   -1.7079 C.ar    1  UNL1        0.0788
     18 C          -1.4610   -3.2861   -2.3056 C.ar    1  UNL1       -0.0461
     19 C          -1.4728   -4.5060   -1.6415 C.ar    1  UNL1       -0.0608
     20 C          -1.9782   -4.5329   -0.3536 C.ar    1  UNL1       -0.0583
     21 C          -2.4622   -3.4080    0.2812 C.ar    1  UNL1       -0.0192
     22 C          -2.4255   -2.2242   -0.4268 C.ar    1  UNL1        0.1331
     23 O          -2.9016   -1.0804    0.1783 O.3     1  UNL1       -0.4866
     24 C          -3.4281   -1.0295    1.4790 C.3     1  UNL1        0.1147
     25 C          -3.8223    0.3989    1.7297 C.ar    1  UNL1       -0.0103
     26 C          -2.8660    1.2198    2.2773 C.ar    1  UNL1       -0.0540
     27 C          -3.2130    2.5438    2.5159 C.ar    1  UNL1       -0.0430
     28 C          -4.4739    3.0395    2.2193 C.ar    1  UNL1        0.0410
     29 CL         -4.9138    4.7101    2.5197 Cl      1  UNL1       -0.0835
     30 C          -5.4011    2.1585    1.6654 C.ar    1  UNL1       -0.0430
     31 C          -5.0817    0.8332    1.4171 C.ar    1  UNL1       -0.0540
     32 C           4.3509    2.3357    0.6170 C.ar    1  UNL1        0.0049
     33 S           5.8232    2.1601    1.5865 S.2     1  UNL1       -0.0603
     34 H           7.4923    1.2755    3.2795 H       1  UNL1        0.0426
     35 H           8.6531    0.2469    2.4165 H       1  UNL1        0.0426
     36 H           8.0103   -0.2233    4.0811 H       1  UNL1        0.0426
     37 H           6.5486   -1.4471    2.5069 H       1  UNL1        0.1476
     38 H           2.7854   -1.3471    0.0726 H       1  UNL1        0.0625
     39 H           0.7179   -1.8906   -1.1880 H       1  UNL1        0.0636
     40 H           2.2639    2.7456   -0.7774 H       1  UNL1        0.0627
     41 H           0.2753    3.0935   -2.8474 H       1  UNL1        0.0329
     42 H          -0.9855    2.5928   -1.6060 H       1  UNL1        0.0329
     43 H          -0.2463    1.0644   -4.1536 H       1  UNL1        0.0472
     44 H          -1.8984    1.5895   -3.5377 H       1  UNL1        0.0472
     45 H          -1.0681   -3.2605   -3.3093 H       1  UNL1        0.0626
     46 H          -1.1135   -5.4047   -2.0796 H       1  UNL1        0.0618
     47 H          -1.9983   -5.4671    0.1828 H       1  UNL1        0.0619
     48 H          -2.8478   -3.4808    1.2912 H       1  UNL1        0.0654
     49 H          -4.3092   -1.7044    1.5504 H       1  UNL1        0.0748
     50 H          -2.7195   -1.3638    2.2572 H       1  UNL1        0.0748
     51 H          -1.8789    0.8368    2.5108 H       1  UNL1        0.0622
     52 H          -2.4866    3.2059    2.9423 H       1  UNL1        0.0632
     53 H          -6.4110    2.5002    1.4130 H       1  UNL1        0.0632
     54 H          -5.8253    0.1806    0.9874 H       1  UNL1        0.0622
     55 H           3.9332    3.2399    0.2345 H       1  UNL1        0.0716
@<TRIPOS>BOND
     1     1     2    1
     2     2     3    1
     3     3     4   ar
     4     4     5   ar
     5     5     6    1
     6     6     7   ar
     7     7     8   ar
     8     8     9   ar
     9     9    10   ar
    10    10    11   ar
    11    10    12    1
    12    12    13    1
    13    13    14    1
    14    14    15   am
    15    15    16    2
    16    15    17    1
    17    17    18   ar
    18    18    19   ar
    19    19    20   ar
    20    20    21   ar
    21    21    22   ar
    22    22    23    1
    23    23    24    1
    24    24    25    1
    25    25    26   ar
    26    26    27   ar
    27    27    28   ar
    28    28    29    1
    29    28    30   ar
    30    30    31   ar
    31     5    32   ar
    32    32    33   ar
    33    33     3   ar
    34    11     6   ar
    35    22    17   ar
    36    31    25   ar
    37    14     9    1
    38     1    34    1
    39     1    35    1
    40     1    36    1
    41     2    37    1
    42     7    38    1
    43     8    39    1
    44    11    40    1
    45    12    41    1
    46    12    42    1
    47    13    43    1
    48    13    44    1
    49    18    45    1
    50    19    46    1
    51    20    47    1
    52    21    48    1
    53    24    49    1
    54    24    50    1
    55    26    51    1
    56    27    52    1
    57    30    53    1
    58    31    54    1
    59    32    55    1
