@<TRIPOS>MOLECULE
*****
 52 55 0 0 0
SMALL
GASTEIGER

@<TRIPOS>ATOM
      1 C           0.6571   -0.0807    2.5000 C.3     1  UNL1       -0.0206
      2 C           1.2422   -1.0886    1.5672 C.ar    1  UNL1        0.0607
      3 C           2.5494   -1.0492    1.0954 C.ar    1  UNL1        0.1580
      4 O           3.4926   -0.0830    1.4149 O.3     1  UNL1       -0.4536
      5 C           3.6751    1.1015    0.7202 C.ar    1  UNL1        0.1286
      6 C           2.9884    2.2411    1.0377 C.ar    1  UNL1       -0.0180
      7 C           3.1920    3.3953    0.3315 C.ar    1  UNL1       -0.0399
      8 C           4.0972    3.4231   -0.7147 C.ar    1  UNL1        0.0412
      9 CL          4.3915    4.8605   -1.6408 Cl      1  UNL1       -0.0835
     10 C           4.7865    2.2696   -1.0295 C.ar    1  UNL1       -0.0399
     11 C           4.5716    1.1186   -0.3117 C.ar    1  UNL1       -0.0180
     12 C           2.6644   -2.1527    0.2753 C.ar    1  UNL1        0.0616
     13 C           3.7131   -2.6488   -0.4730 C.ar    1  UNL1       -0.0433
     14 C           3.5072   -3.8109   -1.2107 C.ar    1  UNL1       -0.0065
     15 C           2.2837   -4.4430   -1.1882 C.ar    1  UNL1        0.2151
     16 F           2.0920   -5.5902   -1.9209 F       1  UNL1       -0.1838
     17 N           1.2997   -3.9212   -0.4463 N.ar    1  UNL1       -0.2010
     18 C           1.4505   -2.8032    0.2815 C.ar    1  UNL1        0.1479
     19 N           0.5791   -2.1403    1.0807 N.ar    1  UNL1       -0.3213
     20 C          -0.8121   -2.5025    1.3574 C.3     1  UNL1        0.0501
     21 C          -1.7359   -1.8791    0.3834 C.ar    1  UNL1       -0.0241
     22 C          -2.0731   -2.5247   -0.7882 C.ar    1  UNL1       -0.0539
     23 C          -2.9295   -1.9697   -1.7124 C.ar    1  UNL1       -0.0225
     24 C          -3.5038   -0.7150   -1.5074 C.ar    1  UNL1        0.1648
     25 F          -4.3508   -0.2083   -2.4610 F       1  UNL1       -0.2017
     26 C          -3.1832   -0.0557   -0.3510 C.ar    1  UNL1        0.1570
     27 O          -3.6898    1.1618   -0.0669 O.3     1  UNL1       -0.4750
     28 C          -4.5413    2.0240   -0.6958 C.3     1  UNL1        0.1932
     29 C          -5.7063    2.4525    0.2154 C.3     1  UNL1       -0.0172
     30 C          -3.7763    3.3103   -0.9223 C.2     1  UNL1        0.3456
     31 O          -4.3700    4.2547   -1.4926 O.2     1  UNL1       -0.2468
     32 O          -2.4735    3.4754   -0.5301 O.3     1  UNL1       -0.4781
     33 C          -2.3051   -0.6448    0.5779 C.ar    1  UNL1       -0.0122
     34 H           1.4314    0.3116    3.2014 H       1  UNL1        0.0293
     35 H           0.2346    0.7798    1.9242 H       1  UNL1        0.0293
     36 H          -0.1891   -0.5002    3.0820 H       1  UNL1        0.0293
     37 H           2.2619    2.2491    1.8651 H       1  UNL1        0.0655
     38 H           2.6626    4.3228    0.5564 H       1  UNL1        0.0633
     39 H           5.5107    2.2271   -1.8400 H       1  UNL1        0.0633
     40 H           5.1265    0.2009   -0.5679 H       1  UNL1        0.0655
     41 H           4.6649   -2.1377   -0.4750 H       1  UNL1        0.0627
     42 H           4.3379   -4.2056   -1.8047 H       1  UNL1        0.0662
     43 H          -0.8792   -3.6118    1.3522 H       1  UNL1        0.0542
     44 H          -1.0917   -2.2025    2.4083 H       1  UNL1        0.0542
     45 H          -1.6325   -3.5118   -0.9683 H       1  UNL1        0.0622
     46 H          -3.1934   -2.4753   -2.6296 H       1  UNL1        0.0647
     47 H          -4.9658    1.7593   -1.6585 H       1  UNL1        0.0849
     48 H          -6.0720    3.4102   -0.2058 H       1  UNL1        0.0271
     49 H          -5.3491    2.5986    1.2364 H       1  UNL1        0.0271
     50 H          -6.5451    1.7250    0.1254 H       1  UNL1        0.0271
     51 H          -2.0234    4.3828   -0.4038 H       1  UNL1        0.2952
     52 H          -2.0718   -0.0991    1.4811 H       1  UNL1        0.0658
@<TRIPOS>BOND
     1     1     2    1
     2     2     3   ar
     3     3     4    1
     4     4     5    1
     5     5     6   ar
     6     6     7   ar
     7     7     8   ar
     8     8     9    1
     9     8    10   ar
    10    10    11   ar
    11     3    12   ar
    12    12    13   ar
    13    13    14   ar
    14    14    15   ar
    15    15    16    1
    16    15    17   ar
    17    17    18   ar
    18    18    19   ar
    19    19    20    1
    20    20    21    1
    21    21    22   ar
    22    22    23   ar
    23    23    24   ar
    24    24    25    1
    25    24    26   ar
    26    26    27    1
    27    27    28    1
    28    28    29    1
    29    28    30    1
    30    30    31    2
    31    30    32    1
    32    26    33   ar
    33    19     2   ar
    34    33    21   ar
    35    11     5   ar
    36    18    12   ar
    37     1    34    1
    38     1    35    1
    39     1    36    1
    40     6    37    1
    41     7    38    1
    42    10    39    1
    43    11    40    1
    44    13    41    1
    45    14    42    1
    46    20    43    1
    47    20    44    1
    48    22    45    1
    49    23    46    1
    50    28    47    1
    51    29    48    1
    52    29    49    1
    53    29    50    1
    54    32    51    1
    55    33    52    1
