@<TRIPOS>MOLECULE
*****
 55 59 0 0 0
SMALL
GASTEIGER

@<TRIPOS>ATOM
      1 O          -5.3195   -2.0076    2.3632 O.2     1  UNL1       -0.2918
      2 C          -5.0174   -1.5604    1.2271 C.2     1  UNL1        0.1704
      3 C          -3.9031   -2.0708    0.4147 C.3     1  UNL1        0.0506
      4 C          -3.1860   -0.9304   -0.3202 C.3     1  UNL1        0.1205
      5 C          -2.3202   -0.1370    0.6004 C.3     1  UNL1        0.0034
      6 C          -0.8544   -0.3196    0.3750 C.3     1  UNL1        0.0198
      7 N          -0.4705   -0.3052   -1.0037 N.am    1  UNL1       -0.2854
      8 C           0.8605   -0.0956   -1.4429 C.2     1  UNL1        0.3024
      9 O           1.1634   -0.0892   -2.6640 O.2     1  UNL1       -0.2526
     10 N           1.9396    0.1209   -0.5326 N.am    1  UNL1       -0.2961
     11 C           3.3130    0.3382   -0.9503 C.3     1  UNL1        0.0288
     12 C           3.6746    1.7481   -0.5523 C.3     1  UNL1       -0.0302
     13 C           4.3132    1.8345    0.8195 C.3     1  UNL1       -0.0257
     14 C           5.5768    1.0169    0.6997 C.ar    1  UNL1       -0.0441
     15 C           6.7894    1.4527    1.1837 C.ar    1  UNL1       -0.0583
     16 C           7.9478    0.7138    1.0744 C.ar    1  UNL1       -0.0615
     17 C           7.9003   -0.5240    0.4513 C.ar    1  UNL1       -0.0615
     18 C           6.6964   -0.9784   -0.0399 C.ar    1  UNL1       -0.0583
     19 C           5.5312   -0.2124    0.0815 C.ar    1  UNL1       -0.0424
     20 C           4.2411   -0.7128   -0.4456 C.3     1  UNL1       -0.0089
     21 C          -1.4875   -0.5146   -2.0095 C.3     1  UNL1        0.0198
     22 C          -2.4249   -1.5820   -1.4536 C.3     1  UNL1        0.0034
     23 O          -4.1309   -0.0521   -0.9006 O.3     1  UNL1       -0.4845
     24 C          -5.3609    0.2556   -0.3525 C.ar    1  UNL1        0.1318
     25 C          -6.1475    1.2962   -0.8472 C.ar    1  UNL1       -0.0192
     26 C          -7.3684    1.6172   -0.3189 C.ar    1  UNL1       -0.0583
     27 C          -7.8371    0.8789    0.7467 C.ar    1  UNL1       -0.0609
     28 C          -7.0702   -0.1559    1.2491 C.ar    1  UNL1       -0.0477
     29 C          -5.8321   -0.4752    0.7072 C.ar    1  UNL1        0.0592
     30 H          -4.2524   -2.7582   -0.3854 H       1  UNL1        0.0384
     31 H          -3.1480   -2.5314    1.0817 H       1  UNL1        0.0384
     32 H          -2.5499   -0.4521    1.6453 H       1  UNL1        0.0319
     33 H          -2.5698    0.9621    0.5767 H       1  UNL1        0.0319
     34 H          -0.4314   -1.2080    0.8878 H       1  UNL1        0.0466
     35 H          -0.3403    0.5618    0.8596 H       1  UNL1        0.0466
     36 H           1.7059    0.1188    0.4813 H       1  UNL1        0.1505
     37 H           3.3896    0.3090   -2.0779 H       1  UNL1        0.0502
     38 H           2.7639    2.3552   -0.5220 H       1  UNL1        0.0286
     39 H           4.4296    2.1308   -1.2745 H       1  UNL1        0.0286
     40 H           4.6363    2.8764    0.9559 H       1  UNL1        0.0314
     41 H           3.6688    1.4767    1.6251 H       1  UNL1        0.0314
     42 H           6.8072    2.4342    1.6734 H       1  UNL1        0.0620
     43 H           8.8993    1.0790    1.4657 H       1  UNL1        0.0618
     44 H           8.8217   -1.0887    0.3756 H       1  UNL1        0.0618
     45 H           6.6461   -1.9464   -0.5301 H       1  UNL1        0.0620
     46 H           4.5077   -1.4655   -1.2460 H       1  UNL1        0.0331
     47 H           3.7917   -1.3322    0.3638 H       1  UNL1        0.0331
     48 H          -2.0649    0.4462   -2.0713 H       1  UNL1        0.0466
     49 H          -1.0635   -0.8051   -2.9890 H       1  UNL1        0.0466
     50 H          -1.8191   -2.4072   -0.9840 H       1  UNL1        0.0319
     51 H          -3.1103   -1.9683   -2.2049 H       1  UNL1        0.0319
     52 H          -5.7779    1.8626   -1.6717 H       1  UNL1        0.0654
     53 H          -7.9447    2.4446   -0.7463 H       1  UNL1        0.0619
     54 H          -8.8049    1.1212    1.1777 H       1  UNL1        0.0618
     55 H          -7.4078   -0.7658    2.0949 H       1  UNL1        0.0626
@<TRIPOS>BOND
     1     1     2    2
     2     2     3    1
     3     3     4    1
     4     4     5    1
     5     5     6    1
     6     6     7    1
     7     7     8   am
     8     8     9    2
     9     8    10   am
    10    10    11    1
    11    11    12    1
    12    12    13    1
    13    13    14    1
    14    14    15   ar
    15    15    16   ar
    16    16    17   ar
    17    17    18   ar
    18    18    19   ar
    19    19    20    1
    20     7    21    1
    21    21    22    1
    22     4    23    1
    23    23    24    1
    24    24    25   ar
    25    25    26   ar
    26    26    27   ar
    27    27    28   ar
    28    28    29   ar
    29    29     2    1
    30    22     4    1
    31    29    24   ar
    32    20    11    1
    33    19    14   ar
    34     3    30    1
    35     3    31    1
    36     5    32    1
    37     5    33    1
    38     6    34    1
    39     6    35    1
    40    10    36    1
    41    11    37    1
    42    12    38    1
    43    12    39    1
    44    13    40    1
    45    13    41    1
    46    15    42    1
    47    16    43    1
    48    17    44    1
    49    18    45    1
    50    20    46    1
    51    20    47    1
    52    21    48    1
    53    21    49    1
    54    22    50    1
    55    22    51    1
    56    25    52    1
    57    26    53    1
    58    27    54    1
    59    28    55    1
