
     RDKit          3D

 36 38  0  0  0  0  0  0  0  0999 V2000
   -4.8334    1.3309   -0.7975 C   0  0  0  0  0  0  0  0  0  0  0  0
   -4.1914    0.6213    0.3862 C   0  0  0  0  0  0  0  0  0  0  0  0
   -5.0891   -0.5565    0.7188 C   0  0  0  0  0  0  0  0  0  0  0  0
   -2.8314    0.1857   -0.0076 C   0  0  0  0  0  0  0  0  0  0  0  0
   -1.6939    0.6681    0.6476 C   0  0  0  0  0  0  0  0  0  0  0  0
   -0.4700    0.1885    0.1902 C   0  0  0  0  0  0  0  0  0  0  0  0
   -0.3479   -0.7196   -0.8568 C   0  0  0  0  0  0  0  0  0  0  0  0
    0.8498   -1.1110   -1.2144 O   0  0  0  0  0  0  0  0  0  0  0  0
    1.9611   -0.7032   -0.6489 C   0  0  0  0  0  0  0  0  0  0  0  0
    3.1063   -1.2062   -1.1410 N   0  0  0  0  0  0  0  0  0  0  0  0
    4.3054   -0.8600   -0.6403 C   0  0  0  0  0  0  0  0  0  0  0  0
    5.5300   -1.3778   -1.1439 N   0  0  0  0  0  0  0  0  0  0  0  0
    4.2309    0.0388    0.3994 C   0  0  0  0  0  0  0  0  0  0  0  0
    3.0899    0.5852    0.9424 C   0  0  0  0  0  0  0  0  0  0  0  0
    1.8876    0.1966    0.3923 C   0  0  0  0  0  0  0  0  0  0  0  0
    0.6666    0.6609    0.8329 C   0  0  0  0  0  0  0  0  0  0  0  0
    0.6616    1.4847    1.7915 O   0  0  0  0  0  0  0  0  0  0  0  0
    5.5216    0.4200    0.9452 C   0  0  0  0  0  0  0  0  0  0  0  0
    6.3863    1.0819    1.7833 O   0  0  0  0  0  0  0  0  0  0  0  0
    6.6080   -0.0351    0.5026 O   0  0  0  0  0  0  0  0  0  0  0  0
   -1.5023   -1.1663   -1.4718 C   0  0  0  0  0  0  0  0  0  0  0  0
   -2.7406   -0.7178   -1.0515 C   0  0  0  0  0  0  0  0  0  0  0  0
   -4.4168    2.3632   -0.8677 H   0  0  0  0  0  0  0  0  0  0  0  0
   -5.9255    1.3247   -0.6118 H   0  0  0  0  0  0  0  0  0  0  0  0
   -4.6741    0.7608   -1.7346 H   0  0  0  0  0  0  0  0  0  0  0  0
   -4.1887    1.3389    1.2242 H   0  0  0  0  0  0  0  0  0  0  0  0
   -5.5807   -0.9106   -0.2109 H   0  0  0  0  0  0  0  0  0  0  0  0
   -4.5380   -1.4154    1.1420 H   0  0  0  0  0  0  0  0  0  0  0  0
   -5.8519   -0.2732    1.4992 H   0  0  0  0  0  0  0  0  0  0  0  0
   -1.7776    1.3700    1.4582 H   0  0  0  0  0  0  0  0  0  0  0  0
    5.6710   -0.5981   -1.7931 H   0  0  0  0  0  0  0  0  0  0  0  0
    5.6381   -2.2768   -0.5874 H   0  0  0  0  0  0  0  0  0  0  0  0
    3.1044    1.2885    1.7616 H   0  0  0  0  0  0  0  0  0  0  0  0
    6.3494    0.9892    2.7923 H   0  0  0  0  0  0  0  0  0  0  0  0
   -1.3129   -1.8621   -2.2664 H   0  0  0  0  0  0  0  0  0  0  0  0
   -3.6018   -1.1082   -1.5774 H   0  0  0  0  0  0  0  0  0  0  0  0
  1  2  1  0
  2  3  1  0
  2  4  1  0
  4  5  2  0
  5  6  1  0
  6  7  2  0
  7  8  1  0
  8  9  1  0
  9 10  2  0
 10 11  1  0
 11 12  1  0
 11 13  2  0
 13 14  1  0
 14 15  2  0
 15 16  1  0
 16 17  2  0
 13 18  1  0
 18 19  1  0
 18 20  2  0
  7 21  1  0
 21 22  2  0
 22  4  1  0
 16  6  1  0
 15  9  1  0
  1 23  1  0
  1 24  1  0
  1 25  1  0
  2 26  1  0
  3 27  1  0
  3 28  1  0
  3 29  1  0
  5 30  1  0
 12 31  1  0
 12 32  1  0
 14 33  1  0
 19 34  1  0
 21 35  1  0
 22 36  1  0
M  END
$$$$
