@<TRIPOS>MOLECULE
*****
 63 67 0 0 0
SMALL
GASTEIGER

@<TRIPOS>ATOM
      1 C           5.0242   -3.7905   -0.7970 C.3     1  UNL1        0.0557
      2 S           5.1914   -2.6460   -2.1205 S.O2    1  UNL1       -0.0165
      3 O           6.5821   -2.5498   -2.6619 O.2     1  UNL1       -0.1735
      4 O           4.1860   -2.9303   -3.1998 O.2     1  UNL1       -0.1735
      5 C           4.7973   -0.9980   -1.4894 C.3     1  UNL1        0.1997
      6 C           5.6019   -0.7283   -0.2974 C.2     1  UNL1        0.2441
      7 O           5.0348   -0.5938    0.8157 O.2     1  UNL1       -0.2733
      8 N           7.0204   -0.6072   -0.3190 N.am    1  UNL1       -0.3078
      9 C           7.8134   -0.3497    0.8370 C.3     1  UNL1        0.0546
     10 C           7.7570    1.0877    1.2758 C.ar    1  UNL1        0.0675
     11 C           6.8345    1.5179    2.1822 C.ar    1  UNL1        0.0017
     12 S           7.2549    3.3086    2.3062 S.2     1  UNL1       -0.0608
     13 C           8.6608    3.1176    1.0514 C.ar    1  UNL1        0.1558
     14 N           9.3870    4.3254    0.7571 N.pl3   1  UNL1       -0.3375
     15 N           8.5753    2.0018    0.8224 N.ar    1  UNL1       -0.2285
     16 C           3.3473   -1.0601   -1.0217 C.ar    1  UNL1        0.1126
     17 N           2.6701   -1.4152   -0.1535 N.ar    1  UNL1       -0.2416
     18 C           1.3658   -1.3484   -0.0214 C.ar    1  UNL1        0.0786
     19 C           0.5661   -1.7866    1.0423 C.ar    1  UNL1       -0.0346
     20 C          -0.7888   -1.6212    0.9814 C.ar    1  UNL1       -0.0520
     21 C          -1.4599   -1.0458   -0.0621 C.ar    1  UNL1       -0.0167
     22 C          -2.9024   -0.8990   -0.0703 C.ar    1  UNL1       -0.0178
     23 C          -3.6087   -0.6969    1.1007 C.ar    1  UNL1       -0.0533
     24 C          -4.9778   -0.5743    1.0776 C.ar    1  UNL1       -0.0491
     25 C          -5.7129   -0.6433   -0.0854 C.ar    1  UNL1        0.0369
     26 C          -7.1539   -0.5282   -0.1472 C.2     1  UNL1        0.2467
     27 O          -7.8819   -1.4999   -0.4844 O.2     1  UNL1       -0.2700
     28 N          -7.7701    0.7007    0.1777 N.am    1  UNL1       -0.2932
     29 C          -9.2046    0.8567    0.1344 C.3     1  UNL1        0.0385
     30 C          -9.5954    2.2801   -0.1879 C.3     1  UNL1        0.0635
     31 O          -8.8267    3.2094    0.5522 O.3     1  UNL1       -0.3767
     32 C          -7.5396    3.1098    0.0227 C.3     1  UNL1        0.0635
     33 C          -6.9563    1.8244    0.5600 C.3     1  UNL1        0.0385
     34 C          -4.9965   -0.8448   -1.2461 C.ar    1  UNL1       -0.0491
     35 C          -3.6224   -0.9701   -1.2427 C.ar    1  UNL1       -0.0533
     36 C          -0.6826   -0.6071   -1.1214 C.ar    1  UNL1       -0.0382
     37 C           0.7074   -0.7736   -1.0649 C.ar    1  UNL1        0.0398
     38 S           2.0243   -0.3528   -2.1978 S.2     1  UNL1       -0.0697
     39 H           6.0088   -4.1912   -0.4691 H       1  UNL1        0.0464
     40 H           4.4868   -3.3188    0.0452 H       1  UNL1        0.0464
     41 H           4.3734   -4.6615   -1.1022 H       1  UNL1        0.0464
     42 H           4.8943   -0.2670   -2.3098 H       1  UNL1        0.0705
     43 H           7.4648   -0.7233   -1.2691 H       1  UNL1        0.1491
     44 H           7.4459   -1.0076    1.6640 H       1  UNL1        0.0527
     45 H           8.8460   -0.6737    0.6246 H       1  UNL1        0.0527
     46 H           6.0160    1.0510    2.7586 H       1  UNL1        0.0713
     47 H          10.2342    4.5942    1.3052 H       1  UNL1        0.1442
     48 H           8.9940    4.8854   -0.0302 H       1  UNL1        0.1442
     49 H           0.9581   -2.2572    1.9274 H       1  UNL1        0.0639
     50 H          -1.4175   -1.9634    1.8134 H       1  UNL1        0.0624
     51 H          -3.0689   -0.6351    2.0499 H       1  UNL1        0.0624
     52 H          -5.5453   -0.4141    2.0003 H       1  UNL1        0.0625
     53 H          -9.6122    0.2258   -0.7020 H       1  UNL1        0.0487
     54 H          -9.6527    0.5120    1.0874 H       1  UNL1        0.0487
     55 H          -9.4153    2.5250   -1.2514 H       1  UNL1        0.0575
     56 H         -10.6715    2.4501    0.0060 H       1  UNL1        0.0575
     57 H          -7.6458    2.9934   -1.0776 H       1  UNL1        0.0575
     58 H          -6.9042    3.9731    0.2751 H       1  UNL1        0.0575
     59 H          -6.8145    1.8645    1.6598 H       1  UNL1        0.0487
     60 H          -5.9420    1.7339    0.0910 H       1  UNL1        0.0487
     61 H          -5.5340   -0.9058   -2.1917 H       1  UNL1        0.0625
     62 H          -3.1048   -1.1298   -2.2008 H       1  UNL1        0.0624
     63 H          -1.1144   -0.1391   -1.9939 H       1  UNL1        0.0635
@<TRIPOS>BOND
     1     1     2    1
     2     2     3    2
     3     2     4    2
     4     2     5    1
     5     5     6    1
     6     6     7    2
     7     6     8   am
     8     8     9    1
     9     9    10    1
    10    10    11   ar
    11    11    12   ar
    12    12    13   ar
    13    13    14    1
    14    13    15   ar
    15     5    16    1
    16    16    17   ar
    17    17    18   ar
    18    18    19   ar
    19    19    20   ar
    20    20    21   ar
    21    21    22    1
    22    22    23   ar
    23    23    24   ar
    24    24    25   ar
    25    25    26    1
    26    26    27    2
    27    26    28   am
    28    28    29    1
    29    29    30    1
    30    30    31    1
    31    31    32    1
    32    32    33    1
    33    25    34   ar
    34    34    35   ar
    35    21    36   ar
    36    36    37   ar
    37    37    38   ar
    38    15    10   ar
    39    38    16   ar
    40    37    18   ar
    41    35    22   ar
    42    33    28    1
    43     1    39    1
    44     1    40    1
    45     1    41    1
    46     5    42    1
    47     8    43    1
    48     9    44    1
    49     9    45    1
    50    11    46    1
    51    14    47    1
    52    14    48    1
    53    19    49    1
    54    20    50    1
    55    23    51    1
    56    24    52    1
    57    29    53    1
    58    29    54    1
    59    30    55    1
    60    30    56    1
    61    32    57    1
    62    32    58    1
    63    33    59    1
    64    33    60    1
    65    34    61    1
    66    35    62    1
    67    36    63    1
