
     RDKit          3D

 63 67  0  0  0  0  0  0  0  0999 V2000
    5.0242   -3.7905   -0.7970 C   0  0  0  0  0  0  0  0  0  0  0  0
    5.1914   -2.6460   -2.1205 S   0  0  0  0  0  6  0  0  0  0  0  0
    6.5821   -2.5498   -2.6619 O   0  0  0  0  0  0  0  0  0  0  0  0
    4.1860   -2.9303   -3.1998 O   0  0  0  0  0  0  0  0  0  0  0  0
    4.7973   -0.9980   -1.4894 C   0  0  0  0  0  0  0  0  0  0  0  0
    5.6019   -0.7283   -0.2974 C   0  0  0  0  0  0  0  0  0  0  0  0
    5.0348   -0.5938    0.8157 O   0  0  0  0  0  0  0  0  0  0  0  0
    7.0204   -0.6072   -0.3190 N   0  0  0  0  0  0  0  0  0  0  0  0
    7.8134   -0.3497    0.8370 C   0  0  0  0  0  0  0  0  0  0  0  0
    7.7570    1.0877    1.2758 C   0  0  0  0  0  0  0  0  0  0  0  0
    6.8345    1.5179    2.1822 C   0  0  0  0  0  0  0  0  0  0  0  0
    7.2549    3.3086    2.3062 S   0  0  0  0  0  0  0  0  0  0  0  0
    8.6608    3.1176    1.0514 C   0  0  0  0  0  0  0  0  0  0  0  0
    9.3870    4.3254    0.7571 N   0  0  0  0  0  0  0  0  0  0  0  0
    8.5753    2.0018    0.8224 N   0  0  0  0  0  0  0  0  0  0  0  0
    3.3473   -1.0601   -1.0217 C   0  0  0  0  0  0  0  0  0  0  0  0
    2.6701   -1.4152   -0.1535 N   0  0  0  0  0  0  0  0  0  0  0  0
    1.3658   -1.3484   -0.0214 C   0  0  0  0  0  0  0  0  0  0  0  0
    0.5661   -1.7866    1.0423 C   0  0  0  0  0  0  0  0  0  0  0  0
   -0.7888   -1.6212    0.9814 C   0  0  0  0  0  0  0  0  0  0  0  0
   -1.4599   -1.0458   -0.0621 C   0  0  0  0  0  0  0  0  0  0  0  0
   -2.9024   -0.8990   -0.0703 C   0  0  0  0  0  0  0  0  0  0  0  0
   -3.6087   -0.6969    1.1007 C   0  0  0  0  0  0  0  0  0  0  0  0
   -4.9778   -0.5743    1.0776 C   0  0  0  0  0  0  0  0  0  0  0  0
   -5.7129   -0.6433   -0.0854 C   0  0  0  0  0  0  0  0  0  0  0  0
   -7.1539   -0.5282   -0.1472 C   0  0  0  0  0  0  0  0  0  0  0  0
   -7.8819   -1.4999   -0.4844 O   0  0  0  0  0  0  0  0  0  0  0  0
   -7.7701    0.7007    0.1777 N   0  0  0  0  0  0  0  0  0  0  0  0
   -9.2046    0.8567    0.1344 C   0  0  0  0  0  0  0  0  0  0  0  0
   -9.5954    2.2801   -0.1879 C   0  0  0  0  0  0  0  0  0  0  0  0
   -8.8267    3.2094    0.5522 O   0  0  0  0  0  0  0  0  0  0  0  0
   -7.5396    3.1098    0.0227 C   0  0  0  0  0  0  0  0  0  0  0  0
   -6.9563    1.8244    0.5600 C   0  0  0  0  0  0  0  0  0  0  0  0
   -4.9965   -0.8448   -1.2461 C   0  0  0  0  0  0  0  0  0  0  0  0
   -3.6224   -0.9701   -1.2427 C   0  0  0  0  0  0  0  0  0  0  0  0
   -0.6826   -0.6071   -1.1214 C   0  0  0  0  0  0  0  0  0  0  0  0
    0.7074   -0.7736   -1.0649 C   0  0  0  0  0  0  0  0  0  0  0  0
    2.0243   -0.3528   -2.1978 S   0  0  0  0  0  0  0  0  0  0  0  0
    6.0088   -4.1912   -0.4691 H   0  0  0  0  0  0  0  0  0  0  0  0
    4.4868   -3.3188    0.0452 H   0  0  0  0  0  0  0  0  0  0  0  0
    4.3734   -4.6615   -1.1022 H   0  0  0  0  0  0  0  0  0  0  0  0
    4.8943   -0.2670   -2.3098 H   0  0  0  0  0  0  0  0  0  0  0  0
    7.4648   -0.7233   -1.2691 H   0  0  0  0  0  0  0  0  0  0  0  0
    7.4459   -1.0076    1.6640 H   0  0  0  0  0  0  0  0  0  0  0  0
    8.8460   -0.6737    0.6246 H   0  0  0  0  0  0  0  0  0  0  0  0
    6.0160    1.0510    2.7586 H   0  0  0  0  0  0  0  0  0  0  0  0
   10.2342    4.5942    1.3052 H   0  0  0  0  0  0  0  0  0  0  0  0
    8.9940    4.8854   -0.0302 H   0  0  0  0  0  0  0  0  0  0  0  0
    0.9581   -2.2572    1.9274 H   0  0  0  0  0  0  0  0  0  0  0  0
   -1.4175   -1.9634    1.8134 H   0  0  0  0  0  0  0  0  0  0  0  0
   -3.0689   -0.6351    2.0499 H   0  0  0  0  0  0  0  0  0  0  0  0
   -5.5453   -0.4141    2.0003 H   0  0  0  0  0  0  0  0  0  0  0  0
   -9.6122    0.2258   -0.7020 H   0  0  0  0  0  0  0  0  0  0  0  0
   -9.6527    0.5120    1.0874 H   0  0  0  0  0  0  0  0  0  0  0  0
   -9.4153    2.5250   -1.2514 H   0  0  0  0  0  0  0  0  0  0  0  0
  -10.6715    2.4501    0.0060 H   0  0  0  0  0  0  0  0  0  0  0  0
   -7.6458    2.9934   -1.0776 H   0  0  0  0  0  0  0  0  0  0  0  0
   -6.9042    3.9731    0.2751 H   0  0  0  0  0  0  0  0  0  0  0  0
   -6.8145    1.8645    1.6598 H   0  0  0  0  0  0  0  0  0  0  0  0
   -5.9420    1.7339    0.0910 H   0  0  0  0  0  0  0  0  0  0  0  0
   -5.5340   -0.9058   -2.1917 H   0  0  0  0  0  0  0  0  0  0  0  0
   -3.1048   -1.1298   -2.2008 H   0  0  0  0  0  0  0  0  0  0  0  0
   -1.1144   -0.1391   -1.9939 H   0  0  0  0  0  0  0  0  0  0  0  0
  1  2  1  0
  2  3  2  0
  2  4  2  0
  2  5  1  0
  5  6  1  0
  6  7  2  0
  6  8  1  0
  8  9  1  0
  9 10  1  0
 10 11  2  0
 11 12  1  0
 12 13  1  0
 13 14  1  0
 13 15  2  0
  5 16  1  0
 16 17  2  0
 17 18  1  0
 18 19  2  0
 19 20  1  0
 20 21  2  0
 21 22  1  0
 22 23  2  0
 23 24  1  0
 24 25  2  0
 25 26  1  0
 26 27  2  0
 26 28  1  0
 28 29  1  0
 29 30  1  0
 30 31  1  0
 31 32  1  0
 32 33  1  0
 25 34  1  0
 34 35  2  0
 21 36  1  0
 36 37  2  0
 37 38  1  0
 15 10  1  0
 38 16  1  0
 37 18  1  0
 35 22  1  0
 33 28  1  0
  1 39  1  0
  1 40  1  0
  1 41  1  0
  5 42  1  0
  8 43  1  0
  9 44  1  0
  9 45  1  0
 11 46  1  0
 14 47  1  0
 14 48  1  0
 19 49  1  0
 20 50  1  0
 23 51  1  0
 24 52  1  0
 29 53  1  0
 29 54  1  0
 30 55  1  0
 30 56  1  0
 32 57  1  0
 32 58  1  0
 33 59  1  0
 33 60  1  0
 34 61  1  0
 35 62  1  0
 36 63  1  0
M  END
$$$$
