@<TRIPOS>MOLECULE
*****
 61 64 0 0 0
SMALL
GASTEIGER

@<TRIPOS>ATOM
      1 F          -7.5825    4.0735    0.6876 F       1  UNL1       -0.2055
      2 C          -6.6685    3.1363    0.3607 C.ar    1  UNL1        0.1234
      3 C          -6.7828    2.4183   -0.8048 C.ar    1  UNL1       -0.0261
      4 C          -5.8257    1.4647   -1.1069 C.ar    1  UNL1       -0.0540
      5 C          -4.7596    1.2093   -0.2782 C.ar    1  UNL1       -0.0259
      6 C          -3.7370    0.1604   -0.6364 C.3     1  UNL1        0.0585
      7 N          -2.4626    0.7063   -0.4573 N.3     1  UNL1       -0.3057
      8 C          -1.2951   -0.0374   -0.6937 C.3     1  UNL1       -0.0030
      9 C          -0.1104    0.9075   -0.4838 C.3     1  UNL1       -0.0375
     10 C           1.2170    0.2186   -0.7086 C.3     1  UNL1       -0.0376
     11 C           2.2796    1.2595   -0.4805 C.3     1  UNL1       -0.0373
     12 C           3.4501    0.7894    0.3060 C.3     1  UNL1       -0.0005
     13 N           3.7299   -0.5873    0.2446 N.3     1  UNL1       -0.2981
     14 C           4.6786   -1.0609   -0.6823 C.3     1  UNL1        0.0240
     15 C           5.9933   -0.4177   -0.4533 C.ar    1  UNL1       -0.0334
     16 C           6.8587   -0.9837    0.4775 C.ar    1  UNL1       -0.0573
     17 C           8.1151   -0.4140    0.7196 C.ar    1  UNL1       -0.0615
     18 C           8.5021    0.6998    0.0457 C.ar    1  UNL1       -0.0617
     19 C           7.6621    1.2828   -0.8846 C.ar    1  UNL1       -0.0615
     20 C           6.4276    0.7036   -1.1069 C.ar    1  UNL1       -0.0573
     21 C           2.6402   -1.4661    0.5268 C.3     1  UNL1       -0.0005
     22 C           1.2814   -0.9439    0.2233 C.3     1  UNL1       -0.0373
     23 C          -4.0673   -1.1204   -0.0330 C.ar    1  UNL1       -0.0259
     24 C          -5.1315   -1.1994    0.8385 C.ar    1  UNL1       -0.0540
     25 C          -5.5170   -2.3903    1.4262 C.ar    1  UNL1       -0.0261
     26 C          -4.8034   -3.5481    1.1254 C.ar    1  UNL1        0.1234
     27 F          -5.1675   -4.7369    1.6939 F       1  UNL1       -0.2055
     28 C          -3.7496   -3.4725    0.2626 C.ar    1  UNL1       -0.0261
     29 C          -3.3718   -2.2573   -0.3250 C.ar    1  UNL1       -0.0540
     30 C          -4.6842    1.9483    0.8739 C.ar    1  UNL1       -0.0540
     31 C          -5.6159    2.8985    1.2000 C.ar    1  UNL1       -0.0261
     32 H          -7.6015    2.5761   -1.4976 H       1  UNL1        0.0646
     33 H          -5.8833    0.8778   -2.0213 H       1  UNL1        0.0622
     34 H          -3.8697    0.0050   -1.7674 H       1  UNL1        0.0560
     35 H          -2.3685    1.7209   -0.3612 H       1  UNL1        0.1228
     36 H          -1.1828   -0.7884    0.1365 H       1  UNL1        0.0424
     37 H          -1.2305   -0.4774   -1.6950 H       1  UNL1        0.0424
     38 H          -0.1534    1.7605   -1.2140 H       1  UNL1        0.0280
     39 H          -0.1071    1.3418    0.5215 H       1  UNL1        0.0280
     40 H           1.2158   -0.1418   -1.7696 H       1  UNL1        0.0302
     41 H           2.5811    1.6260   -1.5057 H       1  UNL1        0.0280
     42 H           1.8739    2.1686    0.0249 H       1  UNL1        0.0280
     43 H           3.3008    1.0504    1.3990 H       1  UNL1        0.0427
     44 H           4.3403    1.3751    0.0149 H       1  UNL1        0.0427
     45 H           4.3755   -0.9951   -1.7452 H       1  UNL1        0.0476
     46 H           4.8210   -2.1604   -0.4875 H       1  UNL1        0.0476
     47 H           6.5798   -1.8641    1.0242 H       1  UNL1        0.0621
     48 H           8.7914   -0.8666    1.4554 H       1  UNL1        0.0618
     49 H           9.4838    1.1388    0.2411 H       1  UNL1        0.0618
     50 H           7.9953    2.1676   -1.4051 H       1  UNL1        0.0618
     51 H           5.7913    1.1639   -1.8377 H       1  UNL1        0.0621
     52 H           2.8427   -2.4326   -0.0171 H       1  UNL1        0.0427
     53 H           2.6821   -1.7224    1.6062 H       1  UNL1        0.0427
     54 H           0.6992   -1.7813   -0.2640 H       1  UNL1        0.0280
     55 H           0.6895   -0.7027    1.1416 H       1  UNL1        0.0280
     56 H          -5.7232   -0.3238    1.1088 H       1  UNL1        0.0622
     57 H          -6.3474   -2.4885    2.1145 H       1  UNL1        0.0646
     58 H          -3.1932   -4.3619    0.0238 H       1  UNL1        0.0646
     59 H          -2.5378   -2.3083   -1.0000 H       1  UNL1        0.0622
     60 H          -3.8466    1.7484    1.5275 H       1  UNL1        0.0622
     61 H          -5.5218    3.4538    2.1087 H       1  UNL1        0.0646
@<TRIPOS>BOND
     1     1     2    1
     2     2     3   ar
     3     3     4   ar
     4     4     5   ar
     5     5     6    1
     6     6     7    1
     7     7     8    1
     8     8     9    1
     9     9    10    1
    10    10    11    1
    11    11    12    1
    12    12    13    1
    13    13    14    1
    14    14    15    1
    15    15    16   ar
    16    16    17   ar
    17    17    18   ar
    18    18    19   ar
    19    19    20   ar
    20    13    21    1
    21    21    22    1
    22     6    23    1
    23    23    24   ar
    24    24    25   ar
    25    25    26   ar
    26    26    27    1
    27    26    28   ar
    28    28    29   ar
    29     5    30   ar
    30    30    31   ar
    31    31     2   ar
    32    22    10    1
    33    29    23   ar
    34    20    15   ar
    35     3    32    1
    36     4    33    1
    37     6    34    1
    38     7    35    1
    39     8    36    1
    40     8    37    1
    41     9    38    1
    42     9    39    1
    43    10    40    1
    44    11    41    1
    45    11    42    1
    46    12    43    1
    47    12    44    1
    48    14    45    1
    49    14    46    1
    50    16    47    1
    51    17    48    1
    52    18    49    1
    53    19    50    1
    54    20    51    1
    55    21    52    1
    56    21    53    1
    57    22    54    1
    58    22    55    1
    59    24    56    1
    60    25    57    1
    61    28    58    1
    62    29    59    1
    63    30    60    1
    64    31    61    1
