
     RDKit          3D

 49 53  0  0  0  0  0  0  0  0999 V2000
   -2.2436   -3.4880   -3.6640 N   0  0  0  0  0  0  0  0  0  0  0  0
   -2.6031   -3.2364   -2.5652 C   0  0  0  0  0  0  0  0  0  0  0  0
   -3.0152   -2.9441   -1.2336 C   0  0  0  0  0  0  0  0  0  0  0  0
   -4.0389   -3.5624   -0.5342 C   0  0  0  0  0  0  0  0  0  0  0  0
   -4.1113   -3.0032    0.6840 N   0  0  0  0  0  0  0  0  0  0  0  0
   -3.1706   -2.0491    0.7893 C   0  0  0  0  0  0  0  0  0  0  0  0
   -2.8486   -1.2019    1.8344 C   0  0  0  0  0  0  0  0  0  0  0  0
   -1.8103   -0.3188    1.6210 C   0  0  0  0  0  0  0  0  0  0  0  0
   -1.1325   -0.3013    0.3984 C   0  0  0  0  0  0  0  0  0  0  0  0
   -0.0471    0.6529    0.2344 C   0  0  0  0  0  0  0  0  0  0  0  0
   -0.1396    2.0127    0.2638 C   0  0  0  0  0  0  0  0  0  0  0  0
   -1.3114    2.8437    0.4583 C   0  0  0  0  0  0  0  0  0  0  0  0
   -2.3413    2.8118   -0.4578 C   0  0  0  0  0  0  0  0  0  0  0  0
   -3.4739    3.5895   -0.3037 C   0  0  0  0  0  0  0  0  0  0  0  0
   -3.5577    4.4089    0.7966 C   0  0  0  0  0  0  0  0  0  0  0  0
   -4.6660    5.2009    0.9918 F   0  0  0  0  0  0  0  0  0  0  0  0
   -2.5152    4.4276    1.7045 C   0  0  0  0  0  0  0  0  0  0  0  0
   -1.3807    3.6572    1.5624 C   0  0  0  0  0  0  0  0  0  0  0  0
    1.0850    2.5318    0.0740 N   0  0  0  0  0  0  0  0  0  0  0  0
    1.9153    1.4908   -0.0696 C   0  0  0  0  0  0  0  0  0  0  0  0
    1.2265    0.3597    0.0280 N   0  0  0  0  0  0  0  0  0  0  0  0
    1.8760   -0.9575   -0.0898 C   0  0  0  0  0  0  0  0  0  0  0  0
    2.0922   -1.2123   -1.5346 C   0  0  0  0  0  0  0  0  0  0  0  0
    3.4614   -1.7768   -1.8521 C   0  0  0  0  0  0  0  0  0  0  0  0
    4.4472   -0.7557   -1.3269 C   0  0  0  0  0  0  0  0  0  0  0  0
    4.3872   -0.7635    0.1559 C   0  0  0  0  0  0  0  0  0  0  0  0
    3.0781   -1.0012    0.7756 C   0  0  0  0  0  0  0  0  0  0  0  0
    3.0681   -2.2293    1.4828 O   0  0  0  0  0  0  0  0  0  0  0  0
   -1.5070   -1.1592   -0.5701 N   0  0  0  0  0  0  0  0  0  0  0  0
   -2.5143   -2.0239   -0.3785 N   0  0  0  0  0  0  0  0  0  0  0  0
   -4.6720   -4.3577   -0.9017 H   0  0  0  0  0  0  0  0  0  0  0  0
   -3.3669   -1.2098    2.7802 H   0  0  0  0  0  0  0  0  0  0  0  0
   -1.4907    0.3811    2.3852 H   0  0  0  0  0  0  0  0  0  0  0  0
   -2.2487    2.1548   -1.3188 H   0  0  0  0  0  0  0  0  0  0  0  0
   -4.2835    3.5766   -1.0067 H   0  0  0  0  0  0  0  0  0  0  0  0
   -2.5967    5.0772    2.5641 H   0  0  0  0  0  0  0  0  0  0  0  0
   -0.5691    3.6975    2.3061 H   0  0  0  0  0  0  0  0  0  0  0  0
    2.9812    1.6055   -0.2385 H   0  0  0  0  0  0  0  0  0  0  0  0
    1.1111   -1.6776    0.2724 H   0  0  0  0  0  0  0  0  0  0  0  0
    2.0238   -0.2602   -2.1371 H   0  0  0  0  0  0  0  0  0  0  0  0
    1.3287   -1.8807   -1.9843 H   0  0  0  0  0  0  0  0  0  0  0  0
    3.5901   -2.7166   -1.2913 H   0  0  0  0  0  0  0  0  0  0  0  0
    3.5333   -1.8787   -2.9389 H   0  0  0  0  0  0  0  0  0  0  0  0
    5.4817   -1.0375   -1.6470 H   0  0  0  0  0  0  0  0  0  0  0  0
    4.2637    0.2447   -1.7463 H   0  0  0  0  0  0  0  0  0  0  0  0
    5.1152   -1.5502    0.5165 H   0  0  0  0  0  0  0  0  0  0  0  0
    4.8587    0.2023    0.5092 H   0  0  0  0  0  0  0  0  0  0  0  0
    2.9308   -0.2322    1.5931 H   0  0  0  0  0  0  0  0  0  0  0  0
    3.8003   -2.1415    2.1469 H   0  0  0  0  0  0  0  0  0  0  0  0
  1  2  3  0
  2  3  1  0
  3  4  2  0
  4  5  1  0
  5  6  2  0
  6  7  1  0
  7  8  2  0
  8  9  1  0
  9 10  1  0
 10 11  2  0
 11 12  1  0
 12 13  2  0
 13 14  1  0
 14 15  2  0
 15 16  1  0
 15 17  1  0
 17 18  2  0
 11 19  1  0
 19 20  2  0
 20 21  1  0
 21 22  1  0
 22 23  1  0
 23 24  1  0
 24 25  1  0
 25 26  1  0
 26 27  1  0
 27 28  1  0
  9 29  2  0
 29 30  1  0
 30  3  1  0
 30  6  1  0
 21 10  1  0
 27 22  1  0
 18 12  1  0
  4 31  1  0
  7 32  1  0
  8 33  1  0
 13 34  1  0
 14 35  1  0
 17 36  1  0
 18 37  1  0
 20 38  1  0
 22 39  1  0
 23 40  1  0
 23 41  1  0
 24 42  1  0
 24 43  1  0
 25 44  1  0
 25 45  1  0
 26 46  1  0
 26 47  1  0
 27 48  1  0
 28 49  1  0
M  END
$$$$
