@<TRIPOS>MOLECULE
*****
 49 53 0 0 0
SMALL
GASTEIGER

@<TRIPOS>ATOM
      1 N          -2.2436   -3.4880   -3.6640 N.1     1  UNL1       -0.1892
      2 C          -2.6031   -3.2364   -2.5652 C.1     1  UNL1        0.1208
      3 C          -3.0152   -2.9441   -1.2336 C.ar    1  UNL1        0.1618
      4 C          -4.0389   -3.5624   -0.5342 C.ar    1  UNL1        0.0659
      5 N          -4.1113   -3.0032    0.6840 N.ar    1  UNL1       -0.2333
      6 C          -3.1706   -2.0491    0.7893 C.ar    1  UNL1        0.1555
      7 C          -2.8486   -1.2019    1.8344 C.ar    1  UNL1       -0.0153
      8 C          -1.8103   -0.3188    1.6210 C.ar    1  UNL1       -0.0290
      9 C          -1.1325   -0.3013    0.3984 C.ar    1  UNL1        0.1103
     10 C          -0.0471    0.6529    0.2344 C.ar    1  UNL1        0.0969
     11 C          -0.1396    2.0127    0.2638 C.ar    1  UNL1        0.0982
     12 C          -1.3114    2.8437    0.4583 C.ar    1  UNL1        0.0027
     13 C          -2.3413    2.8118   -0.4578 C.ar    1  UNL1       -0.0498
     14 C          -3.4739    3.5895   -0.3037 C.ar    1  UNL1       -0.0258
     15 C          -3.5577    4.4089    0.7966 C.ar    1  UNL1        0.1234
     16 F          -4.6660    5.2009    0.9918 F       1  UNL1       -0.2055
     17 C          -2.5152    4.4276    1.7045 C.ar    1  UNL1       -0.0258
     18 C          -1.3807    3.6572    1.5624 C.ar    1  UNL1       -0.0498
     19 N           1.0850    2.5318    0.0740 N.ar    1  UNL1       -0.2351
     20 C           1.9153    1.4908   -0.0696 C.ar    1  UNL1        0.0974
     21 N           1.2265    0.3597    0.0280 N.ar    1  UNL1       -0.3228
     22 C           1.8760   -0.9575   -0.0898 C.3     1  UNL1        0.0619
     23 C           2.0922   -1.2123   -1.5346 C.3     1  UNL1       -0.0296
     24 C           3.4614   -1.7768   -1.8521 C.3     1  UNL1       -0.0510
     25 C           4.4472   -0.7557   -1.3269 C.3     1  UNL1       -0.0506
     26 C           4.3872   -0.7635    0.1559 C.3     1  UNL1       -0.0249
     27 C           3.0781   -1.0012    0.7756 C.3     1  UNL1        0.0759
     28 O           3.0681   -2.2293    1.4828 O.3     1  UNL1       -0.3897
     29 N          -1.5070   -1.1592   -0.5701 N.ar    1  UNL1       -0.1623
     30 N          -2.5143   -2.0239   -0.3785 N.ar    1  UNL1       -0.2023
     31 H          -4.6720   -4.3577   -0.9017 H       1  UNL1        0.0859
     32 H          -3.3669   -1.2098    2.7802 H       1  UNL1        0.0655
     33 H          -1.4907    0.3811    2.3852 H       1  UNL1        0.0641
     34 H          -2.2487    2.1548   -1.3188 H       1  UNL1        0.0625
     35 H          -4.2835    3.5766   -1.0067 H       1  UNL1        0.0646
     36 H          -2.5967    5.0772    2.5641 H       1  UNL1        0.0646
     37 H          -0.5691    3.6975    2.3061 H       1  UNL1        0.0625
     38 H           2.9812    1.6055   -0.2385 H       1  UNL1        0.1029
     39 H           1.1111   -1.6776    0.2724 H       1  UNL1        0.0554
     40 H           2.0238   -0.2602   -2.1371 H       1  UNL1        0.0286
     41 H           1.3287   -1.8807   -1.9843 H       1  UNL1        0.0286
     42 H           3.5901   -2.7166   -1.2913 H       1  UNL1        0.0266
     43 H           3.5333   -1.8787   -2.9389 H       1  UNL1        0.0266
     44 H           5.4817   -1.0375   -1.6470 H       1  UNL1        0.0266
     45 H           4.2637    0.2447   -1.7463 H       1  UNL1        0.0266
     46 H           5.1152   -1.5502    0.5165 H       1  UNL1        0.0291
     47 H           4.8587    0.2023    0.5092 H       1  UNL1        0.0291
     48 H           2.9308   -0.2322    1.5931 H       1  UNL1        0.0614
     49 H           3.8003   -2.1415    2.1469 H       1  UNL1        0.2099
@<TRIPOS>BOND
     1     1     2    3
     2     2     3    1
     3     3     4   ar
     4     4     5   ar
     5     5     6   ar
     6     6     7   ar
     7     7     8   ar
     8     8     9   ar
     9     9    10    1
    10    10    11   ar
    11    11    12    1
    12    12    13   ar
    13    13    14   ar
    14    14    15   ar
    15    15    16    1
    16    15    17   ar
    17    17    18   ar
    18    11    19   ar
    19    19    20   ar
    20    20    21   ar
    21    21    22    1
    22    22    23    1
    23    23    24    1
    24    24    25    1
    25    25    26    1
    26    26    27    1
    27    27    28    1
    28     9    29   ar
    29    29    30   ar
    30    30     3   ar
    31    30     6   ar
    32    21    10   ar
    33    27    22    1
    34    18    12   ar
    35     4    31    1
    36     7    32    1
    37     8    33    1
    38    13    34    1
    39    14    35    1
    40    17    36    1
    41    18    37    1
    42    20    38    1
    43    22    39    1
    44    23    40    1
    45    23    41    1
    46    24    42    1
    47    24    43    1
    48    25    44    1
    49    25    45    1
    50    26    46    1
    51    26    47    1
    52    27    48    1
    53    28    49    1
