@<TRIPOS>MOLECULE
*****
 74 76 0 0 0
SMALL
GASTEIGER

@<TRIPOS>ATOM
      1 CB          3.5159    2.9870   -0.1817 C.3     1  UNL1       -0.0411
      2 CA          3.1049    1.8055    0.6400 C.3     1  UNL1        0.0827
      3 N           2.8775    0.6360   -0.1322 N.3     1  UNL1       -0.2937
      4 CA          4.0821    0.2876   -0.9192 C.3     1  UNL1        0.1065
      5 C           4.1198   -1.2149   -1.0695 C.3     1  UNL1       -0.0232
      6 C           5.3108   -1.7521   -1.7854 C.3     1  UNL1       -0.0258
      7 C           6.5724   -1.4776   -1.0666 C.ar    1  UNL1       -0.0473
      8 C           7.3181   -0.3669   -1.3099 C.ar    1  UNL1       -0.0586
      9 C           8.4925   -0.1753   -0.5858 C.ar    1  UNL1       -0.0615
     10 C           8.9110   -1.0778    0.3622 C.ar    1  UNL1       -0.0617
     11 C           8.1338   -2.1968    0.5874 C.ar    1  UNL1       -0.0615
     12 C           6.9699   -2.4034   -0.1181 C.ar    1  UNL1       -0.0586
     13 C           3.8551    0.8851   -2.3002 C.2     1  UNL1        0.3219
     14 O           4.7373    0.8287   -3.1746 O.2     1  UNL1       -0.2492
     15 OXT         2.6559    1.5095   -2.6315 O.3     1  UNL1       -0.4795
     16 C           2.0076    2.1522    1.5845 C.2     1  UNL1        0.2331
     17 O           2.2350    3.1429    2.3748 O.2     1  UNL1       -0.2739
     18 N           0.7650    1.5111    1.6961 N.am    1  UNL1       -0.2849
     19 C           0.2561    0.4235    0.8882 C.3     1  UNL1        0.0341
     20 C          -1.2437    0.5589    1.0670 C.3     1  UNL1        0.0411
     21 N          -1.9566   -0.6054    0.6538 N.am    1  UNL1       -0.3108
     22 C          -3.1891   -0.5720   -0.0548 C.2     1  UNL1        0.2148
     23 O          -3.6515    0.5801   -0.3097 O.2     1  UNL1       -0.2758
     24 C          -3.8909   -1.8127   -0.4690 C.3     1  UNL1        0.0394
     25 C          -5.2429   -1.5295   -1.0728 C.3     1  UNL1        0.0172
     26 N          -5.2057   -0.7053   -2.2356 N.3     1  UNL1       -0.3265
     27 C          -6.1475   -1.0562    0.0233 C.3     1  UNL1       -0.0092
     28 C          -7.5142   -0.7416   -0.4126 C.ar    1  UNL1       -0.0078
     29 C          -7.8781    0.5921   -0.5409 C.ar    1  UNL1       -0.0176
     30 C          -9.1576    0.9324   -0.9440 C.ar    1  UNL1        0.1588
     31 F          -9.5314    2.2384   -1.0791 F       1  UNL1       -0.2025
     32 C         -10.0495   -0.0893   -1.2108 C.ar    1  UNL1        0.1611
     33 F         -11.2970    0.2703   -1.6050 F       1  UNL1       -0.2024
     34 C          -9.7050   -1.4113   -1.0891 C.ar    1  UNL1        0.0119
     35 C          -8.4344   -1.7406   -0.6892 C.ar    1  UNL1        0.1295
     36 F          -8.0831   -3.0324   -0.5681 F       1  UNL1       -0.2051
     37 C          -1.3012    0.7794    2.5672 C.3     1  UNL1       -0.0039
     38 CA         -0.2328    1.8603    2.7156 C.3     1  UNL1        0.1246
     39 C           0.3625    1.8193    4.0772 C.2     1  UNL1        0.3255
     40 O          -0.2791    2.1457    5.0983 O.2     1  UNL1       -0.2489
     41 OXT         1.6703    1.4052    4.2234 O.3     1  UNL1       -0.4793
     42 HB1         2.6574    3.4228   -0.7533 H       1  UNL1        0.0249
     43 HB2         3.9577    3.7960    0.4823 H       1  UNL1        0.0249
     44 HB3         4.3205    2.7879   -0.9073 H       1  UNL1        0.0249
     45 HA          3.9951    1.6151    1.3322 H       1  UNL1        0.0554
     46 H           2.7168   -0.2172    0.4861 H       1  UNL1        0.1234
     47 HA          4.9428    0.7232   -0.4802 H       1  UNL1        0.0576
     48 H           4.1359   -1.6707   -0.0401 H       1  UNL1        0.0289
     49 H           3.2009   -1.5626   -1.5836 H       1  UNL1        0.0289
     50 H           5.3817   -1.3494   -2.8335 H       1  UNL1        0.0314
     51 H           5.1943   -2.8789   -1.8499 H       1  UNL1        0.0314
     52 H           7.0820    0.3884   -2.0283 H       1  UNL1        0.0620
     53 H           9.0766    0.7140   -0.7905 H       1  UNL1        0.0618
     54 H           9.8347   -0.9307    0.9287 H       1  UNL1        0.0618
     55 H           8.4666   -2.9146    1.3398 H       1  UNL1        0.0618
     56 H           6.3770   -3.2847    0.0727 H       1  UNL1        0.0620
     57 HXT         2.5383    1.9543   -3.5466 H       1  UNL1        0.2951
     58 H           0.5420    0.4776   -0.1794 H       1  UNL1        0.0483
     59 H           0.5285   -0.5662    1.2881 H       1  UNL1        0.0483
     60 H          -1.6671    1.4771    0.6249 H       1  UNL1        0.0514
     61 H          -1.5590   -1.5385    0.8798 H       1  UNL1        0.1490
     62 H          -3.2794   -2.3519   -1.2390 H       1  UNL1        0.0374
     63 H          -4.0055   -2.4966    0.3908 H       1  UNL1        0.0374
     64 H          -5.6402   -2.5348   -1.3958 H       1  UNL1        0.0466
     65 H          -6.0433   -0.9703   -2.8343 H       1  UNL1        0.1185
     66 H          -5.4484    0.2862   -1.9355 H       1  UNL1        0.1185
     67 H          -6.1702   -1.9072    0.7744 H       1  UNL1        0.0329
     68 H          -5.7523   -0.1931    0.5905 H       1  UNL1        0.0329
     69 H          -7.1824    1.3940   -0.3325 H       1  UNL1        0.0651
     70 H         -10.4402   -2.1936   -1.3112 H       1  UNL1        0.0676
     71 H          -0.8878   -0.1292    3.0304 H       1  UNL1        0.0307
     72 H          -2.2701    1.1129    2.9284 H       1  UNL1        0.0307
     73 HA         -0.7182    2.8199    2.4790 H       1  UNL1        0.0617
     74 HXT         2.1528    1.3302    5.1096 H       1  UNL1        0.2951
@<TRIPOS>BOND
     1     1     2    1
     2     2     3    1
     3     3     4    1
     4     4     5    1
     5     5     6    1
     6     6     7    1
     7     7     8   ar
     8     8     9   ar
     9     9    10   ar
    10    10    11   ar
    11    11    12   ar
    12     4    13    1
    13    13    14    2
    14    13    15    1
    15     2    16    1
    16    16    17    2
    17    16    18   am
    18    18    19    1
    19    19    20    1
    20    20    21    1
    21    21    22   am
    22    22    23    2
    23    22    24    1
    24    24    25    1
    25    25    26    1
    26    25    27    1
    27    27    28    1
    28    28    29   ar
    29    29    30   ar
    30    30    31    1
    31    30    32   ar
    32    32    33    1
    33    32    34   ar
    34    34    35   ar
    35    35    36    1
    36    20    37    1
    37    37    38    1
    38    38    39    1
    39    39    40    2
    40    39    41    1
    41    12     7   ar
    42    38    18    1
    43    35    28   ar
    44     1    42    1
    45     1    43    1
    46     1    44    1
    47     2    45    1
    48     3    46    1
    49     4    47    1
    50     5    48    1
    51     5    49    1
    52     6    50    1
    53     6    51    1
    54     8    52    1
    55     9    53    1
    56    10    54    1
    57    11    55    1
    58    12    56    1
    59    15    57    1
    60    19    58    1
    61    19    59    1
    62    20    60    1
    63    21    61    1
    64    24    62    1
    65    24    63    1
    66    25    64    1
    67    26    65    1
    68    26    66    1
    69    27    67    1
    70    27    68    1
    71    29    69    1
    72    34    70    1
    73    37    71    1
    74    37    72    1
    75    38    73    1
    76    41    74    1
