@<TRIPOS>MOLECULE
*****
 61 65 0 0 0
SMALL
GASTEIGER

@<TRIPOS>ATOM
      1 O          -5.8333   -0.9533    1.5228 O.3     1  UNL1       -0.3791
      2 C          -5.0167   -1.3771    0.4726 C.3     1  UNL1        0.1436
      3 C          -3.7301   -0.6097    0.5279 C.ar    1  UNL1        0.2286
      4 N          -3.5956    0.7439    0.4900 N.ar    1  UNL1       -0.2102
      5 C          -2.2940    1.0745    0.5613 C.ar    1  UNL1        0.1173
      6 C          -1.6912    2.3855    0.5545 C.ar    1  UNL1        0.0043
      7 C          -0.9753    2.8207    1.6405 C.ar    1  UNL1       -0.0497
      8 C          -0.3871    4.0626    1.6700 C.ar    1  UNL1       -0.0258
      9 C          -0.5410    4.8599    0.5679 C.ar    1  UNL1        0.1234
     10 F           0.0146    6.1042    0.5263 F       1  UNL1       -0.2055
     11 C          -1.2545    4.4418   -0.5296 C.ar    1  UNL1       -0.0258
     12 C          -1.8284    3.1999   -0.5291 C.ar    1  UNL1       -0.0497
     13 C          -1.6173   -0.1349    0.6456 C.ar    1  UNL1        0.1633
     14 C          -0.1708   -0.2787    0.7423 C.ar    1  UNL1        0.0241
     15 C           0.3858   -0.8869    1.8462 C.ar    1  UNL1       -0.0327
     16 C           1.7588   -1.0470    1.9837 C.ar    1  UNL1        0.0304
     17 N           2.5601   -0.6024    1.0259 N.ar    1  UNL1       -0.2405
     18 C           2.0633   -0.0026   -0.0692 C.ar    1  UNL1        0.1195
     19 N           2.9792    0.4478   -1.0531 N.pl3   1  UNL1       -0.3262
     20 C           4.4059    0.2946   -0.9211 C.3     1  UNL1        0.0220
     21 C           4.9233    1.0418    0.2722 C.3     1  UNL1       -0.0345
     22 C           6.4149    0.8354    0.4253 C.3     1  UNL1       -0.0514
     23 C           6.9930    0.0721   -0.7465 C.3     1  UNL1       -0.0529
     24 C           6.3006   -1.2242   -1.0121 C.3     1  UNL1       -0.0514
     25 C           4.8009   -1.1587   -0.7419 C.3     1  UNL1       -0.0345
     26 C           0.7012    0.1684   -0.2288 C.ar    1  UNL1       -0.0112
     27 O          -2.5284   -1.0788    0.6201 O.2     1  UNL1       -0.4361
     28 C          -4.6811   -2.8330    0.5452 C.3     1  UNL1       -0.0027
     29 C          -5.2178   -3.6403   -0.5909 C.3     1  UNL1       -0.0010
     30 N          -5.0567   -3.0717   -1.8771 N.3     1  UNL1       -0.3158
     31 C          -4.9408   -1.6579   -1.9390 C.3     1  UNL1       -0.0010
     32 C          -5.7207   -1.0144   -0.8154 C.3     1  UNL1       -0.0027
     33 H          -6.5382   -1.6276    1.7363 H       1  UNL1        0.2108
     34 H          -0.8381    2.1977    2.5375 H       1  UNL1        0.0625
     35 H           0.1582    4.3858    2.5053 H       1  UNL1        0.0646
     36 H          -1.3638    5.0789   -1.3819 H       1  UNL1        0.0646
     37 H          -2.3838    2.8811   -1.3901 H       1  UNL1        0.0625
     38 H          -0.2273   -1.2640    2.6503 H       1  UNL1        0.0640
     39 H           2.1932   -1.5253    2.8530 H       1  UNL1        0.0830
     40 H           2.5910    0.9075   -1.9032 H       1  UNL1        0.1477
     41 H           4.8931    0.7414   -1.8138 H       1  UNL1        0.0498
     42 H           4.6706    2.1261    0.1036 H       1  UNL1        0.0283
     43 H           4.4666    0.7647    1.2295 H       1  UNL1        0.0283
     44 H           6.6783    0.3639    1.4003 H       1  UNL1        0.0266
     45 H           6.8847    1.8399    0.4349 H       1  UNL1        0.0266
     46 H           6.9496    0.7538   -1.6194 H       1  UNL1        0.0265
     47 H           8.0670   -0.1042   -0.5234 H       1  UNL1        0.0265
     48 H           6.4642   -1.5049   -2.0892 H       1  UNL1        0.0266
     49 H           6.7037   -2.0707   -0.4266 H       1  UNL1        0.0266
     50 H           4.6786   -1.4262    0.3255 H       1  UNL1        0.0283
     51 H           4.2687   -1.8196   -1.4360 H       1  UNL1        0.0283
     52 H           0.3287    0.6502   -1.1121 H       1  UNL1        0.0659
     53 H          -5.1652   -3.2291    1.4841 H       1  UNL1        0.0310
     54 H          -3.5941   -3.0198    0.6935 H       1  UNL1        0.0310
     55 H          -4.6808   -4.6271   -0.5773 H       1  UNL1        0.0425
     56 H          -6.2804   -3.8860   -0.3621 H       1  UNL1        0.0425
     57 H          -4.3494   -3.5681   -2.4665 H       1  UNL1        0.1219
     58 H          -5.3886   -1.2890   -2.8862 H       1  UNL1        0.0425
     59 H          -3.8972   -1.2902   -1.8771 H       1  UNL1        0.0425
     60 H          -5.7866    0.0802   -0.9051 H       1  UNL1        0.0310
     61 H          -6.7232   -1.5012   -0.7701 H       1  UNL1        0.0310
@<TRIPOS>BOND
     1     1     2    1
     2     2     3    1
     3     3     4   ar
     4     4     5   ar
     5     5     6    1
     6     6     7   ar
     7     7     8   ar
     8     8     9   ar
     9     9    10    1
    10     9    11   ar
    11    11    12   ar
    12     5    13   ar
    13    13    14    1
    14    14    15   ar
    15    15    16   ar
    16    16    17   ar
    17    17    18   ar
    18    18    19    1
    19    19    20    1
    20    20    21    1
    21    21    22    1
    22    22    23    1
    23    23    24    1
    24    24    25    1
    25    18    26   ar
    26    13    27   ar
    27     2    28    1
    28    28    29    1
    29    29    30    1
    30    30    31    1
    31    31    32    1
    32    32     2    1
    33    27     3   ar
    34    12     6   ar
    35    26    14   ar
    36    25    20    1
    37     1    33    1
    38     7    34    1
    39     8    35    1
    40    11    36    1
    41    12    37    1
    42    15    38    1
    43    16    39    1
    44    19    40    1
    45    20    41    1
    46    21    42    1
    47    21    43    1
    48    22    44    1
    49    22    45    1
    50    23    46    1
    51    23    47    1
    52    24    48    1
    53    24    49    1
    54    25    50    1
    55    25    51    1
    56    26    52    1
    57    28    53    1
    58    28    54    1
    59    29    55    1
    60    29    56    1
    61    30    57    1
    62    31    58    1
    63    31    59    1
    64    32    60    1
    65    32    61    1
