
     RDKit          3D

 47 50  0  0  0  0  0  0  0  0999 V2000
    0.4192   -3.0584   -1.5802 C   0  0  0  0  0  0  0  0  0  0  0  0
   -0.5796   -2.6672   -0.5572 C   0  0  0  0  0  0  0  0  0  0  0  0
   -0.4456   -1.6612    0.2518 C   0  0  0  0  0  0  0  0  0  0  0  0
    0.6757   -0.7579    0.3039 C   0  0  0  0  0  0  0  0  0  0  0  0
    0.5421    0.1685    1.2194 O   0  0  0  0  0  0  0  0  0  0  0  0
    1.8548   -0.6624   -0.4024 N   0  0  0  0  0  0  0  0  0  0  0  0
    2.8765    0.3154   -0.2184 C   0  0  0  0  0  0  0  0  0  0  0  0
    2.8974    1.3322    0.6716 C   0  0  0  0  0  0  0  0  0  0  0  0
    3.9623    2.2441    0.7681 C   0  0  0  0  0  0  0  0  0  0  0  0
    3.9109    3.5308    1.9465 Cl  0  0  0  0  0  0  0  0  0  0  0  0
    5.0419    2.1209   -0.0657 C   0  0  0  0  0  0  0  0  0  0  0  0
    6.1893    2.8269   -0.2076 N   0  0  0  0  0  0  0  0  0  0  0  0
    6.9222    2.2884   -1.1780 N   0  0  0  0  0  0  0  0  0  0  0  0
    6.2620    1.2416   -1.6659 C   0  0  0  0  0  0  0  0  0  0  0  0
    5.0573    1.0894   -0.9931 C   0  0  0  0  0  0  0  0  0  0  0  0
    4.0069    0.2243   -1.0576 C   0  0  0  0  0  0  0  0  0  0  0  0
   -1.5321   -1.3412    1.2742 C   0  0  0  0  0  0  0  0  0  0  0  0
   -2.3987   -0.2317    0.8414 C   0  0  0  0  0  0  0  0  0  0  0  0
   -3.1714   -0.2560   -0.2928 C   0  0  0  0  0  0  0  0  0  0  0  0
   -3.9771    0.8015   -0.6749 C   0  0  0  0  0  0  0  0  0  0  0  0
   -4.0416    1.9489    0.0799 C   0  0  0  0  0  0  0  0  0  0  0  0
   -4.8948    3.1084   -0.2954 C   0  0  0  0  0  0  0  0  0  0  0  0
   -4.2886    3.9263   -1.2259 F   0  0  0  0  0  0  0  0  0  0  0  0
   -5.1964    3.8845    0.8069 F   0  0  0  0  0  0  0  0  0  0  0  0
   -6.1145    2.6895   -0.8197 F   0  0  0  0  0  0  0  0  0  0  0  0
   -3.2724    1.9978    1.2271 C   0  0  0  0  0  0  0  0  0  0  0  0
   -2.4776    0.9454    1.5973 C   0  0  0  0  0  0  0  0  0  0  0  0
   -2.3138   -2.5584    1.6679 C   0  0  0  0  0  0  0  0  0  0  0  0
   -2.7575   -3.2288    0.4238 C   0  0  0  0  0  0  0  0  0  0  0  0
   -3.9770   -3.5101    0.2468 O   0  0  0  0  0  0  0  0  0  0  0  0
   -1.7566   -3.5240   -0.5228 N   0  0  0  0  0  0  0  0  0  0  0  0
    1.3237   -3.4153   -1.0503 H   0  0  0  0  0  0  0  0  0  0  0  0
    0.0739   -3.9961   -2.1083 H   0  0  0  0  0  0  0  0  0  0  0  0
    0.5557   -2.3458   -2.3907 H   0  0  0  0  0  0  0  0  0  0  0  0
    2.0167   -1.3842   -1.1499 H   0  0  0  0  0  0  0  0  0  0  0  0
    2.0959    1.4919    1.3512 H   0  0  0  0  0  0  0  0  0  0  0  0
    6.4805    3.6632    0.3406 H   0  0  0  0  0  0  0  0  0  0  0  0
    6.5947    0.5955   -2.4635 H   0  0  0  0  0  0  0  0  0  0  0  0
    4.0784   -0.5669   -1.8091 H   0  0  0  0  0  0  0  0  0  0  0  0
   -1.0106   -1.0158    2.2333 H   0  0  0  0  0  0  0  0  0  0  0  0
   -3.1285   -1.1608   -0.9005 H   0  0  0  0  0  0  0  0  0  0  0  0
   -4.5693    0.7431   -1.5735 H   0  0  0  0  0  0  0  0  0  0  0  0
   -3.3302    2.9208    1.8258 H   0  0  0  0  0  0  0  0  0  0  0  0
   -1.8711    0.9947    2.5099 H   0  0  0  0  0  0  0  0  0  0  0  0
   -3.1970   -2.2067    2.2325 H   0  0  0  0  0  0  0  0  0  0  0  0
   -1.6712   -3.2199    2.2862 H   0  0  0  0  0  0  0  0  0  0  0  0
   -1.8647   -4.3251   -1.1703 H   0  0  0  0  0  0  0  0  0  0  0  0
  1  2  1  0
  2  3  2  0
  3  4  1  0
  4  5  2  0
  4  6  1  0
  6  7  1  0
  7  8  2  0
  8  9  1  0
  9 10  1  0
  9 11  2  0
 11 12  1  0
 12 13  1  0
 13 14  2  0
 14 15  1  0
 15 16  2  0
  3 17  1  0
 17 18  1  0
 18 19  2  0
 19 20  1  0
 20 21  2  0
 21 22  1  0
 22 23  1  0
 22 24  1  0
 22 25  1  0
 21 26  1  0
 26 27  2  0
 17 28  1  0
 28 29  1  0
 29 30  2  0
 29 31  1  0
 31  2  1  0
 16  7  1  0
 27 18  1  0
 15 11  1  0
  1 32  1  0
  1 33  1  0
  1 34  1  0
  6 35  1  0
  8 36  1  0
 12 37  1  0
 14 38  1  0
 16 39  1  0
 17 40  1  0
 19 41  1  0
 20 42  1  0
 26 43  1  0
 27 44  1  0
 28 45  1  0
 28 46  1  0
 31 47  1  0
M  END
$$$$
