@<TRIPOS>MOLECULE
*****
 47 50 0 0 0
SMALL
GASTEIGER

@<TRIPOS>ATOM
      1 C           0.4192   -3.0584   -1.5802 C.3     1  UNL1       -0.0260
      2 C          -0.5796   -2.6672   -0.5572 C.2     1  UNL1        0.0161
      3 C          -0.4456   -1.6612    0.2518 C.2     1  UNL1        0.0392
      4 C           0.6757   -0.7579    0.3039 C.2     1  UNL1        0.2463
      5 O           0.5421    0.1685    1.2194 O.2     1  UNL1       -0.2701
      6 N           1.8548   -0.6624   -0.4024 N.am    1  UNL1       -0.2816
      7 C           2.8765    0.3154   -0.2184 C.ar    1  UNL1        0.0358
      8 C           2.8974    1.3322    0.6716 C.ar    1  UNL1       -0.0200
      9 C           3.9623    2.2441    0.7681 C.ar    1  UNL1        0.0680
     10 CL          3.9109    3.5308    1.9465 Cl      1  UNL1       -0.0813
     11 C           5.0419    2.1209   -0.0657 C.ar    1  UNL1        0.0841
     12 N           6.1893    2.8269   -0.2076 N.ar    1  UNL1       -0.2755
     13 N           6.9222    2.2884   -1.1780 N.ar    1  UNL1       -0.1811
     14 C           6.2620    1.2416   -1.6659 C.ar    1  UNL1        0.0570
     15 C           5.0573    1.0894   -0.9931 C.ar    1  UNL1        0.0226
     16 C           4.0069    0.2243   -1.0576 C.ar    1  UNL1       -0.0297
     17 C          -1.5321   -1.3412    1.2742 C.3     1  UNL1        0.0238
     18 C          -2.3987   -0.2317    0.8414 C.ar    1  UNL1       -0.0393
     19 C          -3.1714   -0.2560   -0.2928 C.ar    1  UNL1       -0.0574
     20 C          -3.9771    0.8015   -0.6749 C.ar    1  UNL1       -0.0498
     21 C          -4.0416    1.9489    0.0799 C.ar    1  UNL1        0.0548
     22 C          -4.8948    3.1084   -0.2954 C.3     1  UNL1        0.4174
     23 F          -4.2886    3.9263   -1.2259 F       1  UNL1       -0.1659
     24 F          -5.1964    3.8845    0.8069 F       1  UNL1       -0.1659
     25 F          -6.1145    2.6895   -0.8197 F       1  UNL1       -0.1659
     26 C          -3.2724    1.9978    1.2271 C.ar    1  UNL1       -0.0498
     27 C          -2.4776    0.9454    1.5973 C.ar    1  UNL1       -0.0574
     28 C          -2.3138   -2.5584    1.6679 C.3     1  UNL1        0.0353
     29 C          -2.7575   -3.2288    0.4238 C.2     1  UNL1        0.2179
     30 O          -3.9770   -3.5101    0.2468 O.2     1  UNL1       -0.2754
     31 N          -1.7566   -3.5240   -0.5228 N.am    1  UNL1       -0.2889
     32 H           1.3237   -3.4153   -1.0503 H       1  UNL1        0.0290
     33 H           0.0739   -3.9961   -2.1083 H       1  UNL1        0.0290
     34 H           0.5557   -2.3458   -2.3907 H       1  UNL1        0.0290
     35 H           2.0167   -1.3842   -1.1499 H       1  UNL1        0.1551
     36 H           2.0959    1.4919    1.3512 H       1  UNL1        0.0651
     37 H           6.4805    3.6632    0.3406 H       1  UNL1        0.1890
     38 H           6.5947    0.5955   -2.4635 H       1  UNL1        0.0854
     39 H           4.0784   -0.5669   -1.8091 H       1  UNL1        0.0643
     40 H          -1.0106   -1.0158    2.2333 H       1  UNL1        0.0404
     41 H          -3.1285   -1.1608   -0.9005 H       1  UNL1        0.0621
     42 H          -4.5693    0.7431   -1.5735 H       1  UNL1        0.0623
     43 H          -3.3302    2.9208    1.8258 H       1  UNL1        0.0623
     44 H          -1.8711    0.9947    2.5099 H       1  UNL1        0.0621
     45 H          -3.1970   -2.2067    2.2325 H       1  UNL1        0.0368
     46 H          -1.6712   -3.2199    2.2862 H       1  UNL1        0.0368
     47 H          -1.8647   -4.3251   -1.1703 H       1  UNL1        0.1545
@<TRIPOS>BOND
     1     1     2    1
     2     2     3    2
     3     3     4    1
     4     4     5    2
     5     4     6   am
     6     6     7    1
     7     7     8   ar
     8     8     9   ar
     9     9    10    1
    10     9    11   ar
    11    11    12   ar
    12    12    13   ar
    13    13    14   ar
    14    14    15   ar
    15    15    16   ar
    16     3    17    1
    17    17    18    1
    18    18    19   ar
    19    19    20   ar
    20    20    21   ar
    21    21    22    1
    22    22    23    1
    23    22    24    1
    24    22    25    1
    25    21    26   ar
    26    26    27   ar
    27    17    28    1
    28    28    29    1
    29    29    30    2
    30    29    31   am
    31    31     2    1
    32    16     7   ar
    33    27    18   ar
    34    15    11   ar
    35     1    32    1
    36     1    33    1
    37     1    34    1
    38     6    35    1
    39     8    36    1
    40    12    37    1
    41    14    38    1
    42    16    39    1
    43    17    40    1
    44    19    41    1
    45    20    42    1
    46    26    43    1
    47    27    44    1
    48    28    45    1
    49    28    46    1
    50    31    47    1
