
     RDKit          3D

 31 33  0  0  0  0  0  0  0  0999 V2000
   -1.3215    3.5437    2.0578 O   0  0  0  0  0  0  0  0  0  0  0  0
   -0.8048    2.6915    1.2604 C   0  0  0  0  0  0  0  0  0  0  0  0
   -0.9759    2.9844   -0.1178 N   0  0  0  0  0  0  0  0  0  0  0  0
   -0.3289    1.9155   -0.8280 C   0  0  0  0  0  0  0  0  0  0  0  0
   -0.0079    1.8802   -2.0642 O   0  0  0  0  0  0  0  0  0  0  0  0
   -0.0619    0.7797    0.1192 C   0  0  0  0  0  0  0  0  0  0  0  0
   -0.0645    1.4625    1.3997 N   0  0  0  0  0  0  0  0  0  0  0  0
    1.2511    0.1739   -0.0841 C   0  0  0  0  0  0  0  0  0  0  0  0
    1.5758   -0.3510   -1.3327 C   0  0  0  0  0  0  0  0  0  0  0  0
    2.8228   -0.9385   -1.5644 C   0  0  0  0  0  0  0  0  0  0  0  0
    3.7686   -1.0211   -0.5806 C   0  0  0  0  0  0  0  0  0  0  0  0
    3.4796   -0.5088    0.6752 C   0  0  0  0  0  0  0  0  0  0  0  0
    2.2473    0.0629    0.8757 C   0  0  0  0  0  0  0  0  0  0  0  0
   -1.1870   -0.1691   -0.0164 C   0  0  0  0  0  0  0  0  0  0  0  0
   -1.1325   -1.1572    0.9674 C   0  0  0  0  0  0  0  0  0  0  0  0
   -2.0978   -2.1586    1.0285 C   0  0  0  0  0  0  0  0  0  0  0  0
   -3.1023   -2.1346    0.0844 C   0  0  0  0  0  0  0  0  0  0  0  0
   -3.1749   -1.1668   -0.8970 C   0  0  0  0  0  0  0  0  0  0  0  0
   -2.2193   -0.1934   -0.9404 C   0  0  0  0  0  0  0  0  0  0  0  0
   -1.4336    3.7475   -0.6642 H   0  0  0  0  0  0  0  0  0  0  0  0
    0.2917    1.3634    2.3963 H   0  0  0  0  0  0  0  0  0  0  0  0
    0.8765   -0.3194   -2.1535 H   0  0  0  0  0  0  0  0  0  0  0  0
    3.0801   -1.3531   -2.5498 H   0  0  0  0  0  0  0  0  0  0  0  0
    4.7421   -1.4674   -0.7221 H   0  0  0  0  0  0  0  0  0  0  0  0
    4.1913   -0.5473    1.4913 H   0  0  0  0  0  0  0  0  0  0  0  0
    2.0374    0.4570    1.8580 H   0  0  0  0  0  0  0  0  0  0  0  0
   -0.3785   -1.2542    1.7507 H   0  0  0  0  0  0  0  0  0  0  0  0
   -2.0904   -2.9451    1.7786 H   0  0  0  0  0  0  0  0  0  0  0  0
   -3.8757   -2.8778    0.0774 H   0  0  0  0  0  0  0  0  0  0  0  0
   -3.9596   -1.1257   -1.6554 H   0  0  0  0  0  0  0  0  0  0  0  0
   -2.1475    0.6270   -1.6500 H   0  0  0  0  0  0  0  0  0  0  0  0
  1  2  2  0
  2  3  1  0
  3  4  1  0
  4  5  2  0
  4  6  1  0
  6  7  1  0
  6  8  1  0
  8  9  2  0
  9 10  1  0
 10 11  2  0
 11 12  1  0
 12 13  2  0
  6 14  1  0
 14 15  2  0
 15 16  1  0
 16 17  2  0
 17 18  1  0
 18 19  2  0
  7  2  1  0
 13  8  1  0
 19 14  1  0
  3 20  1  0
  7 21  1  0
  9 22  1  0
 10 23  1  0
 11 24  1  0
 12 25  1  0
 13 26  1  0
 15 27  1  0
 16 28  1  0
 17 29  1  0
 18 30  1  0
 19 31  1  0
M  END
$$$$
