@<TRIPOS>MOLECULE
*****
 51 55 0 0 0
SMALL
GASTEIGER

@<TRIPOS>ATOM
      1 C          -3.6216   -4.4186    0.1451 C.3     1  UNL1       -0.0455
      2 C          -3.7303   -3.1676    0.9857 C.3     1  UNL1        0.0396
      3 N          -3.3876   -2.0213    0.1536 N.ar    1  UNL1       -0.2589
      4 N          -4.2142   -1.3034   -0.5743 N.ar    1  UNL1       -0.1755
      5 C          -3.5525   -0.3267   -1.2101 C.ar    1  UNL1        0.0660
      6 C          -4.1103    0.7069   -2.1426 C.3     1  UNL1       -0.0203
      7 C          -2.2147   -0.4716   -0.8302 C.ar    1  UNL1        0.0304
      8 C          -2.1256   -1.5438    0.0293 C.ar    1  UNL1        0.1293
      9 C          -0.7468   -1.7345    0.4524 C.2     1  UNL1        0.2700
     10 O          -0.2412   -2.5841    1.2185 O.2     1  UNL1       -0.2679
     11 N           0.0302   -0.7053   -0.2001 N.am    1  UNL1       -0.2531
     12 C           1.4349   -0.5178   -0.0680 C.ar    1  UNL1        0.0545
     13 C           2.3453   -1.0675   -0.9331 C.ar    1  UNL1       -0.0324
     14 C           3.6952   -0.8926   -0.7797 C.ar    1  UNL1       -0.0041
     15 C           4.6697   -1.5027   -1.7371 C.3     1  UNL1       -0.0361
     16 C           4.1434   -0.1384    0.2808 C.ar    1  UNL1        0.1641
     17 N           5.3827    0.2069    0.6894 N.ar    1  UNL1       -0.1292
     18 N           5.2752    0.9490    1.7738 N.ar    1  UNL1       -0.1340
     19 C           3.9643    1.0863    2.0704 C.ar    1  UNL1        0.1347
     20 C           3.4064    1.8376    3.2015 C.3     1  UNL1       -0.0041
     21 N           3.2755    0.4051    1.1337 N.ar    1  UNL1       -0.2846
     22 C           1.9574    0.2325    0.9813 C.ar    1  UNL1        0.0344
     23 C          -0.8712    0.0813   -1.0054 C.3     1  UNL1        0.0854
     24 C          -0.7448    1.5164   -0.6226 C.ar    1  UNL1       -0.0221
     25 C           0.4200    2.2219   -0.8311 C.ar    1  UNL1       -0.0551
     26 C           0.5503    3.5482   -0.4544 C.ar    1  UNL1       -0.0431
     27 C          -0.4923    4.2083    0.1459 C.ar    1  UNL1        0.0410
     28 CL         -0.2702    5.8761    0.5977 Cl      1  UNL1       -0.0835
     29 C          -1.6650    3.5279    0.3648 C.ar    1  UNL1       -0.0431
     30 C          -1.7931    2.1925   -0.0152 C.ar    1  UNL1       -0.0551
     31 H          -2.8880   -5.1525    0.5812 H       1  UNL1        0.0247
     32 H          -4.5922   -4.9618    0.0710 H       1  UNL1        0.0247
     33 H          -3.3223   -4.1713   -0.8937 H       1  UNL1        0.0247
     34 H          -3.1008   -3.2061    1.8923 H       1  UNL1        0.0506
     35 H          -4.7844   -3.0953    1.3272 H       1  UNL1        0.0506
     36 H          -4.3522    1.6135   -1.5888 H       1  UNL1        0.0293
     37 H          -3.3979    0.9169   -2.9694 H       1  UNL1        0.0293
     38 H          -5.0106    0.2282   -2.6020 H       1  UNL1        0.0293
     39 H           2.0060   -1.6595   -1.7665 H       1  UNL1        0.0640
     40 H           4.1165   -1.6235   -2.7075 H       1  UNL1        0.0279
     41 H           5.5610   -0.8557   -1.8577 H       1  UNL1        0.0279
     42 H           4.9870   -2.5215   -1.4039 H       1  UNL1        0.0279
     43 H           4.1137    1.7945    4.0749 H       1  UNL1        0.0308
     44 H           3.2833    2.9112    2.8797 H       1  UNL1        0.0308
     45 H           2.4130    1.4586    3.5182 H       1  UNL1        0.0308
     46 H           1.2732    0.6822    1.6845 H       1  UNL1        0.0833
     47 H          -0.6265   -0.0456   -2.0985 H       1  UNL1        0.0606
     48 H           1.2667    1.7351   -1.3183 H       1  UNL1        0.0621
     49 H           1.5112    4.0383   -0.6553 H       1  UNL1        0.0632
     50 H          -2.5048    4.0398    0.8417 H       1  UNL1        0.0632
     51 H          -2.7210    1.6736    0.1705 H       1  UNL1        0.0621
@<TRIPOS>BOND
     1     1     2    1
     2     2     3    1
     3     3     4   ar
     4     4     5   ar
     5     5     6    1
     6     5     7   ar
     7     7     8   ar
     8     8     9    1
     9     9    10    2
    10     9    11   am
    11    11    12    1
    12    12    13   ar
    13    13    14   ar
    14    14    15    1
    15    14    16   ar
    16    16    17   ar
    17    17    18   ar
    18    18    19   ar
    19    19    20    1
    20    19    21   ar
    21    21    22   ar
    22    11    23    1
    23    23    24    1
    24    24    25   ar
    25    25    26   ar
    26    26    27   ar
    27    27    28    1
    28    27    29   ar
    29    29    30   ar
    30     8     3   ar
    31    22    12   ar
    32    30    24   ar
    33    23     7    1
    34    21    16   ar
    35     1    31    1
    36     1    32    1
    37     1    33    1
    38     2    34    1
    39     2    35    1
    40     6    36    1
    41     6    37    1
    42     6    38    1
    43    13    39    1
    44    15    40    1
    45    15    41    1
    46    15    42    1
    47    20    43    1
    48    20    44    1
    49    20    45    1
    50    22    46    1
    51    23    47    1
    52    25    48    1
    53    26    49    1
    54    29    50    1
    55    30    51    1
