
     RDKit          3D

 55 58  0  0  0  0  0  0  0  0999 V2000
   -1.7918    0.2775    2.9680 C   0  0  0  0  0  0  0  0  0  0  0  0
   -1.5243   -0.0233    1.5397 C   0  0  0  0  0  0  0  0  0  0  0  0
   -2.3690    0.2117    0.4800 C   0  0  0  0  0  0  0  0  0  0  0  0
   -3.6303    0.7743    0.4676 O   0  0  0  0  0  0  0  0  0  0  0  0
   -4.8186    0.0956    0.6507 C   0  0  0  0  0  0  0  0  0  0  0  0
   -5.4651   -0.5247   -0.3895 C   0  0  0  0  0  0  0  0  0  0  0  0
   -6.6702   -1.2197   -0.2387 C   0  0  0  0  0  0  0  0  0  0  0  0
   -7.2403   -1.2870    1.0164 C   0  0  0  0  0  0  0  0  0  0  0  0
   -8.7379   -2.1393    1.2566 Cl  0  0  0  0  0  0  0  0  0  0  0  0
   -6.5968   -0.6672    2.0611 C   0  0  0  0  0  0  0  0  0  0  0  0
   -5.4047    0.0195    1.9083 C   0  0  0  0  0  0  0  0  0  0  0  0
   -1.7395   -0.2259   -0.6918 C   0  0  0  0  0  0  0  0  0  0  0  0
   -2.0721   -0.2534   -2.0249 C   0  0  0  0  0  0  0  0  0  0  0  0
   -1.2092   -0.7661   -2.9900 C   0  0  0  0  0  0  0  0  0  0  0  0
   -0.0083   -1.2448   -2.5563 C   0  0  0  0  0  0  0  0  0  0  0  0
    0.9780   -1.8138   -3.5274 C   0  0  0  0  0  0  0  0  0  0  0  0
    0.7983   -3.1891   -3.6606 F   0  0  0  0  0  0  0  0  0  0  0  0
    0.8081   -1.1605   -4.7240 F   0  0  0  0  0  0  0  0  0  0  0  0
    2.2353   -1.6258   -3.0133 F   0  0  0  0  0  0  0  0  0  0  0  0
    0.3084   -1.2131   -1.2492 N   0  0  0  0  0  0  0  0  0  0  0  0
   -0.5307   -0.7136   -0.3048 C   0  0  0  0  0  0  0  0  0  0  0  0
   -0.4155   -0.5865    1.0239 N   0  0  0  0  0  0  0  0  0  0  0  0
    0.7654   -1.0175    1.7472 C   0  0  0  0  0  0  0  0  0  0  0  0
    1.7483    0.0950    1.8003 C   0  0  0  0  0  0  0  0  0  0  0  0
    1.7705    1.0441    2.7865 C   0  0  0  0  0  0  0  0  0  0  0  0
    2.7132    2.0738    2.8010 C   0  0  0  0  0  0  0  0  0  0  0  0
    3.6567    2.1543    1.8031 C   0  0  0  0  0  0  0  0  0  0  0  0
    4.8171    3.4647    1.8664 Cl  0  0  0  0  0  0  0  0  0  0  0  0
    3.6656    1.2114    0.7880 C   0  0  0  0  0  0  0  0  0  0  0  0
    4.6172    1.3360   -0.1723 O   0  0  0  0  0  0  0  0  0  0  0  0
    4.8706    0.5589   -1.2903 C   0  0  1  0  0  0  0  0  0  0  0  0
    4.6872    1.3118   -2.5940 C   0  0  0  0  0  0  0  0  0  0  0  0
    6.2041   -0.0567   -1.3140 C   0  0  0  0  0  0  0  0  0  0  0  0
    7.0509    0.1013   -0.4048 O   0  0  0  0  0  0  0  0  0  0  0  0
    6.5506   -0.8528   -2.3909 O   0  0  0  0  0  0  0  0  0  0  0  0
    2.7230    0.2066    0.8000 C   0  0  0  0  0  0  0  0  0  0  0  0
   -1.0111   -0.2271    3.5895 H   0  0  0  0  0  0  0  0  0  0  0  0
   -1.8019    1.3721    3.1032 H   0  0  0  0  0  0  0  0  0  0  0  0
   -2.7610   -0.1398    3.2883 H   0  0  0  0  0  0  0  0  0  0  0  0
   -5.0746   -0.5097   -1.3976 H   0  0  0  0  0  0  0  0  0  0  0  0
   -7.1484   -1.6961   -1.0876 H   0  0  0  0  0  0  0  0  0  0  0  0
   -7.0534   -0.7285    3.0329 H   0  0  0  0  0  0  0  0  0  0  0  0
   -4.9674    0.4802    2.7599 H   0  0  0  0  0  0  0  0  0  0  0  0
   -3.0177    0.1310   -2.3569 H   0  0  0  0  0  0  0  0  0  0  0  0
   -1.4653   -0.7900   -4.0354 H   0  0  0  0  0  0  0  0  0  0  0  0
    0.4898   -1.3334    2.7705 H   0  0  0  0  0  0  0  0  0  0  0  0
    1.2146   -1.9166    1.2554 H   0  0  0  0  0  0  0  0  0  0  0  0
    1.0206    0.9785    3.5815 H   0  0  0  0  0  0  0  0  0  0  0  0
    2.6676    2.7960    3.6231 H   0  0  0  0  0  0  0  0  0  0  0  0
    4.1362   -0.2762   -1.3288 H   0  0  0  0  0  0  0  0  0  0  0  0
    4.0133    2.1837   -2.4217 H   0  0  0  0  0  0  0  0  0  0  0  0
    4.3765    0.6657   -3.4161 H   0  0  0  0  0  0  0  0  0  0  0  0
    5.6805    1.7435   -2.8542 H   0  0  0  0  0  0  0  0  0  0  0  0
    7.2748   -1.5356   -2.3679 H   0  0  0  0  0  0  0  0  0  0  0  0
    2.6832   -0.5605    0.0341 H   0  0  0  0  0  0  0  0  0  0  0  0
  1  2  1  0
  2  3  2  0
  3  4  1  0
  4  5  1  0
  5  6  2  0
  6  7  1  0
  7  8  2  0
  8  9  1  0
  8 10  1  0
 10 11  2  0
  3 12  1  0
 12 13  2  0
 13 14  1  0
 14 15  2  0
 15 16  1  0
 16 17  1  0
 16 18  1  0
 16 19  1  0
 15 20  1  0
 20 21  2  0
 21 22  1  0
 22 23  1  0
 23 24  1  0
 24 25  2  0
 25 26  1  0
 26 27  2  0
 27 28  1  0
 27 29  1  0
 29 30  1  0
 30 31  1  0
 31 32  1  0
 31 33  1  0
 33 34  2  0
 33 35  1  0
 29 36  2  0
 22  2  1  0
 36 24  1  0
 11  5  1  0
 21 12  1  0
  1 37  1  0
  1 38  1  0
  1 39  1  0
  6 40  1  0
  7 41  1  0
 10 42  1  0
 11 43  1  0
 13 44  1  0
 14 45  1  0
 23 46  1  0
 23 47  1  0
 25 48  1  0
 26 49  1  0
 31 50  1  6
 32 51  1  0
 32 52  1  0
 32 53  1  0
 35 54  1  0
 36 55  1  0
M  END
$$$$
