@<TRIPOS>MOLECULE
*****
 55 58 0 0 0
SMALL
GASTEIGER

@<TRIPOS>ATOM
      1 C          -1.7918    0.2775    2.9680 C.3     1  UNL1       -0.0206
      2 C          -1.5243   -0.0233    1.5397 C.ar    1  UNL1        0.0607
      3 C          -2.3690    0.2117    0.4800 C.ar    1  UNL1        0.1580
      4 O          -3.6303    0.7743    0.4676 O.3     1  UNL1       -0.4536
      5 C          -4.8186    0.0956    0.6507 C.ar    1  UNL1        0.1286
      6 C          -5.4651   -0.5247   -0.3895 C.ar    1  UNL1       -0.0180
      7 C          -6.6702   -1.2197   -0.2387 C.ar    1  UNL1       -0.0399
      8 C          -7.2403   -1.2870    1.0164 C.ar    1  UNL1        0.0412
      9 CL         -8.7379   -2.1393    1.2566 Cl      1  UNL1       -0.0835
     10 C          -6.5968   -0.6672    2.0611 C.ar    1  UNL1       -0.0399
     11 C          -5.4047    0.0195    1.9083 C.ar    1  UNL1       -0.0180
     12 C          -1.7395   -0.2259   -0.6918 C.ar    1  UNL1        0.0614
     13 C          -2.0721   -0.2534   -2.0249 C.ar    1  UNL1       -0.0455
     14 C          -1.2092   -0.7661   -2.9900 C.ar    1  UNL1       -0.0308
     15 C          -0.0083   -1.2448   -2.5563 C.ar    1  UNL1        0.1459
     16 C           0.9780   -1.8138   -3.5274 C.3     1  UNL1        0.4343
     17 F           0.7983   -3.1891   -3.6606 F       1  UNL1       -0.1644
     18 F           0.8081   -1.1605   -4.7240 F       1  UNL1       -0.1644
     19 F           2.2353   -1.6258   -3.0133 F       1  UNL1       -0.1644
     20 N           0.3084   -1.2131   -1.2492 N.ar    1  UNL1       -0.2249
     21 C          -0.5307   -0.7136   -0.3048 C.ar    1  UNL1        0.1454
     22 N          -0.4155   -0.5865    1.0239 N.ar    1  UNL1       -0.3214
     23 C           0.7654   -1.0175    1.7472 C.3     1  UNL1        0.0501
     24 C           1.7483    0.0950    1.8003 C.ar    1  UNL1       -0.0242
     25 C           1.7705    1.0441    2.7865 C.ar    1  UNL1       -0.0553
     26 C           2.7132    2.0738    2.8010 C.ar    1  UNL1       -0.0395
     27 C           3.6567    2.1543    1.8031 C.ar    1  UNL1        0.0826
     28 CL          4.8171    3.4647    1.8664 Cl      1  UNL1       -0.0798
     29 C           3.6656    1.2114    0.7880 C.ar    1  UNL1        0.1402
     30 O           4.6172    1.3360   -0.1723 O.3     1  UNL1       -0.4765
     31 C           4.8706    0.5589   -1.2903 C.3     1  UNL1        0.1931
     32 C           4.6872    1.3118   -2.5940 C.3     1  UNL1       -0.0172
     33 C           6.2041   -0.0567   -1.3140 C.2     1  UNL1        0.3456
     34 O           7.0509    0.1013   -0.4048 O.2     1  UNL1       -0.2468
     35 O           6.5506   -0.8528   -2.3909 O.3     1  UNL1       -0.4781
     36 C           2.7230    0.2066    0.8000 C.ar    1  UNL1       -0.0136
     37 H          -1.0111   -0.2271    3.5895 H       1  UNL1        0.0293
     38 H          -1.8019    1.3721    3.1032 H       1  UNL1        0.0293
     39 H          -2.7610   -0.1398    3.2883 H       1  UNL1        0.0293
     40 H          -5.0746   -0.5097   -1.3976 H       1  UNL1        0.0655
     41 H          -7.1484   -1.6961   -1.0876 H       1  UNL1        0.0633
     42 H          -7.0534   -0.7285    3.0329 H       1  UNL1        0.0633
     43 H          -4.9674    0.4802    2.7599 H       1  UNL1        0.0655
     44 H          -3.0177    0.1310   -2.3569 H       1  UNL1        0.0626
     45 H          -1.4653   -0.7900   -4.0354 H       1  UNL1        0.0639
     46 H           0.4898   -1.3334    2.7705 H       1  UNL1        0.0542
     47 H           1.2146   -1.9166    1.2554 H       1  UNL1        0.0542
     48 H           1.0206    0.9785    3.5815 H       1  UNL1        0.0621
     49 H           2.6676    2.7960    3.6231 H       1  UNL1        0.0633
     50 H           4.1362   -0.2762   -1.3288 H       1  UNL1        0.0849
     51 H           4.0133    2.1837   -2.4217 H       1  UNL1        0.0271
     52 H           4.3765    0.6657   -3.4161 H       1  UNL1        0.0271
     53 H           5.6805    1.7435   -2.8542 H       1  UNL1        0.0271
     54 H           7.2748   -1.5356   -2.3679 H       1  UNL1        0.2952
     55 H           2.6832   -0.5605    0.0341 H       1  UNL1        0.0658
@<TRIPOS>BOND
     1     1     2    1
     2     2     3   ar
     3     3     4    1
     4     4     5    1
     5     5     6   ar
     6     6     7   ar
     7     7     8   ar
     8     8     9    1
     9     8    10   ar
    10    10    11   ar
    11     3    12   ar
    12    12    13   ar
    13    13    14   ar
    14    14    15   ar
    15    15    16    1
    16    16    17    1
    17    16    18    1
    18    16    19    1
    19    15    20   ar
    20    20    21   ar
    21    21    22   ar
    22    22    23    1
    23    23    24    1
    24    24    25   ar
    25    25    26   ar
    26    26    27   ar
    27    27    28    1
    28    27    29   ar
    29    29    30    1
    30    30    31    1
    31    31    32    1
    32    31    33    1
    33    33    34    2
    34    33    35    1
    35    29    36   ar
    36    22     2   ar
    37    36    24   ar
    38    11     5   ar
    39    21    12   ar
    40     1    37    1
    41     1    38    1
    42     1    39    1
    43     6    40    1
    44     7    41    1
    45    10    42    1
    46    11    43    1
    47    13    44    1
    48    14    45    1
    49    23    46    1
    50    23    47    1
    51    25    48    1
    52    26    49    1
    53    31    50    1
    54    32    51    1
    55    32    52    1
    56    32    53    1
    57    35    54    1
    58    36    55    1
