@<TRIPOS>MOLECULE
*****
 54 56 0 0 0
SMALL
GASTEIGER

@<TRIPOS>ATOM
      1 C          -3.0506    2.3065   -0.9958 C.3     1  UNL1       -0.0635
      2 C          -1.7664    1.8160   -0.3460 C.3     1  UNL1       -0.0350
      3 C          -2.1275    0.9453    0.8147 C.3     1  UNL1        0.0487
      4 N          -1.0264    0.3958    1.5283 N.pl3   1  UNL1       -0.3081
      5 C           0.0009   -0.3916    0.8761 C.ar    1  UNL1        0.2192
      6 N           1.2413    0.0675    0.7568 N.ar    1  UNL1       -0.1974
      7 C           2.2039   -0.6070    0.1340 C.ar    1  UNL1        0.1519
      8 N           3.5233   -0.1561   -0.0382 N.pl3   1  UNL1       -0.3230
      9 C           3.9976    1.0964    0.4919 C.3     1  UNL1        0.0372
     10 C           3.1386    2.2112    0.0891 C.ar    1  UNL1       -0.0123
     11 C           3.2576    2.7917   -1.1529 C.ar    1  UNL1       -0.0542
     12 C           2.4730    3.8664   -1.5132 C.ar    1  UNL1       -0.0433
     13 C           1.5501    4.3706   -0.6122 C.ar    1  UNL1        0.0276
     14 N           1.4624    3.7857    0.5789 N.ar    1  UNL1       -0.2629
     15 C           2.2110    2.7396    0.9587 C.ar    1  UNL1        0.0322
     16 C           1.8923   -1.8602   -0.4214 C.ar    1  UNL1        0.1476
     17 N           2.5370   -2.8054   -1.0960 N.ar    1  UNL1       -0.2306
     18 C           1.7029   -3.8269   -1.3829 C.ar    1  UNL1        0.0985
     19 N           0.4999   -3.5131   -0.8729 N.ar    1  UNL1       -0.3123
     20 C          -0.7078   -4.2981   -0.9290 C.3     1  UNL1        0.0317
     21 C          -0.8341   -4.9157   -2.2821 C.3     1  UNL1       -0.0444
     22 C          -0.7220   -5.3102    0.1889 C.3     1  UNL1       -0.0444
     23 C           0.6032   -2.2958   -0.2738 C.ar    1  UNL1        0.1674
     24 N          -0.3118   -1.5824    0.3556 N.ar    1  UNL1       -0.1947
     25 C          -3.0320    1.7108    1.7601 C.3     1  UNL1        0.0707
     26 C          -2.3799    2.9266    2.3563 C.3     1  UNL1       -0.0372
     27 O          -3.5382    0.8754    2.7610 O.3     1  UNL1       -0.3902
     28 H          -3.7931    1.4542   -0.9827 H       1  UNL1        0.0230
     29 H          -2.8056    2.5642   -2.0499 H       1  UNL1        0.0230
     30 H          -3.4695    3.1612   -0.4665 H       1  UNL1        0.0230
     31 H          -1.2029    1.2766   -1.1362 H       1  UNL1        0.0281
     32 H          -1.1768    2.6846   -0.0260 H       1  UNL1        0.0281
     33 H          -2.7464    0.0835    0.4524 H       1  UNL1        0.0523
     34 H          -0.9327    0.5500    2.5392 H       1  UNL1        0.1493
     35 H           4.1945   -0.7798   -0.5918 H       1  UNL1        0.1479
     36 H           4.0515    1.0775    1.6054 H       1  UNL1        0.0512
     37 H           5.0202    1.2842    0.0729 H       1  UNL1        0.0512
     38 H           3.9946    2.3779   -1.8495 H       1  UNL1        0.0622
     39 H           2.5476    4.3378   -2.4823 H       1  UNL1        0.0633
     40 H           0.9285    5.2262   -0.9016 H       1  UNL1        0.0829
     41 H           2.0955    2.3234    1.9642 H       1  UNL1        0.0833
     42 H           1.9339   -4.7341   -1.9192 H       1  UNL1        0.1029
     43 H          -1.5960   -3.6317   -0.7614 H       1  UNL1        0.0523
     44 H          -1.3515   -5.8984   -2.2568 H       1  UNL1        0.0249
     45 H          -1.4660   -4.2519   -2.9185 H       1  UNL1        0.0249
     46 H           0.1308   -5.0440   -2.8152 H       1  UNL1        0.0249
     47 H          -0.1794   -4.8690    1.0596 H       1  UNL1        0.0249
     48 H          -0.1717   -6.2438   -0.0547 H       1  UNL1        0.0249
     49 H          -1.7551   -5.5301    0.5383 H       1  UNL1        0.0249
     50 H          -3.9299    2.0585    1.1699 H       1  UNL1        0.0609
     51 H          -2.3301    2.7862    3.4645 H       1  UNL1        0.0255
     52 H          -1.3709    3.1020    1.9451 H       1  UNL1        0.0255
     53 H          -3.0113    3.8378    2.1949 H       1  UNL1        0.0255
     54 H          -4.4068    0.4542    2.4719 H       1  UNL1        0.2098
@<TRIPOS>BOND
     1     1     2    1
     2     2     3    1
     3     3     4    1
     4     4     5    1
     5     5     6   ar
     6     6     7   ar
     7     7     8    1
     8     8     9    1
     9     9    10    1
    10    10    11   ar
    11    11    12   ar
    12    12    13   ar
    13    13    14   ar
    14    14    15   ar
    15     7    16   ar
    16    16    17   ar
    17    17    18   ar
    18    18    19   ar
    19    19    20    1
    20    20    21    1
    21    20    22    1
    22    19    23   ar
    23    23    24   ar
    24     3    25    1
    25    25    26    1
    26    25    27    1
    27    24     5   ar
    28    15    10   ar
    29    23    16   ar
    30     1    28    1
    31     1    29    1
    32     1    30    1
    33     2    31    1
    34     2    32    1
    35     3    33    1
    36     4    34    1
    37     8    35    1
    38     9    36    1
    39     9    37    1
    40    11    38    1
    41    12    39    1
    42    13    40    1
    43    15    41    1
    44    18    42    1
    45    20    43    1
    46    21    44    1
    47    21    45    1
    48    21    46    1
    49    22    47    1
    50    22    48    1
    51    22    49    1
    52    25    50    1
    53    26    51    1
    54    26    52    1
    55    26    53    1
    56    27    54    1
