
     RDKit          3D

 70 73  0  0  0  0  0  0  0  0999 V2000
    1.2649   -3.1232    0.1122 C   0  0  0  0  0  0  0  0  0  0  0  0
    0.4019   -1.8746   -0.0797 C   0  0  0  0  0  0  0  0  0  0  0  0
   -0.4990   -1.6893    1.1109 C   0  0  0  0  0  0  0  0  0  0  0  0
   -1.3167   -0.4655    0.8769 C   0  0  0  0  0  0  0  0  0  0  0  0
   -2.6196   -0.4950    0.5057 C   0  0  0  0  0  0  0  0  0  0  0  0
   -3.4276    0.5915    0.2771 C   0  0  0  0  0  0  0  0  0  0  0  0
   -4.7505    0.5435   -0.1002 O   0  0  0  0  0  0  0  0  0  0  0  0
   -5.5151   -0.5832   -0.3214 C   0  0  0  0  0  0  0  0  0  0  0  0
   -6.6974   -0.6933    0.6293 C   0  0  0  0  0  0  0  0  0  0  0  0
   -7.3035    0.6243    0.9696 C   0  0  0  0  0  0  0  0  0  0  0  0
   -7.3285    1.6147   -0.1426 C   0  0  0  0  0  0  0  0  0  0  0  0
   -7.7880    0.9731   -1.4327 C   0  0  0  0  0  0  0  0  0  0  0  0
   -6.5401    0.6596   -2.2410 C   0  0  0  0  0  0  0  0  0  0  0  0
   -6.0285   -0.6762   -1.7523 C   0  0  0  0  0  0  0  0  0  0  0  0
   -2.7953    1.8307    0.4599 C   0  0  0  0  0  0  0  0  0  0  0  0
   -1.4690    1.9210    0.8384 C   0  0  0  0  0  0  0  0  0  0  0  0
   -0.7003    0.7977    1.0543 C   0  0  0  0  0  0  0  0  0  0  0  0
    0.6025    0.8203    1.4287 O   0  0  0  0  0  0  0  0  0  0  0  0
    1.4624    1.8494    1.6491 C   0  0  0  0  0  0  0  0  0  0  0  0
    1.8001    2.6653    0.4491 C   0  0  0  0  0  0  0  0  0  0  0  0
    2.4202    1.8183   -0.6505 C   0  0  0  0  0  0  0  0  0  0  0  0
    3.5207    1.1633   -0.4666 O   0  0  0  0  0  0  0  0  0  0  0  0
    4.3217    0.2594    0.0660 C   0  0  0  0  0  0  0  0  0  0  0  0
    3.9293   -0.6654    1.0438 C   0  0  0  0  0  0  0  0  0  0  0  0
    4.8247   -1.5738    1.5510 C   0  0  0  0  0  0  0  0  0  0  0  0
    6.1230   -1.5839    1.0998 C   0  0  0  0  0  0  0  0  0  0  0  0
    6.5638   -0.6873    0.1293 C   0  0  0  0  0  0  0  0  0  0  0  0
    7.9243   -0.7452   -0.3036 C   0  0  0  0  0  0  0  0  0  0  0  0
    9.0859   -1.9010    0.3251 S   0  0  0  0  0  0  0  0  0  0  0  0
   10.4875   -1.3491   -0.6736 C   0  0  0  0  0  0  0  0  0  0  0  0
   11.6777   -1.8328   -0.6618 O   0  0  0  0  0  0  0  0  0  0  0  0
    9.9263   -0.3394   -1.3846 N   0  0  0  0  0  0  0  0  0  0  0  0
    8.6720   -0.0567   -1.1921 C   0  0  0  0  0  0  0  0  0  0  0  0
    8.0345    1.0100   -1.9275 O   0  0  0  0  0  0  0  0  0  0  0  0
    5.6788    0.1877   -0.3507 C   0  0  0  0  0  0  0  0  0  0  0  0
    1.8550   -2.9498    1.0458 H   0  0  0  0  0  0  0  0  0  0  0  0
    0.5752   -3.9667    0.3508 H   0  0  0  0  0  0  0  0  0  0  0  0
    1.8827   -3.2879   -0.7708 H   0  0  0  0  0  0  0  0  0  0  0  0
    1.0816   -1.0227   -0.1497 H   0  0  0  0  0  0  0  0  0  0  0  0
   -0.1605   -1.9795   -1.0285 H   0  0  0  0  0  0  0  0  0  0  0  0
   -1.1931   -2.5702    1.1557 H   0  0  0  0  0  0  0  0  0  0  0  0
    0.0395   -1.6716    2.0583 H   0  0  0  0  0  0  0  0  0  0  0  0
   -3.0524   -1.4854    0.3811 H   0  0  0  0  0  0  0  0  0  0  0  0
   -4.9274   -1.5038   -0.1667 H   0  0  0  0  0  0  0  0  0  0  0  0
   -6.3969   -1.1987    1.5757 H   0  0  0  0  0  0  0  0  0  0  0  0
   -7.4268   -1.3729    0.1432 H   0  0  0  0  0  0  0  0  0  0  0  0
   -8.3775    0.4253    1.2567 H   0  0  0  0  0  0  0  0  0  0  0  0
   -6.8583    1.0945    1.8757 H   0  0  0  0  0  0  0  0  0  0  0  0
   -8.1207    2.3782    0.1119 H   0  0  0  0  0  0  0  0  0  0  0  0
   -6.3974    2.1941   -0.2566 H   0  0  0  0  0  0  0  0  0  0  0  0
   -8.3424    0.0461   -1.2002 H   0  0  0  0  0  0  0  0  0  0  0  0
   -8.4346    1.6416   -2.0314 H   0  0  0  0  0  0  0  0  0  0  0  0
   -6.8482    0.5279   -3.2893 H   0  0  0  0  0  0  0  0  0  0  0  0
   -5.7950    1.4718   -2.1307 H   0  0  0  0  0  0  0  0  0  0  0  0
   -6.8921   -1.3690   -1.7280 H   0  0  0  0  0  0  0  0  0  0  0  0
   -5.2420   -1.0873   -2.3836 H   0  0  0  0  0  0  0  0  0  0  0  0
   -3.3667    2.7165    0.2984 H   0  0  0  0  0  0  0  0  0  0  0  0
   -1.0336    2.9197    0.9948 H   0  0  0  0  0  0  0  0  0  0  0  0
    2.4431    1.5188    2.0973 H   0  0  0  0  0  0  0  0  0  0  0  0
    1.0091    2.5950    2.4062 H   0  0  0  0  0  0  0  0  0  0  0  0
    2.6001    3.4258    0.7368 H   0  0  0  0  0  0  0  0  0  0  0  0
    0.9358    3.2301    0.0823 H   0  0  0  0  0  0  0  0  0  0  0  0
    2.5459    2.5735   -1.5231 H   0  0  0  0  0  0  0  0  0  0  0  0
    1.6010    1.1288   -1.0447 H   0  0  0  0  0  0  0  0  0  0  0  0
    2.8903   -0.6455    1.3747 H   0  0  0  0  0  0  0  0  0  0  0  0
    4.5112   -2.2842    2.3071 H   0  0  0  0  0  0  0  0  0  0  0  0
    6.7987   -2.3137    1.5231 H   0  0  0  0  0  0  0  0  0  0  0  0
   10.5534    0.2028   -2.0982 H   0  0  0  0  0  0  0  0  0  0  0  0
    7.6605    0.7123   -2.8371 H   0  0  0  0  0  0  0  0  0  0  0  0
    5.9393    0.9113   -1.0996 H   0  0  0  0  0  0  0  0  0  0  0  0
  1  2  1  0
  2  3  1  0
  3  4  1  0
  4  5  2  0
  5  6  1  0
  6  7  1  0
  7  8  1  0
  8  9  1  0
  9 10  1  0
 10 11  1  0
 11 12  1  0
 12 13  1  0
 13 14  1  0
  6 15  2  0
 15 16  1  0
 16 17  2  0
 17 18  1  0
 18 19  1  0
 19 20  1  0
 20 21  1  0
 21 22  1  0
 22 23  1  0
 23 24  2  0
 24 25  1  0
 25 26  2  0
 26 27  1  0
 27 28  1  0
 28 29  1  0
 29 30  1  0
 30 31  2  0
 30 32  1  0
 32 33  1  0
 33 34  1  0
 27 35  2  0
 17  4  1  0
 35 23  1  0
 14  8  1  0
 33 28  2  0
  1 36  1  0
  1 37  1  0
  1 38  1  0
  2 39  1  0
  2 40  1  0
  3 41  1  0
  3 42  1  0
  5 43  1  0
  8 44  1  0
  9 45  1  0
  9 46  1  0
 10 47  1  0
 10 48  1  0
 11 49  1  0
 11 50  1  0
 12 51  1  0
 12 52  1  0
 13 53  1  0
 13 54  1  0
 14 55  1  0
 14 56  1  0
 15 57  1  0
 16 58  1  0
 19 59  1  0
 19 60  1  0
 20 61  1  0
 20 62  1  0
 21 63  1  0
 21 64  1  0
 24 65  1  0
 25 66  1  0
 26 67  1  0
 32 68  1  0
 34 69  1  0
 35 70  1  0
M  END
$$$$
