@<TRIPOS>MOLECULE
*****
 70 73 0 0 0
SMALL
GASTEIGER

@<TRIPOS>ATOM
      1 C           1.2649   -3.1232    0.1122 C.3     1  UNL1       -0.0650
      2 C           0.4019   -1.8746   -0.0797 C.3     1  UNL1       -0.0518
      3 C          -0.4990   -1.6893    1.1109 C.3     1  UNL1       -0.0244
      4 C          -1.3167   -0.4655    0.8769 C.ar    1  UNL1       -0.0023
      5 C          -2.6196   -0.4950    0.5057 C.ar    1  UNL1       -0.0133
      6 C          -3.4276    0.5915    0.2771 C.ar    1  UNL1        0.1214
      7 O          -4.7505    0.5435   -0.1002 O.3     1  UNL1       -0.4888
      8 C          -5.5151   -0.5832   -0.3214 C.3     1  UNL1        0.1002
      9 C          -6.6974   -0.6933    0.6293 C.3     1  UNL1       -0.0158
     10 C          -7.3035    0.6243    0.9696 C.3     1  UNL1       -0.0497
     11 C          -7.3285    1.6147   -0.1426 C.3     1  UNL1       -0.0529
     12 C          -7.7880    0.9731   -1.4327 C.3     1  UNL1       -0.0529
     13 C          -6.5401    0.6596   -2.2410 C.3     1  UNL1       -0.0497
     14 C          -6.0285   -0.6762   -1.7523 C.3     1  UNL1       -0.0158
     15 C          -2.7953    1.8307    0.4599 C.ar    1  UNL1       -0.0165
     16 C          -1.4690    1.9210    0.8384 C.ar    1  UNL1       -0.0162
     17 C          -0.7003    0.7977    1.0543 C.ar    1  UNL1        0.1239
     18 O           0.6025    0.8203    1.4287 O.3     1  UNL1       -0.4916
     19 C           1.4624    1.8494    1.6491 C.3     1  UNL1        0.0927
     20 C           1.8001    2.6653    0.4491 C.3     1  UNL1        0.0157
     21 C           2.4202    1.8183   -0.6505 C.3     1  UNL1        0.0927
     22 O           3.5207    1.1633   -0.4666 O.3     1  UNL1       -0.4918
     23 C           4.3217    0.2594    0.0660 C.ar    1  UNL1        0.1211
     24 C           3.9293   -0.6654    1.0438 C.ar    1  UNL1       -0.0199
     25 C           4.8247   -1.5738    1.5510 C.ar    1  UNL1       -0.0577
     26 C           6.1230   -1.5839    1.0998 C.ar    1  UNL1       -0.0531
     27 C           6.5638   -0.6873    0.1293 C.ar    1  UNL1       -0.0026
     28 C           7.9243   -0.7452   -0.3036 C.ar    1  UNL1        0.0838
     29 S           9.0859   -1.9010    0.3251 S.2     1  UNL1       -0.0230
     30 C          10.4875   -1.3491   -0.6736 C.ar    1  UNL1        0.2913
     31 O          11.6777   -1.8328   -0.6618 O.2     1  UNL1       -0.2596
     32 N           9.9263   -0.3394   -1.3846 N.ar    1  UNL1       -0.2870
     33 C           8.6720   -0.0567   -1.1921 C.ar    1  UNL1        0.2081
     34 O           8.0345    1.0100   -1.9275 O.3     1  UNL1       -0.4928
     35 C           5.6788    0.1877   -0.3507 C.ar    1  UNL1       -0.0116
     36 H           1.8550   -2.9498    1.0458 H       1  UNL1        0.0230
     37 H           0.5752   -3.9667    0.3508 H       1  UNL1        0.0230
     38 H           1.8827   -3.2879   -0.7708 H       1  UNL1        0.0230
     39 H           1.0816   -1.0227   -0.1497 H       1  UNL1        0.0266
     40 H          -0.1605   -1.9795   -1.0285 H       1  UNL1        0.0266
     41 H          -1.1931   -2.5702    1.1557 H       1  UNL1        0.0314
     42 H           0.0395   -1.6716    2.0583 H       1  UNL1        0.0314
     43 H          -3.0524   -1.4854    0.3811 H       1  UNL1        0.0658
     44 H          -4.9274   -1.5038   -0.1667 H       1  UNL1        0.0733
     45 H          -6.3969   -1.1987    1.5757 H       1  UNL1        0.0301
     46 H          -7.4268   -1.3729    0.1432 H       1  UNL1        0.0301
     47 H          -8.3775    0.4253    1.2567 H       1  UNL1        0.0266
     48 H          -6.8583    1.0945    1.8757 H       1  UNL1        0.0266
     49 H          -8.1207    2.3782    0.1119 H       1  UNL1        0.0265
     50 H          -6.3974    2.1941   -0.2566 H       1  UNL1        0.0265
     51 H          -8.3424    0.0461   -1.2002 H       1  UNL1        0.0265
     52 H          -8.4346    1.6416   -2.0314 H       1  UNL1        0.0265
     53 H          -6.8482    0.5279   -3.2893 H       1  UNL1        0.0266
     54 H          -5.7950    1.4718   -2.1307 H       1  UNL1        0.0266
     55 H          -6.8921   -1.3690   -1.7280 H       1  UNL1        0.0301
     56 H          -5.2420   -1.0873   -2.3836 H       1  UNL1        0.0301
     57 H          -3.3667    2.7165    0.2984 H       1  UNL1        0.0655
     58 H          -1.0336    2.9197    0.9948 H       1  UNL1        0.0655
     59 H           2.4431    1.5188    2.0973 H       1  UNL1        0.0697
     60 H           1.0091    2.5950    2.4062 H       1  UNL1        0.0697
     61 H           2.6001    3.4258    0.7368 H       1  UNL1        0.0331
     62 H           0.9358    3.2301    0.0823 H       1  UNL1        0.0331
     63 H           2.5459    2.5735   -1.5231 H       1  UNL1        0.0697
     64 H           1.6010    1.1288   -1.0447 H       1  UNL1        0.0697
     65 H           2.8903   -0.6455    1.3747 H       1  UNL1        0.0654
     66 H           4.5112   -2.2842    2.3071 H       1  UNL1        0.0619
     67 H           6.7987   -2.3137    1.5231 H       1  UNL1        0.0624
     68 H          10.5534    0.2028   -2.0982 H       1  UNL1        0.1723
     69 H           7.6605    0.7123   -2.8371 H       1  UNL1        0.2937
     70 H           5.9393    0.9113   -1.0996 H       1  UNL1        0.0660
@<TRIPOS>BOND
     1     1     2    1
     2     2     3    1
     3     3     4    1
     4     4     5   ar
     5     5     6   ar
     6     6     7    1
     7     7     8    1
     8     8     9    1
     9     9    10    1
    10    10    11    1
    11    11    12    1
    12    12    13    1
    13    13    14    1
    14     6    15   ar
    15    15    16   ar
    16    16    17   ar
    17    17    18    1
    18    18    19    1
    19    19    20    1
    20    20    21    1
    21    21    22    1
    22    22    23    1
    23    23    24   ar
    24    24    25   ar
    25    25    26   ar
    26    26    27   ar
    27    27    28    1
    28    28    29   ar
    29    29    30   ar
    30    30    31    2
    31    30    32   ar
    32    32    33   ar
    33    33    34    1
    34    27    35   ar
    35    17     4   ar
    36    35    23   ar
    37    14     8    1
    38    33    28   ar
    39     1    36    1
    40     1    37    1
    41     1    38    1
    42     2    39    1
    43     2    40    1
    44     3    41    1
    45     3    42    1
    46     5    43    1
    47     8    44    1
    48     9    45    1
    49     9    46    1
    50    10    47    1
    51    10    48    1
    52    11    49    1
    53    11    50    1
    54    12    51    1
    55    12    52    1
    56    13    53    1
    57    13    54    1
    58    14    55    1
    59    14    56    1
    60    15    57    1
    61    16    58    1
    62    19    59    1
    63    19    60    1
    64    20    61    1
    65    20    62    1
    66    21    63    1
    67    21    64    1
    68    24    65    1
    69    25    66    1
    70    26    67    1
    71    32    68    1
    72    34    69    1
    73    35    70    1
