@<TRIPOS>MOLECULE
*****
 61 64 0 0 0
SMALL
GASTEIGER

@<TRIPOS>ATOM
      1 CA          3.9046   -2.7459   -0.3647 C.3     1  UNL1        0.0461
      2 C           5.1519   -3.3398    0.3121 C.3     1  UNL1       -0.0352
      3 C           5.4869   -4.6209   -0.4048 C.3     1  UNL1       -0.0635
      4 C           4.2540   -2.4862   -1.7912 C.3     1  UNL1        0.0626
      5 O           5.2549   -1.5406   -1.9498 O.3     1  UNL1       -0.3932
      6 N           3.4533   -1.6331    0.3973 N.pl3   1  UNL1       -0.3083
      7 C           2.6301   -0.5164    0.6348 C.ar    1  UNL1        0.2191
      8 N           3.0105    0.7250    0.3360 N.ar    1  UNL1       -0.1947
      9 C           2.2958    1.8336    0.5382 C.ar    1  UNL1        0.1674
     10 C           1.0698    1.5865    1.1097 C.ar    1  UNL1        0.1476
     11 N           0.5154    2.8006    1.2351 N.ar    1  UNL1       -0.2306
     12 C           1.3645    3.7156    0.7655 C.ar    1  UNL1        0.0985
     13 N           2.4730    3.1346    0.3294 N.ar    1  UNL1       -0.3123
     14 C           3.6575    3.7723   -0.2699 C.3     1  UNL1        0.0317
     15 C           3.2330    4.7120   -1.3585 C.3     1  UNL1       -0.0444
     16 C           4.3002    4.5619    0.8722 C.3     1  UNL1       -0.0444
     17 C           0.5949    0.3081    1.4538 C.ar    1  UNL1        0.1519
     18 N          -0.6981    0.3412    2.0617 N.pl3   1  UNL1       -0.3231
     19 C          -1.9459    0.3670    2.6486 C.3     1  UNL1        0.0357
     20 C          -3.1009   -0.0867    1.8192 C.ar    1  UNL1       -0.0303
     21 C          -3.5285   -1.3831    1.5761 C.ar    1  UNL1       -0.0565
     22 C          -4.6467   -1.6151    0.7901 C.ar    1  UNL1       -0.0523
     23 C          -5.3878   -0.6100    0.2154 C.ar    1  UNL1        0.0004
     24 C          -5.0017    0.7121    0.4265 C.ar    1  UNL1       -0.0523
     25 C          -3.8872    0.9066    1.2108 C.ar    1  UNL1       -0.0565
     26 C          -6.5639   -0.8351   -0.6149 C.ar    1  UNL1        0.0710
     27 C          -7.0534   -2.0792   -0.9298 C.ar    1  UNL1       -0.0357
     28 C          -8.2024   -2.1893   -1.7467 C.ar    1  UNL1       -0.0583
     29 C          -8.8407   -1.0640   -2.2303 C.ar    1  UNL1       -0.0436
     30 C          -8.3178    0.1620   -1.8897 C.ar    1  UNL1        0.0283
     31 N          -7.2329    0.2010   -1.1188 N.ar    1  UNL1       -0.2550
     32 N           1.4305   -0.6885    1.1860 N.ar    1  UNL1       -0.1974
     33 HA          3.0945   -3.5256   -0.3580 H       1  UNL1        0.0521
     34 H           5.0584   -3.4165    1.3934 H       1  UNL1        0.0281
     35 H           6.0090   -2.6131    0.1236 H       1  UNL1        0.0281
     36 H           6.1358   -4.4686   -1.2922 H       1  UNL1        0.0230
     37 H           4.5714   -5.2039   -0.6659 H       1  UNL1        0.0230
     38 H           6.0135   -5.2564    0.3636 H       1  UNL1        0.0230
     39 H1          3.3931   -2.2342   -2.4462 H       1  UNL1        0.0575
     40 H2          4.6413   -3.4560   -2.2080 H       1  UNL1        0.0575
     41 H           4.8714   -0.7592   -2.3969 H       1  UNL1        0.2095
     42 H           3.9646   -1.5088    1.3155 H       1  UNL1        0.1493
     43 H           1.1491    4.7680    0.7585 H       1  UNL1        0.1029
     44 H           4.3385    3.0134   -0.6422 H       1  UNL1        0.0523
     45 H           3.0413    4.2099   -2.3222 H       1  UNL1        0.0249
     46 H           4.0511    5.4451   -1.5625 H       1  UNL1        0.0249
     47 H           2.3280    5.2957   -1.0643 H       1  UNL1        0.0249
     48 H           4.9773    5.3592    0.5058 H       1  UNL1        0.0249
     49 H           3.4955    5.0024    1.5401 H       1  UNL1        0.0249
     50 H           4.8458    3.8549    1.5277 H       1  UNL1        0.0249
     51 H          -0.8012   -0.7145    2.0966 H       1  UNL1        0.1479
     52 H          -2.2503    1.4156    2.9944 H       1  UNL1        0.0511
     53 H          -1.9521   -0.1603    3.6645 H       1  UNL1        0.0511
     54 H          -2.9235   -2.1435    2.0392 H       1  UNL1        0.0621
     55 H          -4.9357   -2.6450    0.6314 H       1  UNL1        0.0624
     56 H          -5.5452    1.5420   -0.0006 H       1  UNL1        0.0624
     57 H          -3.6120    1.9441    1.3583 H       1  UNL1        0.0621
     58 H          -6.5534   -2.9694   -0.5534 H       1  UNL1        0.0639
     59 H          -8.5928   -3.1689   -1.9968 H       1  UNL1        0.0619
     60 H          -9.7363   -1.1281   -2.8667 H       1  UNL1        0.0633
     61 H          -8.7501    1.1158   -2.2209 H       1  UNL1        0.0830
@<TRIPOS>BOND
     1     1     2    1
     2     2     3    1
     3     1     4    1
     4     4     5    1
     5     1     6    1
     6     6     7    1
     7     7     8   ar
     8     8     9   ar
     9     9    10   ar
    10    10    11   ar
    11    11    12   ar
    12    12    13   ar
    13    13    14    1
    14    14    15    1
    15    14    16    1
    16    10    17   ar
    17    17    18    1
    18    18    19    1
    19    19    20    1
    20    20    21   ar
    21    21    22   ar
    22    22    23   ar
    23    23    24   ar
    24    24    25   ar
    25    23    26    1
    26    26    27   ar
    27    27    28   ar
    28    28    29   ar
    29    29    30   ar
    30    30    31   ar
    31    17    32   ar
    32    32     7   ar
    33    13     9   ar
    34    25    20   ar
    35    31    26   ar
    36     1    33    1
    37     2    34    1
    38     2    35    1
    39     3    36    1
    40     3    37    1
    41     3    38    1
    42     4    39    1
    43     4    40    1
    44     5    41    1
    45     6    42    1
    46    12    43    1
    47    14    44    1
    48    15    45    1
    49    15    46    1
    50    15    47    1
    51    16    48    1
    52    16    49    1
    53    16    50    1
    54    18    51    1
    55    19    52    1
    56    19    53    1
    57    21    54    1
    58    22    55    1
    59    24    56    1
    60    25    57    1
    61    27    58    1
    62    28    59    1
    63    29    60    1
    64    30    61    1
