@<TRIPOS>MOLECULE
*****
 43 46 0 0 0
SMALL
GASTEIGER

@<TRIPOS>ATOM
      1 C           1.9275   -1.4456    1.0548 C.3     1  UNL1        0.1627
      2 C           0.4349   -1.4576    1.2042 C.2     1  UNL1        0.2364
      3 O          -0.2195   -2.1013    2.0618 O.2     1  UNL1       -0.2741
      4 N          -0.2825   -0.6467    0.2629 N.am    1  UNL1       -0.2845
      5 C          -1.6717   -0.3934    0.0738 C.ar    1  UNL1        0.0340
      6 C          -2.3211   -1.2586   -0.7876 C.ar    1  UNL1       -0.0399
      7 C          -3.6621   -1.1023   -1.0394 C.ar    1  UNL1       -0.0523
      8 C          -4.4098   -0.0933   -0.4554 C.ar    1  UNL1       -0.0178
      9 C          -5.7671    0.0206   -0.7453 C.ar    1  UNL1       -0.0540
     10 C          -6.4268    1.0557   -0.1162 C.ar    1  UNL1       -0.0612
     11 C          -5.7968    1.9349    0.7507 C.ar    1  UNL1       -0.0612
     12 C          -4.4372    1.7804    1.0092 C.ar    1  UNL1       -0.0540
     13 C          -3.7488    0.7626    0.4018 C.ar    1  UNL1       -0.0161
     14 C          -2.4092    0.6120    0.6577 C.ar    1  UNL1       -0.0328
     15 C           2.5108   -0.1241    1.1956 C.ar    1  UNL1       -0.0092
     16 C           1.9040    0.4521    2.3809 C.ar    1  UNL1       -0.0187
     17 S           2.6199    2.0846    2.5837 S.2     1  UNL1       -0.0963
     18 C           3.6997    1.9404    1.0842 C.ar    1  UNL1        0.0197
     19 C           3.4008    0.6882    0.6042 C.ar    1  UNL1       -0.0050
     20 C           4.1190    0.4160   -0.5239 C.ar    1  UNL1       -0.0349
     21 C           5.0038    1.2694   -1.0860 C.ar    1  UNL1        0.0416
     22 CL          5.9131    0.8634   -2.5564 Cl      1  UNL1       -0.0835
     23 C           5.2794    2.5174   -0.5775 C.ar    1  UNL1       -0.0423
     24 C           4.6003    2.8585    0.5467 C.ar    1  UNL1       -0.0460
     25 P           2.4938   -2.5096   -0.2438 P.3     1  UNL1        0.3440
     26 O           1.6896   -4.0590   -0.1034 O.3     1  UNL1       -0.3233
     27 O           2.0840   -2.0386   -1.8075 O.3     1  UNL1       -0.3233
     28 O           3.9424   -2.9188   -0.1604 O.2     1  UNL1       -0.2577
     29 H           2.2402   -2.0373    1.9979 H       1  UNL1        0.0569
     30 H           0.1905   -0.0801   -0.4828 H       1  UNL1        0.1548
     31 H          -1.8165   -2.0838   -1.2949 H       1  UNL1        0.0636
     32 H          -4.1908   -1.7660   -1.7087 H       1  UNL1        0.0624
     33 H          -6.2748   -0.6639   -1.4250 H       1  UNL1        0.0624
     34 H          -7.4754    1.1504   -0.3348 H       1  UNL1        0.0618
     35 H          -6.4217    2.7035    1.1800 H       1  UNL1        0.0618
     36 H          -3.9827    2.4755    1.6824 H       1  UNL1        0.0624
     37 H          -1.8693    1.2717    1.3270 H       1  UNL1        0.0642
     38 H           1.1972    0.2446    3.1530 H       1  UNL1        0.0697
     39 H           4.0424   -0.4924   -1.0646 H       1  UNL1        0.0638
     40 H           5.9529    3.2659   -0.9362 H       1  UNL1        0.0632
     41 H           4.6876    3.7780    1.0723 H       1  UNL1        0.0629
     42 H           1.9896   -4.4631    0.7645 H       1  UNL1        0.2198
     43 H           1.2604   -2.4100   -2.1576 H       1  UNL1        0.2198
@<TRIPOS>BOND
     1     1     2    1
     2     2     3    2
     3     2     4   am
     4     4     5    1
     5     5     6   ar
     6     6     7   ar
     7     7     8   ar
     8     8     9   ar
     9     9    10   ar
    10    10    11   ar
    11    11    12   ar
    12    12    13   ar
    13    13    14   ar
    14     1    15    1
    15    15    16   ar
    16    16    17   ar
    17    17    18   ar
    18    18    19   ar
    19    19    20   ar
    20    20    21   ar
    21    21    22    1
    22    21    23   ar
    23    23    24   ar
    24     1    25    1
    25    25    26    1
    26    25    27    1
    27    25    28    2
    28    14     5   ar
    29    19    15   ar
    30    13     8   ar
    31    24    18   ar
    32     1    29    1
    33     4    30    1
    34     6    31    1
    35     7    32    1
    36     9    33    1
    37    10    34    1
    38    11    35    1
    39    12    36    1
    40    14    37    1
    41    16    38    1
    42    20    39    1
    43    23    40    1
    44    24    41    1
    45    26    42    1
    46    27    43    1
