@<TRIPOS>MOLECULE
*****
 41 44 0 0 0
SMALL
GASTEIGER

@<TRIPOS>ATOM
      1 N           7.6154   -0.0188   -1.2991 N.1     1  UNL1       -0.1949
      2 C           6.5636    0.7707   -1.1900 C.1     1  UNL1        0.0815
      3 C           5.4365    1.6365   -1.0913 C.3     1  UNL1        0.0992
      4 N           4.7560    1.4175    0.1905 N.pl3   1  UNL1       -0.3005
      5 C           3.3195    1.5862    0.2696 C.ar    1  UNL1        0.2204
      6 N           2.8932    2.6689    1.0108 N.ar    1  UNL1       -0.2029
      7 C           1.4439    2.6733    1.4252 C.ar    1  UNL1        0.1234
      8 N           1.1047    1.6110    0.9279 N.ar    1  UNL1       -0.2001
      9 C           1.1440    0.6061    0.3496 C.ar    1  UNL1        0.2421
     10 N           0.2907   -0.5146    0.0171 N.ar    1  UNL1       -0.2483
     11 C          -1.0590   -0.5260    0.3991 C.ar    1  UNL1        0.2078
     12 N          -1.7472    0.7169    0.4218 N.pl3   1  UNL1       -0.2845
     13 C          -3.1215    0.8018    0.2252 C.ar    1  UNL1        0.0370
     14 C          -3.7971    0.4655   -0.9693 C.ar    1  UNL1       -0.0402
     15 C          -5.0847    0.5752   -1.1274 C.ar    1  UNL1       -0.0566
     16 C          -5.9043    1.0037   -0.1372 C.ar    1  UNL1       -0.0201
     17 C          -5.3483    1.3776    1.1417 C.ar    1  UNL1        0.1186
     18 O          -6.0556    1.8534    2.1765 O.3     1  UNL1       -0.5067
     19 C          -3.9882    1.2648    1.2333 C.ar    1  UNL1        0.0011
     20 N          -1.3243   -1.7268    0.4017 N.ar    1  UNL1       -0.2138
     21 C          -0.4750   -2.6227    0.0920 C.ar    1  UNL1        0.0914
     22 C          -0.3421   -3.9839   -0.0374 C.ar    1  UNL1       -0.0342
     23 C           0.8286   -4.5556   -0.4181 C.ar    1  UNL1       -0.0596
     24 C           1.9850   -3.7588   -0.7029 C.ar    1  UNL1       -0.0597
     25 C           1.8244   -2.3912   -0.5755 C.ar    1  UNL1       -0.0356
     26 C           0.6756   -1.7280   -0.1944 C.ar    1  UNL1        0.0779
     27 N           2.5274    0.5359   -0.1042 N.ar    1  UNL1       -0.1783
     28 H           5.6953    2.7268   -1.1817 H       1  UNL1        0.0620
     29 H           4.6962    1.4798   -1.9057 H       1  UNL1        0.0620
     30 H           5.2989    1.1844    1.0238 H       1  UNL1        0.1499
     31 H           1.1896    3.5183    1.9579 H       1  UNL1        0.1049
     32 H          -1.2499    1.6334    0.5865 H       1  UNL1        0.1550
     33 H          -3.1589    0.0714   -1.8016 H       1  UNL1        0.0636
     34 H          -5.6191    0.4474   -2.1426 H       1  UNL1        0.0619
     35 H          -6.9688    1.0561   -0.2323 H       1  UNL1        0.0654
     36 H          -5.9654    2.7953    2.5686 H       1  UNL1        0.2921
     37 H          -3.5224    1.6320    2.1215 H       1  UNL1        0.0673
     38 H          -1.1499   -4.6563    0.1985 H       1  UNL1        0.0639
     39 H           1.0030   -5.6072   -0.5549 H       1  UNL1        0.0618
     40 H           2.8470   -4.2716   -1.0423 H       1  UNL1        0.0618
     41 H           2.7429   -1.7485   -0.7690 H       1  UNL1        0.0639
@<TRIPOS>BOND
     1     1     2    3
     2     2     3    1
     3     3     4    1
     4     4     5    1
     5     5     6   ar
     6     6     7   ar
     7     7     8   ar
     8     8     9   ar
     9     9    10    1
    10    10    11   ar
    11    11    12    1
    12    12    13    1
    13    13    14   ar
    14    14    15   ar
    15    15    16   ar
    16    16    17   ar
    17    17    18    1
    18    17    19   ar
    19    11    20   ar
    20    20    21   ar
    21    21    22   ar
    22    22    23   ar
    23    23    24   ar
    24    24    25   ar
    25    25    26   ar
    26     9    27   ar
    27    27     5   ar
    28    26    10   ar
    29    19    13   ar
    30    26    21   ar
    31     3    28    1
    32     3    29    1
    33     4    30    1
    34     7    31    1
    35    12    32    1
    36    14    33    1
    37    15    34    1
    38    16    35    1
    39    18    36    1
    40    19    37    1
    41    22    38    1
    42    23    39    1
    43    24    40    1
    44    25    41    1
