@<TRIPOS>MOLECULE
*****
 74 78 0 0 0
SMALL
GASTEIGER

@<TRIPOS>ATOM
      1 C         -11.7717   -1.3218    0.6443 C.3     1  UNL1       -0.0127
      2 N         -10.6662   -0.5399    0.2164 N.3     1  UNL1       -0.3029
      3 C         -10.4327    0.6876    0.8871 C.3     1  UNL1        0.0114
      4 C          -9.3659    0.6542    1.9187 C.3     1  UNL1        0.0120
      5 N          -8.0988    0.0654    1.4046 N.3     1  UNL1       -0.2957
      6 C          -7.4340    0.9772    0.5750 C.3     1  UNL1        0.0247
      7 C          -6.0100    0.8281    0.3003 C.ar    1  UNL1       -0.0216
      8 C          -5.1437    1.4180    1.2509 C.ar    1  UNL1       -0.0551
      9 C          -3.7812    1.3308    1.1181 C.ar    1  UNL1       -0.0402
     10 C          -3.2151    0.6693    0.0599 C.ar    1  UNL1        0.0340
     11 N          -1.7770    0.5877   -0.0759 N.am    1  UNL1       -0.2842
     12 C          -1.0440   -0.4720    0.4887 C.2     1  UNL1        0.2343
     13 O          -1.7452   -1.3395    1.1178 O.2     1  UNL1       -0.2738
     14 C           0.4141   -0.6381    0.4052 C.3     1  UNL1        0.0862
     15 N           1.1120    0.3765   -0.3137 N.pl3   1  UNL1       -0.3332
     16 C           2.5510    0.2463   -0.3901 C.ar    1  UNL1        0.0632
     17 C           3.2244   -0.8003    0.2002 C.ar    1  UNL1       -0.0375
     18 C           4.6064   -0.8926    0.1096 C.ar    1  UNL1       -0.0521
     19 C           5.3453    0.0627   -0.5754 C.ar    1  UNL1       -0.0136
     20 C           6.7956   -0.1007   -0.6284 C.ar    1  UNL1        0.0004
     21 C           7.5126    0.3444   -1.7113 C.ar    1  UNL1       -0.0493
     22 C           8.8864    0.1737   -1.7365 C.ar    1  UNL1       -0.0209
     23 C           9.5698   -0.4332   -0.7037 C.ar    1  UNL1        0.1249
     24 N          10.9779   -0.6247   -0.7025 N.am    1  UNL1       -0.2702
     25 C          11.9014    0.3148   -0.1802 C.2     1  UNL1        0.2213
     26 O          11.4477    1.3770    0.3093 O.2     1  UNL1       -0.2751
     27 C          13.3825    0.0615   -0.2043 C.3     1  UNL1        0.0360
     28 C          14.1860    1.3387   -0.4887 C.3     1  UNL1       -0.0412
     29 C          14.2390    0.7186    0.8691 C.3     1  UNL1       -0.0412
     30 N           8.8466   -0.8586    0.3418 N.ar    1  UNL1       -0.2395
     31 C           7.4935   -0.7040    0.3937 C.ar    1  UNL1        0.0374
     32 C           4.6781    1.0968   -1.1588 C.ar    1  UNL1       -0.0169
     33 C           3.3037    1.1832   -1.0651 C.ar    1  UNL1        0.1447
     34 F           2.6417    2.2130   -1.6469 F       1  UNL1       -0.2035
     35 C          -4.0815    0.1080   -0.8450 C.ar    1  UNL1       -0.0285
     36 C          -5.4705    0.1716   -0.7509 C.ar    1  UNL1        0.0609
     37 C          -6.2345   -0.4699   -1.8179 C.3     1  UNL1        0.4178
     38 F          -7.1710    0.3687   -2.4044 F       1  UNL1       -0.1659
     39 F          -6.6639   -1.7013   -1.5275 F       1  UNL1       -0.1659
     40 F          -5.3367   -0.7002   -2.9385 F       1  UNL1       -0.1659
     41 C          -8.4482   -1.2355    1.0056 C.3     1  UNL1        0.0120
     42 C          -9.4692   -1.2780   -0.1076 C.3     1  UNL1        0.0114
     43 H         -12.7230   -0.9590    0.2030 H       1  UNL1        0.0391
     44 H         -11.6411   -2.3594    0.2275 H       1  UNL1        0.0391
     45 H         -11.8079   -1.3499    1.7678 H       1  UNL1        0.0391
     46 H         -10.1851    1.5304    0.1780 H       1  UNL1        0.0439
     47 H         -11.3724    0.9982    1.3869 H       1  UNL1        0.0439
     48 H          -9.6205    0.0284    2.8079 H       1  UNL1        0.0439
     49 H          -9.1324    1.6639    2.2772 H       1  UNL1        0.0439
     50 H          -8.0006    1.1639   -0.3991 H       1  UNL1        0.0476
     51 H          -7.5590    2.0037    1.0706 H       1  UNL1        0.0476
     52 H          -5.5902    1.9440    2.0923 H       1  UNL1        0.0621
     53 H          -3.1620    1.7909    1.8587 H       1  UNL1        0.0636
     54 H          -1.2661    1.3316   -0.6053 H       1  UNL1        0.1549
     55 H           0.8270   -0.7877    1.4444 H       1  UNL1        0.0557
     56 H           0.6813   -1.6133   -0.1026 H       1  UNL1        0.0557
     57 H           0.6794    1.1868   -0.7792 H       1  UNL1        0.1466
     58 H           2.6807   -1.5504    0.7339 H       1  UNL1        0.0637
     59 H           5.1165   -1.7284    0.5845 H       1  UNL1        0.0624
     60 H           7.0366    0.8280   -2.5529 H       1  UNL1        0.0625
     61 H           9.4924    0.5102   -2.5733 H       1  UNL1        0.0652
     62 H          11.3593   -1.5179   -1.1140 H       1  UNL1        0.1562
     63 H          13.7433   -0.8712   -0.6381 H       1  UNL1        0.0394
     64 H          15.0912    1.2085   -1.1279 H       1  UNL1        0.0273
     65 H          13.6612    2.2972   -0.5414 H       1  UNL1        0.0273
     66 H          15.1703    0.1772    1.1639 H       1  UNL1        0.0273
     67 H          13.7490    1.2188    1.7243 H       1  UNL1        0.0273
     68 H           6.9390   -1.0656    1.2682 H       1  UNL1        0.0836
     69 H           5.2558    1.8354   -1.6893 H       1  UNL1        0.0653
     70 H          -3.6604   -0.4180   -1.6803 H       1  UNL1        0.0642
     71 H          -8.9971   -1.6959    1.8974 H       1  UNL1        0.0439
     72 H          -7.6481   -1.9403    0.7934 H       1  UNL1        0.0439
     73 H          -9.1117   -0.9065   -1.0764 H       1  UNL1        0.0439
     74 H          -9.7604   -2.3393   -0.2430 H       1  UNL1        0.0439
@<TRIPOS>BOND
     1     1     2    1
     2     2     3    1
     3     3     4    1
     4     4     5    1
     5     5     6    1
     6     6     7    1
     7     7     8   ar
     8     8     9   ar
     9     9    10   ar
    10    10    11    1
    11    11    12   am
    12    12    13    2
    13    12    14    1
    14    14    15    1
    15    15    16    1
    16    16    17   ar
    17    17    18   ar
    18    18    19   ar
    19    19    20    1
    20    20    21   ar
    21    21    22   ar
    22    22    23   ar
    23    23    24    1
    24    24    25   am
    25    25    26    2
    26    25    27    1
    27    27    28    1
    28    28    29    1
    29    23    30   ar
    30    30    31   ar
    31    19    32   ar
    32    32    33   ar
    33    33    34    1
    34    10    35   ar
    35    35    36   ar
    36    36    37    1
    37    37    38    1
    38    37    39    1
    39    37    40    1
    40     5    41    1
    41    41    42    1
    42    42     2    1
    43    36     7   ar
    44    33    16   ar
    45    31    20   ar
    46    29    27    1
    47     1    43    1
    48     1    44    1
    49     1    45    1
    50     3    46    1
    51     3    47    1
    52     4    48    1
    53     4    49    1
    54     6    50    1
    55     6    51    1
    56     8    52    1
    57     9    53    1
    58    11    54    1
    59    14    55    1
    60    14    56    1
    61    15    57    1
    62    17    58    1
    63    18    59    1
    64    21    60    1
    65    22    61    1
    66    24    62    1
    67    27    63    1
    68    28    64    1
    69    28    65    1
    70    29    66    1
    71    29    67    1
    72    31    68    1
    73    32    69    1
    74    35    70    1
    75    41    71    1
    76    41    72    1
    77    42    73    1
    78    42    74    1
