
     RDKit          3D

 74 78  0  0  0  0  0  0  0  0999 V2000
  -11.7717   -1.3218    0.6443 C   0  0  0  0  0  0  0  0  0  0  0  0
  -10.6662   -0.5399    0.2164 N   0  0  0  0  0  0  0  0  0  0  0  0
  -10.4327    0.6876    0.8871 C   0  0  0  0  0  0  0  0  0  0  0  0
   -9.3659    0.6542    1.9187 C   0  0  0  0  0  0  0  0  0  0  0  0
   -8.0988    0.0654    1.4046 N   0  0  0  0  0  0  0  0  0  0  0  0
   -7.4340    0.9772    0.5750 C   0  0  0  0  0  0  0  0  0  0  0  0
   -6.0100    0.8281    0.3003 C   0  0  0  0  0  0  0  0  0  0  0  0
   -5.1437    1.4180    1.2509 C   0  0  0  0  0  0  0  0  0  0  0  0
   -3.7812    1.3308    1.1181 C   0  0  0  0  0  0  0  0  0  0  0  0
   -3.2151    0.6693    0.0599 C   0  0  0  0  0  0  0  0  0  0  0  0
   -1.7770    0.5877   -0.0759 N   0  0  0  0  0  0  0  0  0  0  0  0
   -1.0440   -0.4720    0.4887 C   0  0  0  0  0  0  0  0  0  0  0  0
   -1.7452   -1.3395    1.1178 O   0  0  0  0  0  0  0  0  0  0  0  0
    0.4141   -0.6381    0.4052 C   0  0  0  0  0  0  0  0  0  0  0  0
    1.1120    0.3765   -0.3137 N   0  0  0  0  0  0  0  0  0  0  0  0
    2.5510    0.2463   -0.3901 C   0  0  0  0  0  0  0  0  0  0  0  0
    3.2244   -0.8003    0.2002 C   0  0  0  0  0  0  0  0  0  0  0  0
    4.6064   -0.8926    0.1096 C   0  0  0  0  0  0  0  0  0  0  0  0
    5.3453    0.0627   -0.5754 C   0  0  0  0  0  0  0  0  0  0  0  0
    6.7956   -0.1007   -0.6284 C   0  0  0  0  0  0  0  0  0  0  0  0
    7.5126    0.3444   -1.7113 C   0  0  0  0  0  0  0  0  0  0  0  0
    8.8864    0.1737   -1.7365 C   0  0  0  0  0  0  0  0  0  0  0  0
    9.5698   -0.4332   -0.7037 C   0  0  0  0  0  0  0  0  0  0  0  0
   10.9779   -0.6247   -0.7025 N   0  0  0  0  0  0  0  0  0  0  0  0
   11.9014    0.3148   -0.1802 C   0  0  0  0  0  0  0  0  0  0  0  0
   11.4477    1.3770    0.3093 O   0  0  0  0  0  0  0  0  0  0  0  0
   13.3825    0.0615   -0.2043 C   0  0  0  0  0  0  0  0  0  0  0  0
   14.1860    1.3387   -0.4887 C   0  0  0  0  0  0  0  0  0  0  0  0
   14.2390    0.7186    0.8691 C   0  0  0  0  0  0  0  0  0  0  0  0
    8.8466   -0.8586    0.3418 N   0  0  0  0  0  0  0  0  0  0  0  0
    7.4935   -0.7040    0.3937 C   0  0  0  0  0  0  0  0  0  0  0  0
    4.6781    1.0968   -1.1588 C   0  0  0  0  0  0  0  0  0  0  0  0
    3.3037    1.1832   -1.0651 C   0  0  0  0  0  0  0  0  0  0  0  0
    2.6417    2.2130   -1.6469 F   0  0  0  0  0  0  0  0  0  0  0  0
   -4.0815    0.1080   -0.8450 C   0  0  0  0  0  0  0  0  0  0  0  0
   -5.4705    0.1716   -0.7509 C   0  0  0  0  0  0  0  0  0  0  0  0
   -6.2345   -0.4699   -1.8179 C   0  0  0  0  0  0  0  0  0  0  0  0
   -7.1710    0.3687   -2.4044 F   0  0  0  0  0  0  0  0  0  0  0  0
   -6.6639   -1.7013   -1.5275 F   0  0  0  0  0  0  0  0  0  0  0  0
   -5.3367   -0.7002   -2.9385 F   0  0  0  0  0  0  0  0  0  0  0  0
   -8.4482   -1.2355    1.0056 C   0  0  0  0  0  0  0  0  0  0  0  0
   -9.4692   -1.2780   -0.1076 C   0  0  0  0  0  0  0  0  0  0  0  0
  -12.7230   -0.9590    0.2030 H   0  0  0  0  0  0  0  0  0  0  0  0
  -11.6411   -2.3594    0.2275 H   0  0  0  0  0  0  0  0  0  0  0  0
  -11.8079   -1.3499    1.7678 H   0  0  0  0  0  0  0  0  0  0  0  0
  -10.1851    1.5304    0.1780 H   0  0  0  0  0  0  0  0  0  0  0  0
  -11.3724    0.9982    1.3869 H   0  0  0  0  0  0  0  0  0  0  0  0
   -9.6205    0.0284    2.8079 H   0  0  0  0  0  0  0  0  0  0  0  0
   -9.1324    1.6639    2.2772 H   0  0  0  0  0  0  0  0  0  0  0  0
   -8.0006    1.1639   -0.3991 H   0  0  0  0  0  0  0  0  0  0  0  0
   -7.5590    2.0037    1.0706 H   0  0  0  0  0  0  0  0  0  0  0  0
   -5.5902    1.9440    2.0923 H   0  0  0  0  0  0  0  0  0  0  0  0
   -3.1620    1.7909    1.8587 H   0  0  0  0  0  0  0  0  0  0  0  0
   -1.2661    1.3316   -0.6053 H   0  0  0  0  0  0  0  0  0  0  0  0
    0.8270   -0.7877    1.4444 H   0  0  0  0  0  0  0  0  0  0  0  0
    0.6813   -1.6133   -0.1026 H   0  0  0  0  0  0  0  0  0  0  0  0
    0.6794    1.1868   -0.7792 H   0  0  0  0  0  0  0  0  0  0  0  0
    2.6807   -1.5504    0.7339 H   0  0  0  0  0  0  0  0  0  0  0  0
    5.1165   -1.7284    0.5845 H   0  0  0  0  0  0  0  0  0  0  0  0
    7.0366    0.8280   -2.5529 H   0  0  0  0  0  0  0  0  0  0  0  0
    9.4924    0.5102   -2.5733 H   0  0  0  0  0  0  0  0  0  0  0  0
   11.3593   -1.5179   -1.1140 H   0  0  0  0  0  0  0  0  0  0  0  0
   13.7433   -0.8712   -0.6381 H   0  0  0  0  0  0  0  0  0  0  0  0
   15.0912    1.2085   -1.1279 H   0  0  0  0  0  0  0  0  0  0  0  0
   13.6612    2.2972   -0.5414 H   0  0  0  0  0  0  0  0  0  0  0  0
   15.1703    0.1772    1.1639 H   0  0  0  0  0  0  0  0  0  0  0  0
   13.7490    1.2188    1.7243 H   0  0  0  0  0  0  0  0  0  0  0  0
    6.9390   -1.0656    1.2682 H   0  0  0  0  0  0  0  0  0  0  0  0
    5.2558    1.8354   -1.6893 H   0  0  0  0  0  0  0  0  0  0  0  0
   -3.6604   -0.4180   -1.6803 H   0  0  0  0  0  0  0  0  0  0  0  0
   -8.9971   -1.6959    1.8974 H   0  0  0  0  0  0  0  0  0  0  0  0
   -7.6481   -1.9403    0.7934 H   0  0  0  0  0  0  0  0  0  0  0  0
   -9.1117   -0.9065   -1.0764 H   0  0  0  0  0  0  0  0  0  0  0  0
   -9.7604   -2.3393   -0.2430 H   0  0  0  0  0  0  0  0  0  0  0  0
  1  2  1  0
  2  3  1  0
  3  4  1  0
  4  5  1  0
  5  6  1  0
  6  7  1  0
  7  8  2  0
  8  9  1  0
  9 10  2  0
 10 11  1  0
 11 12  1  0
 12 13  2  0
 12 14  1  0
 14 15  1  0
 15 16  1  0
 16 17  2  0
 17 18  1  0
 18 19  2  0
 19 20  1  0
 20 21  2  0
 21 22  1  0
 22 23  2  0
 23 24  1  0
 24 25  1  0
 25 26  2  0
 25 27  1  0
 27 28  1  0
 28 29  1  0
 23 30  1  0
 30 31  2  0
 19 32  1  0
 32 33  2  0
 33 34  1  0
 10 35  1  0
 35 36  2  0
 36 37  1  0
 37 38  1  0
 37 39  1  0
 37 40  1  0
  5 41  1  0
 41 42  1  0
 42  2  1  0
 36  7  1  0
 33 16  1  0
 31 20  1  0
 29 27  1  0
  1 43  1  0
  1 44  1  0
  1 45  1  0
  3 46  1  0
  3 47  1  0
  4 48  1  0
  4 49  1  0
  6 50  1  0
  6 51  1  0
  8 52  1  0
  9 53  1  0
 11 54  1  0
 14 55  1  0
 14 56  1  0
 15 57  1  0
 17 58  1  0
 18 59  1  0
 21 60  1  0
 22 61  1  0
 24 62  1  0
 27 63  1  0
 28 64  1  0
 28 65  1  0
 29 66  1  0
 29 67  1  0
 31 68  1  0
 32 69  1  0
 35 70  1  0
 41 71  1  0
 41 72  1  0
 42 73  1  0
 42 74  1  0
M  END
$$$$
