@<TRIPOS>MOLECULE
*****
 33 35 0 0 0
SMALL
GASTEIGER

@<TRIPOS>ATOM
      1 C           5.0065    2.9590    2.0547 C.1     1  UNL1       -0.1158
      2 C           5.0733    1.8347    2.1863 C.1     1  UNL1       -0.0648
      3 C           5.1843    0.3900    2.3614 C.3     1  UNL1        0.1496
      4 O           4.5918   -0.2661    1.2918 O.3     1  UNL1       -0.4795
      5 C           3.2908   -0.2708    0.8840 C.ar    1  UNL1        0.1219
      6 C           2.2629    0.3938    1.5096 C.ar    1  UNL1       -0.0192
      7 C           0.9819    0.3076    0.9915 C.ar    1  UNL1       -0.0477
      8 C           0.6727   -0.4138   -0.1261 C.ar    1  UNL1        0.0176
      9 C          -0.7175   -0.5008   -0.6236 C.ar    1  UNL1        0.1414
     10 N          -1.6941    0.0672    0.1551 N.ar    1  UNL1       -0.2290
     11 C          -3.0047    0.0101   -0.2171 C.ar    1  UNL1        0.0785
     12 C          -3.9869    0.5947    0.5975 C.ar    1  UNL1       -0.0355
     13 C          -5.3037    0.5092    0.1769 C.ar    1  UNL1       -0.0597
     14 C          -5.5911   -0.1344   -0.9999 C.ar    1  UNL1       -0.0609
     15 C          -4.6214   -0.7057   -1.7930 C.ar    1  UNL1       -0.0474
     16 C          -3.2961   -0.6283   -1.3834 C.ar    1  UNL1        0.0647
     17 C          -2.2893   -1.2020   -2.1672 C.ar    1  UNL1        0.2595
     18 O          -2.5667   -1.7813   -3.2314 O.2     1  UNL1       -0.2671
     19 N          -0.9875   -1.1260   -1.7633 N.ar    1  UNL1       -0.3064
     20 C           1.6987   -1.0759   -0.7530 C.ar    1  UNL1       -0.0477
     21 C           2.9961   -1.0017   -0.2458 C.ar    1  UNL1       -0.0192
     22 H           4.9574    4.1245    1.9166 H       1  UNL1        0.1229
     23 H           6.2637    0.1130    2.4061 H       1  UNL1        0.0837
     24 H           4.6390    0.0999    3.2968 H       1  UNL1        0.0837
     25 H           2.4845    0.9688    2.3924 H       1  UNL1        0.0654
     26 H           0.1893    0.8517    1.5249 H       1  UNL1        0.0626
     27 H          -3.7467    1.0840    1.5136 H       1  UNL1        0.0639
     28 H          -6.0924    0.9470    0.7819 H       1  UNL1        0.0618
     29 H          -6.6414   -0.1814   -1.3091 H       1  UNL1        0.0618
     30 H          -4.8410   -1.2064   -2.7083 H       1  UNL1        0.0626
     31 H          -0.2597   -1.5568   -2.3602 H       1  UNL1        0.1704
     32 H           1.5566   -1.6682   -1.6368 H       1  UNL1        0.0626
     33 H           3.7908   -1.5356   -0.7661 H       1  UNL1        0.0654
@<TRIPOS>BOND
     1     1     2    3
     2     2     3    1
     3     3     4    1
     4     4     5    1
     5     5     6   ar
     6     6     7   ar
     7     7     8   ar
     8     8     9    1
     9     9    10   ar
    10    10    11   ar
    11    11    12   ar
    12    12    13   ar
    13    13    14   ar
    14    14    15   ar
    15    15    16   ar
    16    16    17   ar
    17    17    18    2
    18    17    19   ar
    19     8    20   ar
    20    20    21   ar
    21    21     5   ar
    22    19     9   ar
    23    16    11   ar
    24     1    22    1
    25     3    23    1
    26     3    24    1
    27     6    25    1
    28     7    26    1
    29    12    27    1
    30    13    28    1
    31    14    29    1
    32    15    30    1
    33    19    31    1
    34    20    32    1
    35    21    33    1
