@<TRIPOS>MOLECULE
*****
 51 53 0 0 0
SMALL
GASTEIGER

@<TRIPOS>ATOM
      1 C          -1.7729    1.2197    1.6933 C.3     1  UNL1       -0.0244
      2 C          -2.4702   -0.0257    1.2918 C.3     1  UNL1       -0.0331
      3 N          -3.2465    0.0534    0.0986 N.4     1  UNL1        0.2432
      4 C          -3.7099    1.3786   -0.2555 C.3     1  UNL1       -0.0412
      5 C          -4.4776   -0.7089    0.3444 C.3     1  UNL1       -0.0331
      6 C          -5.0426   -1.3030   -0.9209 C.3     1  UNL1       -0.0244
      7 C          -2.6551   -0.5164   -1.0704 C.3     1  UNL1        0.0047
      8 C          -1.3778    0.0988   -1.5286 C.3     1  UNL1        0.1321
      9 O          -0.3662    0.0179   -0.5525 O.3     1  UNL1       -0.4586
     10 C           0.9049    0.5100   -0.7192 C.2     1  UNL1        0.3194
     11 O           0.9432    1.0175   -1.8790 O.2     1  UNL1       -0.2498
     12 C           2.0232    0.4634    0.2584 C.3     1  UNL1        0.1131
     13 C           3.1950    1.1309   -0.3658 C.ar    1  UNL1        0.0131
     14 C           2.9054    2.4474   -0.7140 C.ar    1  UNL1       -0.0540
     15 C           3.8704    3.2504   -1.3145 C.ar    1  UNL1       -0.0612
     16 C           5.1278    2.7515   -1.5729 C.ar    1  UNL1       -0.0583
     17 C           5.4001    1.4473   -1.2231 C.ar    1  UNL1       -0.0190
     18 C           4.4549    0.6403   -0.6279 C.ar    1  UNL1        0.1327
     19 O           4.6396   -0.6791   -0.2430 O.3     1  UNL1       -0.4554
     20 C           3.6543   -1.4496    0.3536 C.ar    1  UNL1        0.1327
     21 C           4.0588   -2.7347    0.6523 C.ar    1  UNL1       -0.0190
     22 C           3.1206   -3.5774    1.2575 C.ar    1  UNL1       -0.0583
     23 C           1.8431   -3.1185    1.5363 C.ar    1  UNL1       -0.0612
     24 C           1.5493   -1.8242    1.1968 C.ar    1  UNL1       -0.0540
     25 C           2.4106   -0.9202    0.5969 C.ar    1  UNL1        0.0131
     26 H          -2.2285    1.6895    2.6152 H       1  UNL1        0.0281
     27 H          -0.7457    0.9586    2.0265 H       1  UNL1        0.0281
     28 H          -1.6362    1.9776    0.8964 H       1  UNL1        0.0281
     29 H          -3.0942   -0.3442    2.1780 H       1  UNL1        0.0812
     30 H          -1.7500   -0.8597    1.1641 H       1  UNL1        0.0812
     31 H          -4.3457    1.8114    0.5479 H       1  UNL1        0.0778
     32 H          -4.4261    1.2029   -1.1124 H       1  UNL1        0.0778
     33 H          -2.9553    2.0485   -0.6579 H       1  UNL1        0.0778
     34 H          -5.2674   -0.1139    0.8111 H       1  UNL1        0.0812
     35 H          -4.2597   -1.5530    1.0373 H       1  UNL1        0.0812
     36 H          -5.4025   -0.5503   -1.6344 H       1  UNL1        0.0281
     37 H          -5.9437   -1.8710   -0.5950 H       1  UNL1        0.0281
     38 H          -4.3864   -2.0874   -1.3743 H       1  UNL1        0.0281
     39 H          -3.3862   -0.3883   -1.8945 H       1  UNL1        0.0849
     40 H          -2.4460   -1.5897   -0.8635 H       1  UNL1        0.0849
     41 H          -1.4954    1.1224   -1.9350 H       1  UNL1        0.0752
     42 H          -1.0320   -0.5096   -2.3953 H       1  UNL1        0.0752
     43 H           1.7561    0.9860    1.2061 H       1  UNL1        0.0514
     44 H           1.9654    2.9556   -0.5667 H       1  UNL1        0.0622
     45 H           3.6776    4.2854   -1.6001 H       1  UNL1        0.0618
     46 H           5.9454    3.2843   -2.0317 H       1  UNL1        0.0619
     47 H           6.3725    0.9802   -1.3953 H       1  UNL1        0.0654
     48 H           5.0346   -3.1224    0.4519 H       1  UNL1        0.0654
     49 H           3.3976   -4.5840    1.5050 H       1  UNL1        0.0619
     50 H           1.1343   -3.7767    2.0009 H       1  UNL1        0.0618
     51 H           0.5348   -1.5217    1.4396 H       1  UNL1        0.0622
@<TRIPOS>UNITY_ATOM_ATTR
3 1
charge 1
@<TRIPOS>BOND
     1     1     2    1
     2     2     3    1
     3     3     4    1
     4     3     5    1
     5     5     6    1
     6     3     7    1
     7     7     8    1
     8     8     9    1
     9     9    10    1
    10    10    11    2
    11    10    12    1
    12    12    13    1
    13    13    14   ar
    14    14    15   ar
    15    15    16   ar
    16    16    17   ar
    17    17    18   ar
    18    18    19    1
    19    19    20    1
    20    20    21   ar
    21    21    22   ar
    22    22    23   ar
    23    23    24   ar
    24    24    25   ar
    25    25    12    1
    26    18    13   ar
    27    25    20   ar
    28     1    26    1
    29     1    27    1
    30     1    28    1
    31     2    29    1
    32     2    30    1
    33     4    31    1
    34     4    32    1
    35     4    33    1
    36     5    34    1
    37     5    35    1
    38     6    36    1
    39     6    37    1
    40     6    38    1
    41     7    39    1
    42     7    40    1
    43     8    41    1
    44     8    42    1
    45    12    43    1
    46    14    44    1
    47    15    45    1
    48    16    46    1
    49    17    47    1
    50    21    48    1
    51    22    49    1
    52    23    50    1
    53    24    51    1
