
     RDKit          3D

 51 53  0  0  0  0  0  0  0  0999 V2000
   -1.7729    1.2197    1.6933 C   0  0  0  0  0  0  0  0  0  0  0  0
   -2.4702   -0.0257    1.2918 C   0  0  0  0  0  0  0  0  0  0  0  0
   -3.2465    0.0534    0.0986 N   0  0  0  0  0  4  0  0  0  0  0  0
   -3.7099    1.3786   -0.2555 C   0  0  0  0  0  0  0  0  0  0  0  0
   -4.4776   -0.7089    0.3444 C   0  0  0  0  0  0  0  0  0  0  0  0
   -5.0426   -1.3030   -0.9209 C   0  0  0  0  0  0  0  0  0  0  0  0
   -2.6551   -0.5164   -1.0704 C   0  0  0  0  0  0  0  0  0  0  0  0
   -1.3778    0.0988   -1.5286 C   0  0  0  0  0  0  0  0  0  0  0  0
   -0.3662    0.0179   -0.5525 O   0  0  0  0  0  0  0  0  0  0  0  0
    0.9049    0.5100   -0.7192 C   0  0  0  0  0  0  0  0  0  0  0  0
    0.9432    1.0175   -1.8790 O   0  0  0  0  0  0  0  0  0  0  0  0
    2.0232    0.4634    0.2584 C   0  0  0  0  0  0  0  0  0  0  0  0
    3.1950    1.1309   -0.3658 C   0  0  0  0  0  0  0  0  0  0  0  0
    2.9054    2.4474   -0.7140 C   0  0  0  0  0  0  0  0  0  0  0  0
    3.8704    3.2504   -1.3145 C   0  0  0  0  0  0  0  0  0  0  0  0
    5.1278    2.7515   -1.5729 C   0  0  0  0  0  0  0  0  0  0  0  0
    5.4001    1.4473   -1.2231 C   0  0  0  0  0  0  0  0  0  0  0  0
    4.4549    0.6403   -0.6279 C   0  0  0  0  0  0  0  0  0  0  0  0
    4.6396   -0.6791   -0.2430 O   0  0  0  0  0  0  0  0  0  0  0  0
    3.6543   -1.4496    0.3536 C   0  0  0  0  0  0  0  0  0  0  0  0
    4.0588   -2.7347    0.6523 C   0  0  0  0  0  0  0  0  0  0  0  0
    3.1206   -3.5774    1.2575 C   0  0  0  0  0  0  0  0  0  0  0  0
    1.8431   -3.1185    1.5363 C   0  0  0  0  0  0  0  0  0  0  0  0
    1.5493   -1.8242    1.1968 C   0  0  0  0  0  0  0  0  0  0  0  0
    2.4106   -0.9202    0.5969 C   0  0  0  0  0  0  0  0  0  0  0  0
   -2.2285    1.6895    2.6152 H   0  0  0  0  0  0  0  0  0  0  0  0
   -0.7457    0.9586    2.0265 H   0  0  0  0  0  0  0  0  0  0  0  0
   -1.6362    1.9776    0.8964 H   0  0  0  0  0  0  0  0  0  0  0  0
   -3.0942   -0.3442    2.1780 H   0  0  0  0  0  0  0  0  0  0  0  0
   -1.7500   -0.8597    1.1641 H   0  0  0  0  0  0  0  0  0  0  0  0
   -4.3457    1.8114    0.5479 H   0  0  0  0  0  0  0  0  0  0  0  0
   -4.4261    1.2029   -1.1124 H   0  0  0  0  0  0  0  0  0  0  0  0
   -2.9553    2.0485   -0.6579 H   0  0  0  0  0  0  0  0  0  0  0  0
   -5.2674   -0.1139    0.8111 H   0  0  0  0  0  0  0  0  0  0  0  0
   -4.2597   -1.5530    1.0373 H   0  0  0  0  0  0  0  0  0  0  0  0
   -5.4025   -0.5503   -1.6344 H   0  0  0  0  0  0  0  0  0  0  0  0
   -5.9437   -1.8710   -0.5950 H   0  0  0  0  0  0  0  0  0  0  0  0
   -4.3864   -2.0874   -1.3743 H   0  0  0  0  0  0  0  0  0  0  0  0
   -3.3862   -0.3883   -1.8945 H   0  0  0  0  0  0  0  0  0  0  0  0
   -2.4460   -1.5897   -0.8635 H   0  0  0  0  0  0  0  0  0  0  0  0
   -1.4954    1.1224   -1.9350 H   0  0  0  0  0  0  0  0  0  0  0  0
   -1.0320   -0.5096   -2.3953 H   0  0  0  0  0  0  0  0  0  0  0  0
    1.7561    0.9860    1.2061 H   0  0  0  0  0  0  0  0  0  0  0  0
    1.9654    2.9556   -0.5667 H   0  0  0  0  0  0  0  0  0  0  0  0
    3.6776    4.2854   -1.6001 H   0  0  0  0  0  0  0  0  0  0  0  0
    5.9454    3.2843   -2.0317 H   0  0  0  0  0  0  0  0  0  0  0  0
    6.3725    0.9802   -1.3953 H   0  0  0  0  0  0  0  0  0  0  0  0
    5.0346   -3.1224    0.4519 H   0  0  0  0  0  0  0  0  0  0  0  0
    3.3976   -4.5840    1.5050 H   0  0  0  0  0  0  0  0  0  0  0  0
    1.1343   -3.7767    2.0009 H   0  0  0  0  0  0  0  0  0  0  0  0
    0.5348   -1.5217    1.4396 H   0  0  0  0  0  0  0  0  0  0  0  0
  1  2  1  0
  2  3  1  0
  3  4  1  0
  3  5  1  0
  5  6  1  0
  3  7  1  0
  7  8  1  0
  8  9  1  0
  9 10  1  0
 10 11  2  0
 10 12  1  0
 12 13  1  0
 13 14  2  0
 14 15  1  0
 15 16  2  0
 16 17  1  0
 17 18  2  0
 18 19  1  0
 19 20  1  0
 20 21  2  0
 21 22  1  0
 22 23  2  0
 23 24  1  0
 24 25  2  0
 25 12  1  0
 18 13  1  0
 25 20  1  0
  1 26  1  0
  1 27  1  0
  1 28  1  0
  2 29  1  0
  2 30  1  0
  4 31  1  0
  4 32  1  0
  4 33  1  0
  5 34  1  0
  5 35  1  0
  6 36  1  0
  6 37  1  0
  6 38  1  0
  7 39  1  0
  7 40  1  0
  8 41  1  0
  8 42  1  0
 12 43  1  0
 14 44  1  0
 15 45  1  0
 16 46  1  0
 17 47  1  0
 21 48  1  0
 22 49  1  0
 23 50  1  0
 24 51  1  0
M  CHG  1   3   1
M  END
$$$$
