@<TRIPOS>MOLECULE
*****
 49 51 0 0 0
SMALL
GASTEIGER

@<TRIPOS>ATOM
      1 O           3.0948   -0.6923   -1.3814 O.2     1  UNL1       -0.2921
      2 C           3.6419    0.0672   -0.5627 C.2     1  UNL1        0.1632
      3 C           2.8983    0.9874    0.3019 C.3     1  UNL1        0.0116
      4 C           1.4184    0.8015    0.1730 C.3     1  UNL1       -0.0332
      5 C           1.0189   -0.5552    0.6167 C.3     1  UNL1       -0.0007
      6 N          -0.4104   -0.7830    0.5362 N.3     1  UNL1       -0.3021
      7 C          -1.1747   -0.0268    1.4500 C.3     1  UNL1        0.0018
      8 C          -2.3836    0.6519    0.8233 C.3     1  UNL1       -0.0070
      9 C          -3.1579   -0.4663    0.1595 C.3     1  UNL1        0.0933
     10 O          -3.2371   -1.5054    1.0670 O.3     1  UNL1       -0.3839
     11 C          -4.4963   -0.0690   -0.2638 C.ar    1  UNL1       -0.0160
     12 C          -5.0212    1.1980   -0.1062 C.ar    1  UNL1       -0.0545
     13 C          -6.2998    1.4662   -0.5339 C.ar    1  UNL1       -0.0430
     14 C          -7.0856    0.4938   -1.1240 C.ar    1  UNL1        0.0410
     15 CL         -8.7247    0.8612   -1.6646 Cl      1  UNL1       -0.0835
     16 C          -6.5806   -0.7795   -1.2910 C.ar    1  UNL1       -0.0430
     17 C          -5.3031   -1.0188   -0.8556 C.ar    1  UNL1       -0.0545
     18 C          -2.3303   -0.9074   -1.0150 C.3     1  UNL1       -0.0070
     19 C          -0.8903   -1.0828   -0.7332 C.3     1  UNL1        0.0018
     20 C           5.1088    0.0408   -0.4546 C.ar    1  UNL1        0.0176
     21 C           5.7057    0.8800    0.4524 C.ar    1  UNL1       -0.0486
     22 C           7.0785    0.8888    0.5856 C.ar    1  UNL1       -0.0258
     23 C           7.8239    0.0439   -0.2061 C.ar    1  UNL1        0.1234
     24 F           9.1756    0.0916   -0.0380 F       1  UNL1       -0.2055
     25 C           7.2200   -0.7858   -1.1046 C.ar    1  UNL1       -0.0258
     26 C           5.8364   -0.8085   -1.2518 C.ar    1  UNL1       -0.0486
     27 H           3.1972    2.0479    0.1124 H       1  UNL1        0.0345
     28 H           3.1757    0.7171    1.3586 H       1  UNL1        0.0345
     29 H           0.8943    1.5991    0.7488 H       1  UNL1        0.0282
     30 H           1.1883    0.9574   -0.9265 H       1  UNL1        0.0282
     31 H           1.4790   -1.3246   -0.0164 H       1  UNL1        0.0427
     32 H           1.4102   -0.7378    1.6440 H       1  UNL1        0.0427
     33 H          -0.5290    0.7090    1.9768 H       1  UNL1        0.0427
     34 H          -1.5736   -0.6997    2.2371 H       1  UNL1        0.0427
     35 H          -2.0252    1.4148    0.1284 H       1  UNL1        0.0309
     36 H          -2.9763    1.0900    1.6500 H       1  UNL1        0.0309
     37 H          -3.5468   -1.1932    1.9447 H       1  UNL1        0.2106
     38 H          -4.3731    1.9298    0.3603 H       1  UNL1        0.0622
     39 H          -6.7092    2.4786   -0.4041 H       1  UNL1        0.0632
     40 H          -7.2140   -1.5228   -1.7527 H       1  UNL1        0.0632
     41 H          -4.9297   -2.0347   -0.9966 H       1  UNL1        0.0622
     42 H          -2.5159   -0.1514   -1.8331 H       1  UNL1        0.0309
     43 H          -2.7996   -1.8407   -1.4032 H       1  UNL1        0.0309
     44 H          -0.3133   -0.4863   -1.4955 H       1  UNL1        0.0427
     45 H          -0.6080   -2.1490   -0.9867 H       1  UNL1        0.0427
     46 H           5.1203    1.5586    1.0889 H       1  UNL1        0.0625
     47 H           7.5143    1.5658    1.3134 H       1  UNL1        0.0646
     48 H           7.8051   -1.4445   -1.7256 H       1  UNL1        0.0646
     49 H           5.4036   -1.4745   -1.9674 H       1  UNL1        0.0625
@<TRIPOS>BOND
     1     1     2    2
     2     2     3    1
     3     3     4    1
     4     4     5    1
     5     5     6    1
     6     6     7    1
     7     7     8    1
     8     8     9    1
     9     9    10    1
    10     9    11    1
    11    11    12   ar
    12    12    13   ar
    13    13    14   ar
    14    14    15    1
    15    14    16   ar
    16    16    17   ar
    17     9    18    1
    18    18    19    1
    19     2    20    1
    20    20    21   ar
    21    21    22   ar
    22    22    23   ar
    23    23    24    1
    24    23    25   ar
    25    25    26   ar
    26    19     6    1
    27    26    20   ar
    28    17    11   ar
    29     3    27    1
    30     3    28    1
    31     4    29    1
    32     4    30    1
    33     5    31    1
    34     5    32    1
    35     7    33    1
    36     7    34    1
    37     8    35    1
    38     8    36    1
    39    10    37    1
    40    12    38    1
    41    13    39    1
    42    16    40    1
    43    17    41    1
    44    18    42    1
    45    18    43    1
    46    19    44    1
    47    19    45    1
    48    21    46    1
    49    22    47    1
    50    25    48    1
    51    26    49    1
