
     RDKit          3D

 49 51  0  0  0  0  0  0  0  0999 V2000
    3.0948   -0.6923   -1.3814 O   0  0  0  0  0  0  0  0  0  0  0  0
    3.6419    0.0672   -0.5627 C   0  0  0  0  0  0  0  0  0  0  0  0
    2.8983    0.9874    0.3019 C   0  0  0  0  0  0  0  0  0  0  0  0
    1.4184    0.8015    0.1730 C   0  0  0  0  0  0  0  0  0  0  0  0
    1.0189   -0.5552    0.6167 C   0  0  0  0  0  0  0  0  0  0  0  0
   -0.4104   -0.7830    0.5362 N   0  0  0  0  0  0  0  0  0  0  0  0
   -1.1747   -0.0268    1.4500 C   0  0  0  0  0  0  0  0  0  0  0  0
   -2.3836    0.6519    0.8233 C   0  0  0  0  0  0  0  0  0  0  0  0
   -3.1579   -0.4663    0.1595 C   0  0  0  0  0  0  0  0  0  0  0  0
   -3.2371   -1.5054    1.0670 O   0  0  0  0  0  0  0  0  0  0  0  0
   -4.4963   -0.0690   -0.2638 C   0  0  0  0  0  0  0  0  0  0  0  0
   -5.0212    1.1980   -0.1062 C   0  0  0  0  0  0  0  0  0  0  0  0
   -6.2998    1.4662   -0.5339 C   0  0  0  0  0  0  0  0  0  0  0  0
   -7.0856    0.4938   -1.1240 C   0  0  0  0  0  0  0  0  0  0  0  0
   -8.7247    0.8612   -1.6646 Cl  0  0  0  0  0  0  0  0  0  0  0  0
   -6.5806   -0.7795   -1.2910 C   0  0  0  0  0  0  0  0  0  0  0  0
   -5.3031   -1.0188   -0.8556 C   0  0  0  0  0  0  0  0  0  0  0  0
   -2.3303   -0.9074   -1.0150 C   0  0  0  0  0  0  0  0  0  0  0  0
   -0.8903   -1.0828   -0.7332 C   0  0  0  0  0  0  0  0  0  0  0  0
    5.1088    0.0408   -0.4546 C   0  0  0  0  0  0  0  0  0  0  0  0
    5.7057    0.8800    0.4524 C   0  0  0  0  0  0  0  0  0  0  0  0
    7.0785    0.8888    0.5856 C   0  0  0  0  0  0  0  0  0  0  0  0
    7.8239    0.0439   -0.2061 C   0  0  0  0  0  0  0  0  0  0  0  0
    9.1756    0.0916   -0.0380 F   0  0  0  0  0  0  0  0  0  0  0  0
    7.2200   -0.7858   -1.1046 C   0  0  0  0  0  0  0  0  0  0  0  0
    5.8364   -0.8085   -1.2518 C   0  0  0  0  0  0  0  0  0  0  0  0
    3.1972    2.0479    0.1124 H   0  0  0  0  0  0  0  0  0  0  0  0
    3.1757    0.7171    1.3586 H   0  0  0  0  0  0  0  0  0  0  0  0
    0.8943    1.5991    0.7488 H   0  0  0  0  0  0  0  0  0  0  0  0
    1.1883    0.9574   -0.9265 H   0  0  0  0  0  0  0  0  0  0  0  0
    1.4790   -1.3246   -0.0164 H   0  0  0  0  0  0  0  0  0  0  0  0
    1.4102   -0.7378    1.6440 H   0  0  0  0  0  0  0  0  0  0  0  0
   -0.5290    0.7090    1.9768 H   0  0  0  0  0  0  0  0  0  0  0  0
   -1.5736   -0.6997    2.2371 H   0  0  0  0  0  0  0  0  0  0  0  0
   -2.0252    1.4148    0.1284 H   0  0  0  0  0  0  0  0  0  0  0  0
   -2.9763    1.0900    1.6500 H   0  0  0  0  0  0  0  0  0  0  0  0
   -3.5468   -1.1932    1.9447 H   0  0  0  0  0  0  0  0  0  0  0  0
   -4.3731    1.9298    0.3603 H   0  0  0  0  0  0  0  0  0  0  0  0
   -6.7092    2.4786   -0.4041 H   0  0  0  0  0  0  0  0  0  0  0  0
   -7.2140   -1.5228   -1.7527 H   0  0  0  0  0  0  0  0  0  0  0  0
   -4.9297   -2.0347   -0.9966 H   0  0  0  0  0  0  0  0  0  0  0  0
   -2.5159   -0.1514   -1.8331 H   0  0  0  0  0  0  0  0  0  0  0  0
   -2.7996   -1.8407   -1.4032 H   0  0  0  0  0  0  0  0  0  0  0  0
   -0.3133   -0.4863   -1.4955 H   0  0  0  0  0  0  0  0  0  0  0  0
   -0.6080   -2.1490   -0.9867 H   0  0  0  0  0  0  0  0  0  0  0  0
    5.1203    1.5586    1.0889 H   0  0  0  0  0  0  0  0  0  0  0  0
    7.5143    1.5658    1.3134 H   0  0  0  0  0  0  0  0  0  0  0  0
    7.8051   -1.4445   -1.7256 H   0  0  0  0  0  0  0  0  0  0  0  0
    5.4036   -1.4745   -1.9674 H   0  0  0  0  0  0  0  0  0  0  0  0
  1  2  2  0
  2  3  1  0
  3  4  1  0
  4  5  1  0
  5  6  1  0
  6  7  1  0
  7  8  1  0
  8  9  1  0
  9 10  1  0
  9 11  1  0
 11 12  2  0
 12 13  1  0
 13 14  2  0
 14 15  1  0
 14 16  1  0
 16 17  2  0
  9 18  1  0
 18 19  1  0
  2 20  1  0
 20 21  2  0
 21 22  1  0
 22 23  2  0
 23 24  1  0
 23 25  1  0
 25 26  2  0
 19  6  1  0
 26 20  1  0
 17 11  1  0
  3 27  1  0
  3 28  1  0
  4 29  1  0
  4 30  1  0
  5 31  1  0
  5 32  1  0
  7 33  1  0
  7 34  1  0
  8 35  1  0
  8 36  1  0
 10 37  1  0
 12 38  1  0
 13 39  1  0
 16 40  1  0
 17 41  1  0
 18 42  1  0
 18 43  1  0
 19 44  1  0
 19 45  1  0
 21 46  1  0
 22 47  1  0
 25 48  1  0
 26 49  1  0
M  END
$$$$
