@<TRIPOS>MOLECULE
*****
 45 48 0 0 0
SMALL
GASTEIGER

@<TRIPOS>ATOM
      1 C           7.3778    2.6188    0.8974 C.3     1  UNL1        0.0789
      2 O           7.4146    1.2019    0.9454 O.3     1  UNL1       -0.4921
      3 C           6.1990    0.5261    0.8229 C.ar    1  UNL1        0.1562
      4 C           6.1968   -0.8336    0.8645 C.ar    1  UNL1        0.0732
      5 N           5.0522   -1.5443    0.7514 N.ar    1  UNL1       -0.2282
      6 C           3.9185   -0.8449    0.5961 C.ar    1  UNL1        0.2162
      7 C           2.6434   -1.6057    0.4691 C.2     1  UNL1        0.2855
      8 O           2.6792   -2.8515    0.5118 O.2     1  UNL1       -0.2664
      9 N           1.4248   -0.9452    0.3049 N.am    1  UNL1       -0.2789
     10 C           0.1511   -1.5112    0.1722 C.ar    1  UNL1        0.0342
     11 C          -0.0509   -2.8627    0.1928 C.ar    1  UNL1       -0.0391
     12 C          -1.3285   -3.3726    0.0585 C.ar    1  UNL1       -0.0413
     13 C          -2.4077   -2.5092   -0.0972 C.ar    1  UNL1        0.0467
     14 CL         -4.0139   -3.1957   -0.1832 Cl      1  UNL1       -0.0832
     15 C          -2.2475   -1.1533   -0.1248 C.ar    1  UNL1        0.0059
     16 C          -3.3825   -0.2331   -0.3865 C.3     1  UNL1        0.1590
     17 C          -3.8260   -0.3192   -1.7887 C.3     1  UNL1        0.2685
     18 F          -4.2663   -1.5490   -2.1833 F       1  UNL1       -0.2062
     19 F          -2.7155   -0.0688   -2.6360 F       1  UNL1       -0.2062
     20 N          -4.4695   -0.4494    0.5347 N.2     1  UNL1       -0.2194
     21 C          -5.3714    0.4555    0.6466 C.2     1  UNL1        0.2764
     22 N          -6.4886    0.3108    1.5390 N.pl3   1  UNL1       -0.3134
     23 O          -5.1685    1.5799   -0.1663 O.2     1  UNL1       -0.4622
     24 C          -3.9432    2.2283   -0.0727 C.3     1  UNL1        0.1091
     25 C          -2.8496    2.2187   -1.0422 C.3     1  UNL1       -0.0064
     26 C          -2.8532    1.1623   -0.0439 C.3     1  UNL1        0.0344
     27 C          -0.9713   -0.6703    0.0106 C.ar    1  UNL1       -0.0334
     28 N           3.8509    0.4809    0.5472 N.ar    1  UNL1       -0.2282
     29 C           4.9995    1.1883    0.6609 C.ar    1  UNL1        0.0732
     30 H           6.9765    2.9015   -0.1144 H       1  UNL1        0.0660
     31 H           8.3716    3.0669    0.9911 H       1  UNL1        0.0660
     32 H           6.6361    2.9986    1.6228 H       1  UNL1        0.0660
     33 H           7.1080   -1.3934    0.9893 H       1  UNL1        0.0868
     34 H           1.4880    0.1205    0.2795 H       1  UNL1        0.1552
     35 H           0.7366   -3.5938    0.3101 H       1  UNL1        0.0636
     36 H          -1.4612   -4.4378    0.0776 H       1  UNL1        0.0633
     37 H          -4.6339    0.3950   -2.0643 H       1  UNL1        0.1047
     38 H          -7.4591    0.4077    1.2273 H       1  UNL1        0.1466
     39 H          -6.2539    0.0988    2.5358 H       1  UNL1        0.1466
     40 H          -3.9185    3.0253    0.7374 H       1  UNL1        0.0737
     41 H          -2.0611    3.0169   -0.8741 H       1  UNL1        0.0306
     42 H          -3.0232    2.1040   -2.1214 H       1  UNL1        0.0306
     43 H          -2.2529    1.1912    0.8728 H       1  UNL1        0.0366
     44 H          -0.7779    0.3910   -0.0187 H       1  UNL1        0.0640
     45 H           4.9711    2.2555    0.6247 H       1  UNL1        0.0868
@<TRIPOS>BOND
     1     1     2    1
     2     2     3    1
     3     3     4   ar
     4     4     5   ar
     5     5     6   ar
     6     6     7    1
     7     7     8    2
     8     7     9   am
     9     9    10    1
    10    10    11   ar
    11    11    12   ar
    12    12    13   ar
    13    13    14    1
    14    13    15   ar
    15    15    16    1
    16    16    17    1
    17    17    18    1
    18    17    19    1
    19    16    20    1
    20    20    21    2
    21    21    22    1
    22    21    23    1
    23    23    24    1
    24    24    25    1
    25    25    26    1
    26    15    27   ar
    27     6    28   ar
    28    28    29   ar
    29    29     3   ar
    30    27    10   ar
    31    26    16    1
    32    26    24    1
    33     1    30    1
    34     1    31    1
    35     1    32    1
    36     4    33    1
    37     9    34    1
    38    11    35    1
    39    12    36    1
    40    17    37    1
    41    22    38    1
    42    22    39    1
    43    24    40    1
    44    25    41    1
    45    25    42    1
    46    26    43    1
    47    27    44    1
    48    29    45    1
