@<TRIPOS>MOLECULE
*****
 45 49 0 0 0
SMALL
GASTEIGER

@<TRIPOS>ATOM
      1 C          -5.7554    2.7046   -1.3436 C.3     1  UNL1        0.0125
      2 C          -5.0496    1.4272   -1.0505 C.2     1  UNL1        0.2141
      3 O          -4.8346    0.6205   -1.9939 O.2     1  UNL1       -0.2758
      4 N          -4.6161    1.1037    0.2711 N.am    1  UNL1       -0.2857
      5 C          -3.9437   -0.1472    0.4668 C.ar    1  UNL1        0.0341
      6 C          -4.6918   -1.2514    0.7711 C.ar    1  UNL1       -0.0385
      7 C          -4.0322   -2.4519    0.9575 C.ar    1  UNL1       -0.0360
      8 C          -2.6640   -2.5856    0.8513 C.ar    1  UNL1        0.0472
      9 N          -1.8400   -3.6420    0.9915 N.ar    1  UNL1       -0.3600
     10 C          -0.6021   -3.1880    0.7752 C.ar    1  UNL1        0.0119
     11 C          -0.6164   -1.8387    0.4944 C.ar    1  UNL1        0.0256
     12 C           0.5194   -0.9753    0.2028 C.ar    1  UNL1        0.0787
     13 C           1.8126   -1.4478    0.1770 C.ar    1  UNL1        0.0043
     14 C           2.9046   -0.6407   -0.0982 C.ar    1  UNL1        0.1248
     15 N           4.2223   -1.1207   -0.1293 N.pl3   1  UNL1       -0.3261
     16 C           5.3898   -0.3494   -0.3938 C.3     1  UNL1        0.0221
     17 C           5.8641    0.7743    0.4152 C.3     1  UNL1       -0.0329
     18 C           6.5972   -0.5170    0.4947 C.3     1  UNL1       -0.0329
     19 N           2.6977    0.6775   -0.3555 N.ar    1  UNL1       -0.1993
     20 N           3.4650    1.6920   -0.6446 N.ar    1  UNL1       -0.1704
     21 C           2.7549    2.8196   -0.8140 C.ar    1  UNL1        0.0694
     22 C           1.4296    2.4957   -0.6168 C.ar    1  UNL1        0.1155
     23 C           0.2696    3.3553   -0.6863 C.1     1  UNL1        0.1045
     24 N          -0.6568    4.0631   -0.7351 N.1     1  UNL1       -0.1907
     25 C           1.4346    1.1349   -0.3296 C.ar    1  UNL1        0.1755
     26 N           0.3617    0.3324   -0.0570 N.ar    1  UNL1       -0.2264
     27 C          -1.9390   -1.4513    0.5430 C.ar    1  UNL1        0.0106
     28 C          -2.5774   -0.2638    0.3572 C.ar    1  UNL1       -0.0307
     29 H          -5.0593    3.5028   -1.6486 H       1  UNL1        0.0323
     30 H          -6.4107    3.0127   -0.4978 H       1  UNL1        0.0323
     31 H          -6.4232    2.5193   -2.2134 H       1  UNL1        0.0323
     32 H          -4.7995    1.7763    1.0372 H       1  UNL1        0.1548
     33 H          -5.7870   -1.2140    0.8706 H       1  UNL1        0.0637
     34 H          -4.6100   -3.3438    1.2006 H       1  UNL1        0.0639
     35 H          -2.1464   -4.6321    1.2286 H       1  UNL1        0.1654
     36 H           0.3055   -3.7773    0.8095 H       1  UNL1        0.0814
     37 H           1.9996   -2.4930    0.3787 H       1  UNL1        0.0673
     38 H           4.3822   -2.1568    0.0607 H       1  UNL1        0.1477
     39 H           5.6525   -0.3153   -1.4924 H       1  UNL1        0.0498
     40 H           6.3786    1.6185   -0.1076 H       1  UNL1        0.0284
     41 H           5.3645    1.1071    1.3427 H       1  UNL1        0.0284
     42 H           7.5990   -0.5518    0.0341 H       1  UNL1        0.0284
     43 H           6.5072   -1.1147    1.4227 H       1  UNL1        0.0284
     44 H           3.1354    3.8128   -1.0610 H       1  UNL1        0.0862
     45 H          -1.9923    0.6209    0.1148 H       1  UNL1        0.0643
@<TRIPOS>BOND
     1     1     2    1
     2     2     3    2
     3     2     4   am
     4     4     5    1
     5     5     6   ar
     6     6     7   ar
     7     7     8   ar
     8     8     9   ar
     9     9    10   ar
    10    10    11   ar
    11    11    12    1
    12    12    13   ar
    13    13    14   ar
    14    14    15    1
    15    15    16    1
    16    16    17    1
    17    17    18    1
    18    14    19   ar
    19    19    20   ar
    20    20    21   ar
    21    21    22   ar
    22    22    23    1
    23    23    24    3
    24    22    25   ar
    25    25    26   ar
    26    11    27   ar
    27    27    28   ar
    28    28     5   ar
    29    27     8   ar
    30    26    12   ar
    31    18    16    1
    32    25    19   ar
    33     1    29    1
    34     1    30    1
    35     1    31    1
    36     4    32    1
    37     6    33    1
    38     7    34    1
    39     9    35    1
    40    10    36    1
    41    13    37    1
    42    15    38    1
    43    16    39    1
    44    17    40    1
    45    17    41    1
    46    18    42    1
    47    18    43    1
    48    21    44    1
    49    28    45    1
