
     RDKit          3D

 45 49  0  0  0  0  0  0  0  0999 V2000
   -5.7554    2.7046   -1.3436 C   0  0  0  0  0  0  0  0  0  0  0  0
   -5.0496    1.4272   -1.0505 C   0  0  0  0  0  0  0  0  0  0  0  0
   -4.8346    0.6205   -1.9939 O   0  0  0  0  0  0  0  0  0  0  0  0
   -4.6161    1.1037    0.2711 N   0  0  0  0  0  0  0  0  0  0  0  0
   -3.9437   -0.1472    0.4668 C   0  0  0  0  0  0  0  0  0  0  0  0
   -4.6918   -1.2514    0.7711 C   0  0  0  0  0  0  0  0  0  0  0  0
   -4.0322   -2.4519    0.9575 C   0  0  0  0  0  0  0  0  0  0  0  0
   -2.6640   -2.5856    0.8513 C   0  0  0  0  0  0  0  0  0  0  0  0
   -1.8400   -3.6420    0.9915 N   0  0  0  0  0  0  0  0  0  0  0  0
   -0.6021   -3.1880    0.7752 C   0  0  0  0  0  0  0  0  0  0  0  0
   -0.6164   -1.8387    0.4944 C   0  0  0  0  0  0  0  0  0  0  0  0
    0.5194   -0.9753    0.2028 C   0  0  0  0  0  0  0  0  0  0  0  0
    1.8126   -1.4478    0.1770 C   0  0  0  0  0  0  0  0  0  0  0  0
    2.9046   -0.6407   -0.0982 C   0  0  0  0  0  0  0  0  0  0  0  0
    4.2223   -1.1207   -0.1293 N   0  0  0  0  0  0  0  0  0  0  0  0
    5.3898   -0.3494   -0.3938 C   0  0  0  0  0  0  0  0  0  0  0  0
    5.8641    0.7743    0.4152 C   0  0  0  0  0  0  0  0  0  0  0  0
    6.5972   -0.5170    0.4947 C   0  0  0  0  0  0  0  0  0  0  0  0
    2.6977    0.6775   -0.3555 N   0  0  0  0  0  0  0  0  0  0  0  0
    3.4650    1.6920   -0.6446 N   0  0  0  0  0  0  0  0  0  0  0  0
    2.7549    2.8196   -0.8140 C   0  0  0  0  0  0  0  0  0  0  0  0
    1.4296    2.4957   -0.6168 C   0  0  0  0  0  0  0  0  0  0  0  0
    0.2696    3.3553   -0.6863 C   0  0  0  0  0  0  0  0  0  0  0  0
   -0.6568    4.0631   -0.7351 N   0  0  0  0  0  0  0  0  0  0  0  0
    1.4346    1.1349   -0.3296 C   0  0  0  0  0  0  0  0  0  0  0  0
    0.3617    0.3324   -0.0570 N   0  0  0  0  0  0  0  0  0  0  0  0
   -1.9390   -1.4513    0.5430 C   0  0  0  0  0  0  0  0  0  0  0  0
   -2.5774   -0.2638    0.3572 C   0  0  0  0  0  0  0  0  0  0  0  0
   -5.0593    3.5028   -1.6486 H   0  0  0  0  0  0  0  0  0  0  0  0
   -6.4107    3.0127   -0.4978 H   0  0  0  0  0  0  0  0  0  0  0  0
   -6.4232    2.5193   -2.2134 H   0  0  0  0  0  0  0  0  0  0  0  0
   -4.7995    1.7763    1.0372 H   0  0  0  0  0  0  0  0  0  0  0  0
   -5.7870   -1.2140    0.8706 H   0  0  0  0  0  0  0  0  0  0  0  0
   -4.6100   -3.3438    1.2006 H   0  0  0  0  0  0  0  0  0  0  0  0
   -2.1464   -4.6321    1.2286 H   0  0  0  0  0  0  0  0  0  0  0  0
    0.3055   -3.7773    0.8095 H   0  0  0  0  0  0  0  0  0  0  0  0
    1.9996   -2.4930    0.3787 H   0  0  0  0  0  0  0  0  0  0  0  0
    4.3822   -2.1568    0.0607 H   0  0  0  0  0  0  0  0  0  0  0  0
    5.6525   -0.3153   -1.4924 H   0  0  0  0  0  0  0  0  0  0  0  0
    6.3786    1.6185   -0.1076 H   0  0  0  0  0  0  0  0  0  0  0  0
    5.3645    1.1071    1.3427 H   0  0  0  0  0  0  0  0  0  0  0  0
    7.5990   -0.5518    0.0341 H   0  0  0  0  0  0  0  0  0  0  0  0
    6.5072   -1.1147    1.4227 H   0  0  0  0  0  0  0  0  0  0  0  0
    3.1354    3.8128   -1.0610 H   0  0  0  0  0  0  0  0  0  0  0  0
   -1.9923    0.6209    0.1148 H   0  0  0  0  0  0  0  0  0  0  0  0
  1  2  1  0
  2  3  2  0
  2  4  1  0
  4  5  1  0
  5  6  2  0
  6  7  1  0
  7  8  2  0
  8  9  1  0
  9 10  1  0
 10 11  2  0
 11 12  1  0
 12 13  1  0
 13 14  2  0
 14 15  1  0
 15 16  1  0
 16 17  1  0
 17 18  1  0
 14 19  1  0
 19 20  1  0
 20 21  2  0
 21 22  1  0
 22 23  1  0
 23 24  3  0
 22 25  2  0
 25 26  1  0
 11 27  1  0
 27 28  2  0
 28  5  1  0
 27  8  1  0
 26 12  2  0
 18 16  1  0
 25 19  1  0
  1 29  1  0
  1 30  1  0
  1 31  1  0
  4 32  1  0
  6 33  1  0
  7 34  1  0
  9 35  1  0
 10 36  1  0
 13 37  1  0
 15 38  1  0
 16 39  1  0
 17 40  1  0
 17 41  1  0
 18 42  1  0
 18 43  1  0
 21 44  1  0
 28 45  1  0
M  END
$$$$
