
     RDKit          3D

 46 48  0  0  0  0  0  0  0  0999 V2000
   -2.8092    2.1835   -1.5871 C   0  0  0  0  0  0  0  0  0  0  0  0
   -2.0346    1.0540   -1.2490 O   0  0  0  0  0  0  0  0  0  0  0  0
   -2.6428    0.0450   -0.4847 C   0  0  0  0  0  0  0  0  0  0  0  0
   -3.9631    0.1718   -0.0875 C   0  0  0  0  0  0  0  0  0  0  0  0
   -4.5595   -0.8168    0.6572 C   0  0  0  0  0  0  0  0  0  0  0  0
   -3.8913   -1.9467    1.0324 C   0  0  0  0  0  0  0  0  0  0  0  0
   -2.5824   -2.0564    0.6306 C   0  0  0  0  0  0  0  0  0  0  0  0
   -1.9354   -1.0706   -0.1302 C   0  0  0  0  0  0  0  0  0  0  0  0
   -0.4950   -1.2659   -0.5004 C   0  0  0  0  0  0  0  0  0  0  0  0
    0.4734   -0.5622    0.3818 C   0  0  0  0  0  0  0  0  0  0  0  0
    0.3646    0.8956    0.4506 C   0  0  0  0  0  0  0  0  0  0  0  0
    0.9751    1.7636   -0.4243 C   0  0  0  0  0  0  0  0  0  0  0  0
    0.8483    3.1234   -0.3048 C   0  0  0  0  0  0  0  0  0  0  0  0
    0.0965    3.6912    0.7067 C   0  0  0  0  0  0  0  0  0  0  0  0
   -0.5226    2.8608    1.5919 C   0  0  0  0  0  0  0  0  0  0  0  0
   -0.3890    1.5158    1.4623 C   0  0  0  0  0  0  0  0  0  0  0  0
    1.7797   -1.0632    0.1749 N   0  0  0  0  0  0  0  0  0  0  0  0
    2.8332   -0.4735    0.9329 C   0  0  0  0  0  0  0  0  0  0  0  0
    4.2037   -0.9537    0.4300 C   0  0  0  0  0  0  0  0  0  0  0  0
    4.1418   -2.2985   -0.0535 N   0  0  0  0  0  0  0  0  0  0  0  0
    3.1368   -2.5813   -1.0191 C   0  0  0  0  0  0  0  0  0  0  0  0
    2.2206   -1.3498   -1.1311 C   0  0  0  0  0  0  0  0  0  0  0  0
   -3.6480    1.8955   -2.2740 H   0  0  0  0  0  0  0  0  0  0  0  0
   -2.1308    2.9180   -2.1044 H   0  0  0  0  0  0  0  0  0  0  0  0
   -3.1896    2.6086   -0.6369 H   0  0  0  0  0  0  0  0  0  0  0  0
   -4.4988    1.0671   -0.3818 H   0  0  0  0  0  0  0  0  0  0  0  0
   -5.5974   -0.7308    0.9768 H   0  0  0  0  0  0  0  0  0  0  0  0
   -4.3174   -2.7552    1.6192 H   0  0  0  0  0  0  0  0  0  0  0  0
   -2.0295   -2.9523    0.9203 H   0  0  0  0  0  0  0  0  0  0  0  0
   -0.3785   -0.9213   -1.5517 H   0  0  0  0  0  0  0  0  0  0  0  0
   -0.3326   -2.3602   -0.5244 H   0  0  0  0  0  0  0  0  0  0  0  0
    0.1940   -0.9252    1.4392 H   0  0  0  0  0  0  0  0  0  0  0  0
    1.5687    1.3798   -1.2275 H   0  0  0  0  0  0  0  0  0  0  0  0
    1.3299    3.8197   -0.9949 H   0  0  0  0  0  0  0  0  0  0  0  0
   -0.0123    4.7680    0.8130 H   0  0  0  0  0  0  0  0  0  0  0  0
   -1.1098    3.2862    2.3841 H   0  0  0  0  0  0  0  0  0  0  0  0
   -0.8827    0.8451    2.1681 H   0  0  0  0  0  0  0  0  0  0  0  0
    2.8559    0.6314    0.8847 H   0  0  0  0  0  0  0  0  0  0  0  0
    2.7571   -0.8075    1.9841 H   0  0  0  0  0  0  0  0  0  0  0  0
    4.9025   -0.9686    1.3152 H   0  0  0  0  0  0  0  0  0  0  0  0
    4.6477   -0.2316   -0.2773 H   0  0  0  0  0  0  0  0  0  0  0  0
    4.2609   -3.0029    0.6905 H   0  0  0  0  0  0  0  0  0  0  0  0
    2.4741   -3.3960   -0.6576 H   0  0  0  0  0  0  0  0  0  0  0  0
    3.5247   -2.8461   -2.0207 H   0  0  0  0  0  0  0  0  0  0  0  0
    1.4860   -1.6120   -1.8874 H   0  0  0  0  0  0  0  0  0  0  0  0
    2.8775   -0.5759   -1.5851 H   0  0  0  0  0  0  0  0  0  0  0  0
  1  2  1  0
  2  3  1  0
  3  4  2  0
  4  5  1  0
  5  6  2  0
  6  7  1  0
  7  8  2  0
  8  9  1  0
  9 10  1  0
 10 11  1  0
 11 12  2  0
 12 13  1  0
 13 14  2  0
 14 15  1  0
 15 16  2  0
 10 17  1  0
 17 18  1  0
 18 19  1  0
 19 20  1  0
 20 21  1  0
 21 22  1  0
  8  3  1  0
 16 11  1  0
 22 17  1  0
  1 23  1  0
  1 24  1  0
  1 25  1  0
  4 26  1  0
  5 27  1  0
  6 28  1  0
  7 29  1  0
  9 30  1  0
  9 31  1  0
 10 32  1  0
 12 33  1  0
 13 34  1  0
 14 35  1  0
 15 36  1  0
 16 37  1  0
 18 38  1  0
 18 39  1  0
 19 40  1  0
 19 41  1  0
 20 42  1  0
 21 43  1  0
 21 44  1  0
 22 45  1  0
 22 46  1  0
M  END
$$$$
