@<TRIPOS>MOLECULE
*****
 46 48 0 0 0
SMALL
GASTEIGER

@<TRIPOS>ATOM
      1 C          -2.8092    2.1835   -1.5871 C.3     1  UNL1        0.0788
      2 O          -2.0346    1.0540   -1.2490 O.3     1  UNL1       -0.4948
      3 C          -2.6428    0.0450   -0.4847 C.ar    1  UNL1        0.1233
      4 C          -3.9631    0.1718   -0.0875 C.ar    1  UNL1       -0.0197
      5 C          -4.5595   -0.8168    0.6572 C.ar    1  UNL1       -0.0583
      6 C          -3.8913   -1.9467    1.0324 C.ar    1  UNL1       -0.0613
      7 C          -2.5824   -2.0564    0.6306 C.ar    1  UNL1       -0.0550
      8 C          -1.9354   -1.0706   -0.1302 C.ar    1  UNL1       -0.0039
      9 C          -0.4950   -1.2659   -0.5004 C.3     1  UNL1       -0.0044
     10 C           0.4734   -0.5622    0.3818 C.3     1  UNL1        0.0398
     11 C           0.3646    0.8956    0.4506 C.ar    1  UNL1       -0.0300
     12 C           0.9751    1.7636   -0.4243 C.ar    1  UNL1       -0.0571
     13 C           0.8483    3.1234   -0.3048 C.ar    1  UNL1       -0.0615
     14 C           0.0965    3.6912    0.7067 C.ar    1  UNL1       -0.0617
     15 C          -0.5226    2.8608    1.5919 C.ar    1  UNL1       -0.0615
     16 C          -0.3890    1.5158    1.4623 C.ar    1  UNL1       -0.0571
     17 N           1.7797   -1.0632    0.1749 N.3     1  UNL1       -0.2927
     18 C           2.8332   -0.4735    0.9329 C.3     1  UNL1        0.0121
     19 C           4.2037   -0.9537    0.4300 C.3     1  UNL1        0.0087
     20 N           4.1418   -2.2985   -0.0535 N.3     1  UNL1       -0.3136
     21 C           3.1368   -2.5813   -1.0191 C.3     1  UNL1        0.0087
     22 C           2.2206   -1.3498   -1.1311 C.3     1  UNL1        0.0121
     23 H          -3.6480    1.8955   -2.2740 H       1  UNL1        0.0660
     24 H          -2.1308    2.9180   -2.1044 H       1  UNL1        0.0660
     25 H          -3.1896    2.6086   -0.6369 H       1  UNL1        0.0660
     26 H          -4.4988    1.0671   -0.3818 H       1  UNL1        0.0654
     27 H          -5.5974   -0.7308    0.9768 H       1  UNL1        0.0619
     28 H          -4.3174   -2.7552    1.6192 H       1  UNL1        0.0618
     29 H          -2.0295   -2.9523    0.9203 H       1  UNL1        0.0621
     30 H          -0.3785   -0.9213   -1.5517 H       1  UNL1        0.0333
     31 H          -0.3326   -2.3602   -0.5244 H       1  UNL1        0.0333
     32 H           0.1940   -0.9252    1.4392 H       1  UNL1        0.0515
     33 H           1.5687    1.3798   -1.2275 H       1  UNL1        0.0621
     34 H           1.3299    3.8197   -0.9949 H       1  UNL1        0.0618
     35 H          -0.0123    4.7680    0.8130 H       1  UNL1        0.0618
     36 H          -1.1098    3.2862    2.3841 H       1  UNL1        0.0618
     37 H          -0.8827    0.8451    2.1681 H       1  UNL1        0.0621
     38 H           2.8559    0.6314    0.8847 H       1  UNL1        0.0439
     39 H           2.7571   -0.8075    1.9841 H       1  UNL1        0.0439
     40 H           4.9025   -0.9686    1.3152 H       1  UNL1        0.0437
     41 H           4.6477   -0.2316   -0.2773 H       1  UNL1        0.0437
     42 H           4.2609   -3.0029    0.6905 H       1  UNL1        0.1220
     43 H           2.4741   -3.3960   -0.6576 H       1  UNL1        0.0437
     44 H           3.5247   -2.8461   -2.0207 H       1  UNL1        0.0437
     45 H           1.4860   -1.6120   -1.8874 H       1  UNL1        0.0439
     46 H           2.8775   -0.5759   -1.5851 H       1  UNL1        0.0439
@<TRIPOS>BOND
     1     1     2    1
     2     2     3    1
     3     3     4   ar
     4     4     5   ar
     5     5     6   ar
     6     6     7   ar
     7     7     8   ar
     8     8     9    1
     9     9    10    1
    10    10    11    1
    11    11    12   ar
    12    12    13   ar
    13    13    14   ar
    14    14    15   ar
    15    15    16   ar
    16    10    17    1
    17    17    18    1
    18    18    19    1
    19    19    20    1
    20    20    21    1
    21    21    22    1
    22     8     3   ar
    23    16    11   ar
    24    22    17    1
    25     1    23    1
    26     1    24    1
    27     1    25    1
    28     4    26    1
    29     5    27    1
    30     6    28    1
    31     7    29    1
    32     9    30    1
    33     9    31    1
    34    10    32    1
    35    12    33    1
    36    13    34    1
    37    14    35    1
    38    15    36    1
    39    16    37    1
    40    18    38    1
    41    18    39    1
    42    19    40    1
    43    19    41    1
    44    20    42    1
    45    21    43    1
    46    21    44    1
    47    22    45    1
    48    22    46    1
