@<TRIPOS>MOLECULE
*****
 55 58 0 0 0
SMALL
GASTEIGER

@<TRIPOS>ATOM
      1 C           8.2522   -0.1578    1.3694 C.3     1  UNL1        0.0120
      2 S           6.6893   -0.1956    0.5224 S.O     1  UNL1        0.0234
      3 O           6.1092   -1.5650    0.3999 O.2     1  UNL1       -0.2571
      4 C           5.5374    0.9531    1.2136 C.3     1  UNL1        0.0487
      5 C           4.2127    0.9751    0.5678 C.ar    1  UNL1       -0.0274
      6 C           3.8888    1.8929   -0.4095 C.ar    1  UNL1       -0.0564
      7 C           2.6849    1.8893   -1.0376 C.ar    1  UNL1       -0.0487
      8 C           1.6894    0.9342   -0.7181 C.ar    1  UNL1        0.0448
      9 C           0.4724    1.0790   -1.4770 C.2     1  UNL1        0.2500
     10 O           0.0190    2.2953   -1.5483 O.2     1  UNL1       -0.2698
     11 N          -0.3049    0.1518   -2.1591 N.am    1  UNL1       -0.2645
     12 C          -1.4663    0.4477   -2.9149 C.ar    1  UNL1        0.1559
     13 N          -1.3330    0.5499   -4.2908 N.ar    1  UNL1       -0.2363
     14 C          -2.3541    0.8306   -5.0914 C.ar    1  UNL1        0.0478
     15 C          -3.5983    1.0304   -4.5554 C.ar    1  UNL1        0.0467
     16 N          -3.7334    0.9339   -3.2295 N.ar    1  UNL1       -0.2455
     17 C          -2.6879    0.6452   -2.3838 C.ar    1  UNL1        0.1653
     18 C          -2.9132    0.6067   -0.9514 C.2     1  UNL1        0.2658
     19 O          -2.0208    0.4377   -0.0948 O.2     1  UNL1       -0.2684
     20 N          -4.2716    0.7772   -0.4960 N.am    1  UNL1       -0.3097
     21 C          -4.5921    0.7506    0.9144 C.3     1  UNL1        0.0148
     22 C          -4.2348   -0.5704    1.5558 C.3     1  UNL1       -0.0254
     23 C          -4.9314   -1.7616    0.9810 C.3     1  UNL1       -0.0488
     24 C          -5.8419   -1.7812    2.1891 C.3     1  UNL1       -0.0525
     25 C          -4.8723   -0.8530    2.8862 C.3     1  UNL1       -0.0488
     26 C           2.0023    0.0263    0.2455 C.ar    1  UNL1       -0.0055
     27 C           1.0537   -0.9119    0.5909 C.ar    1  UNL1       -0.0533
     28 C           1.3554   -1.8264    1.5746 C.ar    1  UNL1       -0.0611
     29 C           2.5716   -1.8131    2.2042 C.ar    1  UNL1       -0.0612
     30 C           3.5358   -0.8891    1.8784 C.ar    1  UNL1       -0.0537
     31 C           3.2524    0.0376    0.8913 C.ar    1  UNL1       -0.0131
     32 H           8.4708   -1.1607    1.8099 H       1  UNL1        0.0365
     33 H           8.2105    0.5997    2.2057 H       1  UNL1        0.0365
     34 H           9.1095    0.0834    0.7139 H       1  UNL1        0.0365
     35 H           5.4749    0.9134    2.3242 H       1  UNL1        0.0450
     36 H           5.9715    1.9876    1.0227 H       1  UNL1        0.0450
     37 H           4.6698    2.6286   -0.6440 H       1  UNL1        0.0621
     38 H           2.5010    2.6510   -1.8065 H       1  UNL1        0.0625
     39 H           0.0096   -0.8603   -2.1342 H       1  UNL1        0.1566
     40 H          -2.2145    0.9028   -6.1483 H       1  UNL1        0.0846
     41 H          -4.4538    1.2635   -5.2086 H       1  UNL1        0.0845
     42 H          -5.0056    0.9196   -1.2126 H       1  UNL1        0.1491
     43 H          -5.6859    0.8847    1.0231 H       1  UNL1        0.0465
     44 H          -4.0827    1.5834    1.4672 H       1  UNL1        0.0465
     45 H          -3.1341   -0.7317    1.5609 H       1  UNL1        0.0316
     46 H          -4.3339   -2.6851    0.9119 H       1  UNL1        0.0268
     47 H          -5.5080   -1.5681    0.0483 H       1  UNL1        0.0268
     48 H          -6.8429   -1.3526    1.9711 H       1  UNL1        0.0265
     49 H          -5.8839   -2.7826    2.6570 H       1  UNL1        0.0265
     50 H          -5.3472    0.0286    3.3570 H       1  UNL1        0.0268
     51 H          -4.1835   -1.3693    3.5992 H       1  UNL1        0.0268
     52 H           0.1190   -0.9149    0.0963 H       1  UNL1        0.0624
     53 H           0.6298   -2.5763    1.8687 H       1  UNL1        0.0618
     54 H           2.8475   -2.5236    2.9930 H       1  UNL1        0.0618
     55 H           4.4915   -0.8406    2.3613 H       1  UNL1        0.0624
@<TRIPOS>BOND
     1     1     2    1
     2     2     3    2
     3     2     4    1
     4     4     5    1
     5     5     6   ar
     6     6     7   ar
     7     7     8   ar
     8     8     9    1
     9     9    10    2
    10     9    11   am
    11    11    12    1
    12    12    13   ar
    13    13    14   ar
    14    14    15   ar
    15    15    16   ar
    16    16    17   ar
    17    17    18    1
    18    18    19    2
    19    18    20   am
    20    20    21    1
    21    21    22    1
    22    22    23    1
    23    23    24    1
    24    24    25    1
    25     8    26   ar
    26    26    27   ar
    27    27    28   ar
    28    28    29   ar
    29    29    30   ar
    30    30    31   ar
    31    31     5   ar
    32    17    12   ar
    33    25    22    1
    34    31    26   ar
    35     1    32    1
    36     1    33    1
    37     1    34    1
    38     4    35    1
    39     4    36    1
    40     6    37    1
    41     7    38    1
    42    11    39    1
    43    14    40    1
    44    15    41    1
    45    20    42    1
    46    21    43    1
    47    21    44    1
    48    22    45    1
    49    23    46    1
    50    23    47    1
    51    24    48    1
    52    24    49    1
    53    25    50    1
    54    25    51    1
    55    27    52    1
    56    28    53    1
    57    29    54    1
    58    30    55    1
