@<TRIPOS>MOLECULE
*****
 44 46 0 0 0
SMALL
GASTEIGER

@<TRIPOS>ATOM
      1 CL          0.6918    0.0000    0.0000 Cl      1  UNL1       -0.1454
      2 N           7.6275    0.4803   -1.5706 N.3     2  UNL2       -0.3267
      3 C           6.3905    0.6447   -0.8236 C.3     2  UNL2        0.0123
      4 C           6.5366    0.4775    0.6588 C.3     2  UNL2       -0.0289
      5 C           5.7445   -0.4921   -0.1617 C.3     2  UNL2        0.0008
      6 C           4.2692   -0.4146    0.0869 C.ar    2  UNL2       -0.0426
      7 C           3.5139   -1.5746    0.1560 C.ar    2  UNL2       -0.0565
      8 C           2.1495   -1.4871    0.3871 C.ar    2  UNL2       -0.0402
      9 C           1.5854   -0.2396    0.5416 C.ar    2  UNL2        0.0337
     10 N           0.1667   -0.1956    0.7804 N.am    2  UNL2       -0.2815
     11 C          -0.6866   -0.1152   -0.3388 C.2     2  UNL2        0.2483
     12 O          -0.1676   -0.0862   -1.4810 O.2     2  UNL2       -0.2699
     13 C          -2.1242   -0.0695   -0.1279 C.ar    2  UNL2        0.0371
     14 C          -2.7140   -0.1018    1.1091 C.ar    2  UNL2       -0.0490
     15 C          -4.1046   -0.0563    1.2853 C.ar    2  UNL2       -0.0532
     16 C          -4.9493    0.0241    0.2030 C.ar    2  UNL2       -0.0148
     17 C          -6.4081    0.0726    0.3763 C.ar    2  UNL2        0.0198
     18 C          -7.3775   -0.4117   -0.4651 C.ar    2  UNL2       -0.0162
     19 C          -8.5861   -0.1285    0.1283 C.ar    2  UNL2        0.0923
     20 O          -8.3327    0.4851    1.2499 O.2     2  UNL2       -0.4704
     21 C          -7.0638    0.6324    1.4503 C.ar    2  UNL2        0.0994
     22 C          -4.3631    0.0570   -1.0433 C.ar    2  UNL2       -0.0532
     23 C          -2.9986    0.0126   -1.2215 C.ar    2  UNL2       -0.0490
     24 C           2.3382    0.9144    0.4725 C.ar    2  UNL2       -0.0402
     25 C           3.7080    0.8382    0.2411 C.ar    2  UNL2       -0.0565
     26 H          -0.6918    0.0000    0.0000 H       1  UNL1        0.1454
     27 H           8.2959   -0.1567   -1.0416 H       2  UNL2        0.1185
     28 H           8.0974    1.4257   -1.5456 H       2  UNL2        0.1185
     29 H           5.7646    1.4698   -1.1977 H       2  UNL2        0.0464
     30 H           7.4851    0.0770    1.0809 H       2  UNL2        0.0287
     31 H           6.0504    1.2093    1.3087 H       2  UNL2        0.0287
     32 H           6.1468   -1.5179   -0.2794 H       2  UNL2        0.0364
     33 H           3.9450   -2.5453    0.0372 H       2  UNL2        0.0621
     34 H           1.5189   -2.3749    0.4487 H       2  UNL2        0.0636
     35 H          -0.1224   -0.2268    1.7744 H       2  UNL2        0.1551
     36 H          -2.0890   -0.1654    2.0013 H       2  UNL2        0.0625
     37 H          -4.5329   -0.0846    2.2922 H       2  UNL2        0.0624
     38 H          -7.1812   -0.9095   -1.3981 H       2  UNL2        0.0655
     39 H          -9.5660   -0.3591   -0.2428 H       2  UNL2        0.1029
     40 H          -6.5938    1.1037    2.2960 H       2  UNL2        0.1035
     41 H          -5.0305    0.1203   -1.8926 H       2  UNL2        0.0624
     42 H          -2.5281    0.0378   -2.1924 H       2  UNL2        0.0625
     43 H           1.8952    1.8777    0.5931 H       2  UNL2        0.0636
     44 H           4.2911    1.7530    0.1888 H       2  UNL2        0.0621
@<TRIPOS>BOND
     1     2     3    1
     2     3     4    1
     3     4     5    1
     4     5     6    1
     5     6     7   ar
     6     7     8   ar
     7     8     9   ar
     8     9    10    1
     9    10    11   am
    10    11    12    2
    11    11    13    1
    12    13    14   ar
    13    14    15   ar
    14    15    16   ar
    15    16    17    1
    16    17    18   ar
    17    18    19   ar
    18    19    20   ar
    19    20    21   ar
    20    16    22   ar
    21    22    23   ar
    22     9    24   ar
    23    24    25   ar
    24     5     3    1
    25    25     6   ar
    26    23    13   ar
    27    21    17   ar
    28     1    26    1
    29     2    27    1
    30     2    28    1
    31     3    29    1
    32     4    30    1
    33     4    31    1
    34     5    32    1
    35     7    33    1
    36     8    34    1
    37    10    35    1
    38    14    36    1
    39    15    37    1
    40    18    38    1
    41    19    39    1
    42    21    40    1
    43    22    41    1
    44    23    42    1
    45    24    43    1
    46    25    44    1
