
     RDKit          3D

 44 46  0  0  0  0  0  0  0  0999 V2000
    0.6918    0.0000    0.0000 Cl  0  0  0  0  0  0  0  0  0  0  0  0
    7.6275    0.4803   -1.5706 N   0  0  0  0  0  0  0  0  0  0  0  0
    6.3905    0.6447   -0.8236 C   0  0  2  0  0  0  0  0  0  0  0  0
    6.5366    0.4775    0.6588 C   0  0  0  0  0  0  0  0  0  0  0  0
    5.7445   -0.4921   -0.1617 C   0  0  1  0  0  0  0  0  0  0  0  0
    4.2692   -0.4146    0.0869 C   0  0  0  0  0  0  0  0  0  0  0  0
    3.5139   -1.5746    0.1560 C   0  0  0  0  0  0  0  0  0  0  0  0
    2.1495   -1.4871    0.3871 C   0  0  0  0  0  0  0  0  0  0  0  0
    1.5854   -0.2396    0.5416 C   0  0  0  0  0  0  0  0  0  0  0  0
    0.1667   -0.1956    0.7804 N   0  0  0  0  0  0  0  0  0  0  0  0
   -0.6866   -0.1152   -0.3388 C   0  0  0  0  0  0  0  0  0  0  0  0
   -0.1676   -0.0862   -1.4810 O   0  0  0  0  0  0  0  0  0  0  0  0
   -2.1242   -0.0695   -0.1279 C   0  0  0  0  0  0  0  0  0  0  0  0
   -2.7140   -0.1018    1.1091 C   0  0  0  0  0  0  0  0  0  0  0  0
   -4.1046   -0.0563    1.2853 C   0  0  0  0  0  0  0  0  0  0  0  0
   -4.9493    0.0241    0.2030 C   0  0  0  0  0  0  0  0  0  0  0  0
   -6.4081    0.0726    0.3763 C   0  0  0  0  0  0  0  0  0  0  0  0
   -7.3775   -0.4117   -0.4651 C   0  0  0  0  0  0  0  0  0  0  0  0
   -8.5861   -0.1285    0.1283 C   0  0  0  0  0  0  0  0  0  0  0  0
   -8.3327    0.4851    1.2499 O   0  0  0  0  0  0  0  0  0  0  0  0
   -7.0638    0.6324    1.4503 C   0  0  0  0  0  0  0  0  0  0  0  0
   -4.3631    0.0570   -1.0433 C   0  0  0  0  0  0  0  0  0  0  0  0
   -2.9986    0.0126   -1.2215 C   0  0  0  0  0  0  0  0  0  0  0  0
    2.3382    0.9144    0.4725 C   0  0  0  0  0  0  0  0  0  0  0  0
    3.7080    0.8382    0.2411 C   0  0  0  0  0  0  0  0  0  0  0  0
   -0.6918    0.0000    0.0000 H   0  0  0  0  0  0  0  0  0  0  0  0
    8.2959   -0.1567   -1.0416 H   0  0  0  0  0  0  0  0  0  0  0  0
    8.0974    1.4257   -1.5456 H   0  0  0  0  0  0  0  0  0  0  0  0
    5.7646    1.4698   -1.1977 H   0  0  0  0  0  0  0  0  0  0  0  0
    7.4851    0.0770    1.0809 H   0  0  0  0  0  0  0  0  0  0  0  0
    6.0504    1.2093    1.3087 H   0  0  0  0  0  0  0  0  0  0  0  0
    6.1468   -1.5179   -0.2794 H   0  0  0  0  0  0  0  0  0  0  0  0
    3.9450   -2.5453    0.0372 H   0  0  0  0  0  0  0  0  0  0  0  0
    1.5189   -2.3749    0.4487 H   0  0  0  0  0  0  0  0  0  0  0  0
   -0.1224   -0.2268    1.7744 H   0  0  0  0  0  0  0  0  0  0  0  0
   -2.0890   -0.1654    2.0013 H   0  0  0  0  0  0  0  0  0  0  0  0
   -4.5329   -0.0846    2.2922 H   0  0  0  0  0  0  0  0  0  0  0  0
   -7.1812   -0.9095   -1.3981 H   0  0  0  0  0  0  0  0  0  0  0  0
   -9.5660   -0.3591   -0.2428 H   0  0  0  0  0  0  0  0  0  0  0  0
   -6.5938    1.1037    2.2960 H   0  0  0  0  0  0  0  0  0  0  0  0
   -5.0305    0.1203   -1.8926 H   0  0  0  0  0  0  0  0  0  0  0  0
   -2.5281    0.0378   -2.1924 H   0  0  0  0  0  0  0  0  0  0  0  0
    1.8952    1.8777    0.5931 H   0  0  0  0  0  0  0  0  0  0  0  0
    4.2911    1.7530    0.1888 H   0  0  0  0  0  0  0  0  0  0  0  0
  2  3  1  0
  3  4  1  0
  4  5  1  0
  5  6  1  0
  6  7  2  0
  7  8  1  0
  8  9  2  0
  9 10  1  0
 10 11  1  0
 11 12  2  0
 11 13  1  0
 13 14  2  0
 14 15  1  0
 15 16  2  0
 16 17  1  0
 17 18  1  0
 18 19  2  0
 19 20  1  0
 20 21  1  0
 16 22  1  0
 22 23  2  0
  9 24  1  0
 24 25  2  0
  5  3  1  0
 25  6  1  0
 23 13  1  0
 21 17  2  0
  1 26  1  0
  2 27  1  0
  2 28  1  0
  3 29  1  1
  4 30  1  0
  4 31  1  0
  5 32  1  6
  7 33  1  0
  8 34  1  0
 10 35  1  0
 14 36  1  0
 15 37  1  0
 18 38  1  0
 19 39  1  0
 21 40  1  0
 22 41  1  0
 23 42  1  0
 24 43  1  0
 25 44  1  0
M  END
$$$$
