
     RDKit          3D

 52 55  0  0  0  0  0  0  0  0999 V2000
    7.7518   -0.8276    1.5791 O   0  0  0  0  0  0  0  0  0  0  0  0
    6.8220   -0.4328    0.6072 C   0  0  0  0  0  0  0  0  0  0  0  0
    5.4770   -0.9862    0.9974 C   0  0  0  0  0  0  0  0  0  0  0  0
    4.5068   -0.6381    0.0758 O   0  0  0  0  0  0  0  0  0  0  0  0
    4.3364    0.7215   -0.0914 C   0  0  0  0  0  0  0  0  0  0  0  0
    3.2366    1.0619   -1.0802 C   0  0  0  0  0  0  0  0  0  0  0  0
    1.9462    0.5906   -0.7295 N   0  0  0  0  0  0  0  0  0  0  0  0
    1.7303   -0.8150   -0.7527 C   0  0  0  0  0  0  0  0  0  0  0  0
    0.3065   -1.2397   -0.6673 C   0  0  0  0  0  0  0  0  0  0  0  0
   -0.5900   -0.1303   -0.3570 N   0  0  0  0  0  0  0  0  0  0  0  0
   -0.2166    1.2654   -0.0698 C   0  0  0  0  0  0  0  0  0  0  0  0
    1.2741    1.2989    0.3122 C   0  0  0  0  0  0  0  0  0  0  0  0
   -2.0089   -0.1785   -0.2609 C   0  0  0  0  0  0  0  0  0  0  0  0
   -2.3123   -0.2487    0.9774 N   0  0  0  0  0  0  0  0  0  0  0  0
   -3.5109   -0.3200    1.6880 C   0  0  0  0  0  0  0  0  0  0  0  0
   -3.3957   -0.2552    3.0835 C   0  0  0  0  0  0  0  0  0  0  0  0
   -4.4571   -0.3031    3.9582 C   0  0  0  0  0  0  0  0  0  0  0  0
   -5.7257   -0.4218    3.4778 C   0  0  0  0  0  0  0  0  0  0  0  0
   -5.8713   -0.4886    2.0931 C   0  0  0  0  0  0  0  0  0  0  0  0
   -4.7838   -0.4379    1.2354 C   0  0  0  0  0  0  0  0  0  0  0  0
   -5.4735   -0.5613   -0.3931 S   0  0  0  0  0  0  0  0  0  0  0  0
   -4.2022   -0.2840   -1.5801 C   0  0  0  0  0  0  0  0  0  0  0  0
   -4.7970   -0.2170   -2.8151 C   0  0  0  0  0  0  0  0  0  0  0  0
   -4.0614   -0.0027   -3.9723 C   0  0  0  0  0  0  0  0  0  0  0  0
   -2.6838    0.1389   -3.7880 C   0  0  0  0  0  0  0  0  0  0  0  0
   -2.0983    0.0682   -2.5295 C   0  0  0  0  0  0  0  0  0  0  0  0
   -2.8664   -0.1470   -1.4019 C   0  0  0  0  0  0  0  0  0  0  0  0
    7.8882   -0.1550    2.2850 H   0  0  0  0  0  0  0  0  0  0  0  0
    6.8187    0.6821    0.6170 H   0  0  0  0  0  0  0  0  0  0  0  0
    7.1366   -0.8428   -0.3540 H   0  0  0  0  0  0  0  0  0  0  0  0
    5.5750   -2.0905    1.0334 H   0  0  0  0  0  0  0  0  0  0  0  0
    5.1718   -0.6278    2.0053 H   0  0  0  0  0  0  0  0  0  0  0  0
    4.2382    1.2947    0.8369 H   0  0  0  0  0  0  0  0  0  0  0  0
    5.2803    1.1086   -0.5827 H   0  0  0  0  0  0  0  0  0  0  0  0
    3.5119    0.6041   -2.0565 H   0  0  0  0  0  0  0  0  0  0  0  0
    3.2090    2.1588   -1.2018 H   0  0  0  0  0  0  0  0  0  0  0  0
    2.1287   -1.1764   -1.7473 H   0  0  0  0  0  0  0  0  0  0  0  0
    2.3076   -1.3673    0.0207 H   0  0  0  0  0  0  0  0  0  0  0  0
   -0.0309   -1.7732   -1.5918 H   0  0  0  0  0  0  0  0  0  0  0  0
    0.1680   -1.9720    0.1789 H   0  0  0  0  0  0  0  0  0  0  0  0
   -0.4216    1.9261   -0.9192 H   0  0  0  0  0  0  0  0  0  0  0  0
   -0.7295    1.6698    0.8197 H   0  0  0  0  0  0  0  0  0  0  0  0
    1.3672    0.8182    1.3155 H   0  0  0  0  0  0  0  0  0  0  0  0
    1.5961    2.3492    0.2992 H   0  0  0  0  0  0  0  0  0  0  0  0
   -2.3714   -0.1590    3.4730 H   0  0  0  0  0  0  0  0  0  0  0  0
   -4.1975   -0.2412    5.0241 H   0  0  0  0  0  0  0  0  0  0  0  0
   -6.5026   -0.4533    4.2036 H   0  0  0  0  0  0  0  0  0  0  0  0
   -6.9218   -0.5832    1.7752 H   0  0  0  0  0  0  0  0  0  0  0  0
   -5.8688   -0.3253   -2.9636 H   0  0  0  0  0  0  0  0  0  0  0  0
   -4.5375    0.0479   -4.9342 H   0  0  0  0  0  0  0  0  0  0  0  0
   -2.1074    0.3043   -4.6689 H   0  0  0  0  0  0  0  0  0  0  0  0
   -1.0412    0.1887   -2.4638 H   0  0  0  0  0  0  0  0  0  0  0  0
  1  2  1  0
  2  3  1  0
  3  4  1  0
  4  5  1  0
  5  6  1  0
  6  7  1  0
  7  8  1  0
  8  9  1  0
  9 10  1  0
 10 11  1  0
 11 12  1  0
 10 13  1  0
 13 14  2  0
 14 15  1  0
 15 16  2  0
 16 17  1  0
 17 18  2  0
 18 19  1  0
 19 20  2  0
 20 21  1  0
 21 22  1  0
 22 23  2  0
 23 24  1  0
 24 25  2  0
 25 26  1  0
 26 27  2  0
 12  7  1  0
 27 13  1  0
 20 15  1  0
 27 22  1  0
  1 28  1  0
  2 29  1  0
  2 30  1  0
  3 31  1  0
  3 32  1  0
  5 33  1  0
  5 34  1  0
  6 35  1  0
  6 36  1  0
  8 37  1  0
  8 38  1  0
  9 39  1  0
  9 40  1  0
 11 41  1  0
 11 42  1  0
 12 43  1  0
 12 44  1  0
 16 45  1  0
 17 46  1  0
 18 47  1  0
 19 48  1  0
 23 49  1  0
 24 50  1  0
 25 51  1  0
 26 52  1  0
M  END
$$$$
