@<TRIPOS>MOLECULE
*****
 62 68 0 0 0
SMALL
GASTEIGER

@<TRIPOS>ATOM
      1 C           8.5065   -1.1207   -0.7332 C.3     1  UNL1       -0.0124
      2 N           7.0780   -1.2539   -0.4112 N.3     1  UNL1       -0.2991
      3 C           6.3467   -0.5005   -1.4390 C.3     1  UNL1        0.0176
      4 C           5.8178    0.7297   -0.7377 C.3     1  UNL1        0.0377
      5 C           6.9505    0.9212    0.2931 C.3     1  UNL1       -0.0161
      6 C           6.8567   -0.5295    0.8070 C.3     1  UNL1        0.0276
      7 C           5.3721   -0.5763    1.1149 C.3     1  UNL1        0.0282
      8 N           4.7704    0.3044    0.1339 N.pl3   1  UNL1       -0.3241
      9 C           3.4102    0.6757    0.0504 C.ar    1  UNL1        0.0300
     10 C           2.4546    0.2190    0.9492 C.ar    1  UNL1       -0.0400
     11 C           1.1243    0.5763    0.8751 C.ar    1  UNL1       -0.0508
     12 C           0.6867    1.4084   -0.1028 C.ar    1  UNL1        0.0006
     13 C          -0.6887    1.8295   -0.2483 C.ar    1  UNL1        0.0763
     14 C          -0.9627    3.1690   -0.5000 C.ar    1  UNL1       -0.0174
     15 C          -2.2673    3.6010   -0.6437 C.ar    1  UNL1        0.0320
     16 N          -3.2694    2.7358   -0.5418 N.ar    1  UNL1       -0.2355
     17 C          -3.0149    1.4296   -0.2970 C.ar    1  UNL1        0.1644
     18 C          -3.8890    0.3594   -0.1518 C.ar    1  UNL1        0.0540
     19 C          -5.3467    0.3643   -0.2277 C.ar    1  UNL1       -0.0088
     20 C          -5.9945   -0.3630   -1.2142 C.ar    1  UNL1       -0.0536
     21 C          -7.3699   -0.3804   -1.3142 C.ar    1  UNL1       -0.0577
     22 C          -8.1577    0.3295   -0.4309 C.ar    1  UNL1       -0.0201
     23 C          -7.5294    1.0574    0.5554 C.ar    1  UNL1        0.1174
     24 O          -8.3452    1.7625    1.4310 O.3     1  UNL1       -0.5067
     25 C          -6.1531    1.0662    0.6441 C.ar    1  UNL1       -0.0123
     26 C          -3.0668   -0.7270    0.0834 C.ar    1  UNL1        0.1031
     27 C          -3.5844   -2.0739    0.2958 C.ar    1  UNL1        0.0056
     28 C          -3.2405   -3.0984   -0.5616 C.ar    1  UNL1       -0.0343
     29 C          -3.7212   -4.3944   -0.3820 C.ar    1  UNL1        0.0282
     30 N          -4.5398   -4.6623    0.6480 N.ar    1  UNL1       -0.2632
     31 C          -4.8878   -3.6766    1.4966 C.ar    1  UNL1        0.0282
     32 C          -4.4283   -2.3857    1.3444 C.ar    1  UNL1       -0.0343
     33 N          -1.7976   -0.2821    0.0696 N.ar    1  UNL1       -0.1638
     34 N          -1.7424    1.0107   -0.1572 N.ar    1  UNL1       -0.2128
     35 C           1.6238    1.8791   -1.0146 C.ar    1  UNL1       -0.0508
     36 C           2.9447    1.5201   -0.9355 C.ar    1  UNL1       -0.0400
     37 H           8.8870   -2.0586   -1.1387 H       1  UNL1        0.0391
     38 H           8.6665   -0.3330   -1.5148 H       1  UNL1        0.0391
     39 H           9.0806   -0.7506    0.1560 H       1  UNL1        0.0391
     40 H           5.5005   -1.1241   -1.7307 H       1  UNL1        0.0445
     41 H           7.0081   -0.1866   -2.2588 H       1  UNL1        0.0445
     42 H           5.6525    1.5869   -1.3498 H       1  UNL1        0.0513
     43 H           6.6697    1.6419    1.0628 H       1  UNL1        0.0299
     44 H           7.9126    1.0963   -0.1935 H       1  UNL1        0.0299
     45 H           7.5089   -0.7383    1.6247 H       1  UNL1        0.0478
     46 H           5.0441   -1.6200    0.8350 H       1  UNL1        0.0479
     47 H           5.1293   -0.3265    2.1468 H       1  UNL1        0.0479
     48 H           2.7995   -0.4459    1.7320 H       1  UNL1        0.0636
     49 H           0.3845    0.2059    1.5937 H       1  UNL1        0.0625
     50 H          -0.1260    3.8798   -0.5831 H       1  UNL1        0.0654
     51 H          -2.4619    4.6475   -0.8397 H       1  UNL1        0.0831
     52 H          -5.4080   -0.9334   -1.9271 H       1  UNL1        0.0624
     53 H          -7.8999   -0.9481   -2.0856 H       1  UNL1        0.0619
     54 H          -9.2438    0.3121   -0.5150 H       1  UNL1        0.0654
     55 H          -8.0841    2.7160    1.6486 H       1  UNL1        0.2921
     56 H          -5.6622    1.6383    1.4189 H       1  UNL1        0.0660
     57 H          -2.5926   -2.9316   -1.3933 H       1  UNL1        0.0639
     58 H          -3.4529   -5.2046   -1.0552 H       1  UNL1        0.0830
     59 H          -5.5429   -3.8937    2.3196 H       1  UNL1        0.0830
     60 H          -4.7105   -1.5959    2.0284 H       1  UNL1        0.0639
     61 H           1.3329    2.5479   -1.8195 H       1  UNL1        0.0625
     62 H           3.6625    1.8940   -1.6518 H       1  UNL1        0.0636
@<TRIPOS>BOND
     1     1     2    1
     2     2     3    1
     3     3     4    1
     4     4     5    1
     5     5     6    1
     6     6     7    1
     7     7     8    1
     8     8     9    1
     9     9    10   ar
    10    10    11   ar
    11    11    12   ar
    12    12    13    1
    13    13    14   ar
    14    14    15   ar
    15    15    16   ar
    16    16    17   ar
    17    17    18   ar
    18    18    19    1
    19    19    20   ar
    20    20    21   ar
    21    21    22   ar
    22    22    23   ar
    23    23    24    1
    24    23    25   ar
    25    18    26   ar
    26    26    27    1
    27    27    28   ar
    28    28    29   ar
    29    29    30   ar
    30    30    31   ar
    31    31    32   ar
    32    26    33   ar
    33    33    34   ar
    34    12    35   ar
    35    35    36   ar
    36     6     2    1
    37    36     9   ar
    38     8     4    1
    39    34    13   ar
    40    34    17   ar
    41    25    19   ar
    42    32    27   ar
    43     1    37    1
    44     1    38    1
    45     1    39    1
    46     3    40    1
    47     3    41    1
    48     4    42    1
    49     5    43    1
    50     5    44    1
    51     6    45    1
    52     7    46    1
    53     7    47    1
    54    10    48    1
    55    11    49    1
    56    14    50    1
    57    15    51    1
    58    20    52    1
    59    21    53    1
    60    22    54    1
    61    24    55    1
    62    25    56    1
    63    28    57    1
    64    29    58    1
    65    31    59    1
    66    32    60    1
    67    35    61    1
    68    36    62    1
