@<TRIPOS>MOLECULE
*****
 66 70 0 0 0
SMALL
GASTEIGER

@<TRIPOS>ATOM
      1 C          10.0703   -0.1120   -0.8558 C.3     1  UNL1        0.0545
      2 S           9.5338    1.5613   -1.0883 S.O2    1  UNL1       -0.0326
      3 O          10.1041    2.0625   -2.3795 O.2     1  UNL1       -0.1746
      4 O          10.0337    2.4165    0.0344 O.2     1  UNL1       -0.1746
      5 C           7.7565    1.6624   -1.0961 C.3     1  UNL1        0.0779
      6 C           7.1811    1.1689    0.2163 C.3     1  UNL1        0.0157
      7 N           7.5275   -0.1844    0.5048 N.3     1  UNL1       -0.3078
      8 C           6.9408   -1.1763   -0.3476 C.3     1  UNL1        0.0546
      9 C           5.4484   -1.1089   -0.1859 C.ar    1  UNL1        0.1195
     10 C           4.5714   -0.3418   -0.9168 C.ar    1  UNL1       -0.0188
     11 C           3.3193   -0.5890   -0.4381 C.ar    1  UNL1       -0.0156
     12 C           3.4486   -1.5043    0.5798 C.ar    1  UNL1        0.1353
     13 C           2.3621   -2.0582    1.3801 C.ar    1  UNL1        0.0181
     14 C           2.5679   -2.9648    2.3853 C.ar    1  UNL1       -0.0490
     15 C           1.5419   -3.4941    3.1375 C.ar    1  UNL1       -0.0349
     16 C           0.2426   -3.1165    2.8947 C.ar    1  UNL1        0.0760
     17 N          -0.7964   -3.5947    3.5879 N.ar    1  UNL1       -0.2353
     18 C          -2.0634   -3.2203    3.3415 C.ar    1  UNL1        0.1187
     19 N          -2.2901   -2.3371    2.3674 N.ar    1  UNL1       -0.2200
     20 C          -1.3228   -1.7937    1.6104 C.ar    1  UNL1        0.1339
     21 N          -1.5750   -0.8657    0.5888 N.pl3   1  UNL1       -0.2988
     22 C          -2.8917   -0.3781    0.3786 C.ar    1  UNL1        0.0340
     23 C          -3.2955   -0.0075   -0.8982 C.ar    1  UNL1       -0.0370
     24 C          -4.5531    0.4932   -1.1394 C.ar    1  UNL1       -0.0167
     25 C          -5.4614    0.6456   -0.1182 C.ar    1  UNL1        0.1393
     26 O          -6.7389    1.1424   -0.3006 O.3     1  UNL1       -0.4859
     27 C          -7.1905    1.5345   -1.5987 C.3     1  UNL1        0.1148
     28 C          -8.5873    2.0333   -1.5334 C.ar    1  UNL1       -0.0077
     29 C          -9.6401    1.1647   -1.6962 C.ar    1  UNL1       -0.0552
     30 C         -10.9455    1.6078   -1.6386 C.ar    1  UNL1       -0.0587
     31 C         -11.1607    2.9549   -1.4115 C.ar    1  UNL1       -0.0264
     32 C         -10.1278    3.8310   -1.2477 C.ar    1  UNL1        0.1238
     33 F         -10.3839    5.1567   -1.0237 F       1  UNL1       -0.2055
     34 C          -8.8354    3.3655   -1.3094 C.ar    1  UNL1       -0.0201
     35 C          -5.0629    0.2788    1.1487 C.ar    1  UNL1        0.0843
     36 CL         -6.1780    0.4523    2.4771 Cl      1  UNL1       -0.0797
     37 C          -3.7769   -0.2331    1.3978 C.ar    1  UNL1       -0.0186
     38 C          -0.0149   -2.1885    1.8739 C.ar    1  UNL1        0.0411
     39 C           1.0334   -1.6772    1.1388 C.ar    1  UNL1       -0.0386
     40 O           4.7214   -1.7709    0.6805 O.2     1  UNL1       -0.4584
     41 H           9.8633   -0.4033    0.1737 H       1  UNL1        0.0464
     42 H          11.1591   -0.1676   -1.1028 H       1  UNL1        0.0464
     43 H           9.5441   -0.7200   -1.6319 H       1  UNL1        0.0464
     44 H           7.3321    1.0526   -1.9005 H       1  UNL1        0.0512
     45 H           7.4308    2.7106   -1.2195 H       1  UNL1        0.0512
     46 H           7.5327    1.7909    1.0752 H       1  UNL1        0.0440
     47 H           6.0822    1.2768    0.1445 H       1  UNL1        0.0440
     48 H           7.4613   -0.3918    1.5077 H       1  UNL1        0.1224
     49 H           7.2297   -2.1829    0.0311 H       1  UNL1        0.0504
     50 H           7.1831   -1.0214   -1.3976 H       1  UNL1        0.0504
     51 H           4.8348    0.3447   -1.7352 H       1  UNL1        0.0652
     52 H           2.3975   -0.1344   -0.8076 H       1  UNL1        0.0655
     53 H           3.5881   -3.2706    2.5894 H       1  UNL1        0.0625
     54 H           1.7034   -4.2109    3.9314 H       1  UNL1        0.0639
     55 H          -2.8471   -3.6296    3.9213 H       1  UNL1        0.1048
     56 H          -0.8379   -0.4907   -0.0615 H       1  UNL1        0.1536
     57 H          -2.6237   -0.1095   -1.7172 H       1  UNL1        0.0637
     58 H          -4.8832    0.7895   -2.1353 H       1  UNL1        0.0655
     59 H          -6.5120    2.3400   -1.9184 H       1  UNL1        0.0748
     60 H          -7.0876    0.7027   -2.3161 H       1  UNL1        0.0748
     61 H          -9.4515    0.0941   -1.8749 H       1  UNL1        0.0621
     62 H         -11.7741    0.9233   -1.7675 H       1  UNL1        0.0619
     63 H         -12.1992    3.2741   -1.3710 H       1  UNL1        0.0646
     64 H          -8.0044    4.0675   -1.1797 H       1  UNL1        0.0650
     65 H          -3.5426   -0.4813    2.4320 H       1  UNL1        0.0652
     66 H           0.9082   -0.9680    0.3510 H       1  UNL1        0.0632
@<TRIPOS>BOND
     1     1     2    1
     2     2     3    2
     3     2     4    2
     4     2     5    1
     5     5     6    1
     6     6     7    1
     7     7     8    1
     8     8     9    1
     9     9    10   ar
    10    10    11   ar
    11    11    12   ar
    12    12    13    1
    13    13    14   ar
    14    14    15   ar
    15    15    16   ar
    16    16    17   ar
    17    17    18   ar
    18    18    19   ar
    19    19    20   ar
    20    20    21    1
    21    21    22    1
    22    22    23   ar
    23    23    24   ar
    24    24    25   ar
    25    25    26    1
    26    26    27    1
    27    27    28    1
    28    28    29   ar
    29    29    30   ar
    30    30    31   ar
    31    31    32   ar
    32    32    33    1
    33    32    34   ar
    34    25    35   ar
    35    35    36    1
    36    35    37   ar
    37    20    38   ar
    38    38    39   ar
    39    12    40   ar
    40    40     9   ar
    41    39    13   ar
    42    38    16   ar
    43    37    22   ar
    44    34    28   ar
    45     1    41    1
    46     1    42    1
    47     1    43    1
    48     5    44    1
    49     5    45    1
    50     6    46    1
    51     6    47    1
    52     7    48    1
    53     8    49    1
    54     8    50    1
    55    10    51    1
    56    11    52    1
    57    14    53    1
    58    15    54    1
    59    18    55    1
    60    21    56    1
    61    23    57    1
    62    24    58    1
    63    27    59    1
    64    27    60    1
    65    29    61    1
    66    30    62    1
    67    31    63    1
    68    34    64    1
    69    37    65    1
    70    39    66    1
