
     RDKit          3D

 66 70  0  0  0  0  0  0  0  0999 V2000
   10.0703   -0.1120   -0.8558 C   0  0  0  0  0  0  0  0  0  0  0  0
    9.5338    1.5613   -1.0883 S   0  0  0  0  0  6  0  0  0  0  0  0
   10.1041    2.0625   -2.3795 O   0  0  0  0  0  0  0  0  0  0  0  0
   10.0337    2.4165    0.0344 O   0  0  0  0  0  0  0  0  0  0  0  0
    7.7565    1.6624   -1.0961 C   0  0  0  0  0  0  0  0  0  0  0  0
    7.1811    1.1689    0.2163 C   0  0  0  0  0  0  0  0  0  0  0  0
    7.5275   -0.1844    0.5048 N   0  0  0  0  0  0  0  0  0  0  0  0
    6.9408   -1.1763   -0.3476 C   0  0  0  0  0  0  0  0  0  0  0  0
    5.4484   -1.1089   -0.1859 C   0  0  0  0  0  0  0  0  0  0  0  0
    4.5714   -0.3418   -0.9168 C   0  0  0  0  0  0  0  0  0  0  0  0
    3.3193   -0.5890   -0.4381 C   0  0  0  0  0  0  0  0  0  0  0  0
    3.4486   -1.5043    0.5798 C   0  0  0  0  0  0  0  0  0  0  0  0
    2.3621   -2.0582    1.3801 C   0  0  0  0  0  0  0  0  0  0  0  0
    2.5679   -2.9648    2.3853 C   0  0  0  0  0  0  0  0  0  0  0  0
    1.5419   -3.4941    3.1375 C   0  0  0  0  0  0  0  0  0  0  0  0
    0.2426   -3.1165    2.8947 C   0  0  0  0  0  0  0  0  0  0  0  0
   -0.7964   -3.5947    3.5879 N   0  0  0  0  0  0  0  0  0  0  0  0
   -2.0634   -3.2203    3.3415 C   0  0  0  0  0  0  0  0  0  0  0  0
   -2.2901   -2.3371    2.3674 N   0  0  0  0  0  0  0  0  0  0  0  0
   -1.3228   -1.7937    1.6104 C   0  0  0  0  0  0  0  0  0  0  0  0
   -1.5750   -0.8657    0.5888 N   0  0  0  0  0  0  0  0  0  0  0  0
   -2.8917   -0.3781    0.3786 C   0  0  0  0  0  0  0  0  0  0  0  0
   -3.2955   -0.0075   -0.8982 C   0  0  0  0  0  0  0  0  0  0  0  0
   -4.5531    0.4932   -1.1394 C   0  0  0  0  0  0  0  0  0  0  0  0
   -5.4614    0.6456   -0.1182 C   0  0  0  0  0  0  0  0  0  0  0  0
   -6.7389    1.1424   -0.3006 O   0  0  0  0  0  0  0  0  0  0  0  0
   -7.1905    1.5345   -1.5987 C   0  0  0  0  0  0  0  0  0  0  0  0
   -8.5873    2.0333   -1.5334 C   0  0  0  0  0  0  0  0  0  0  0  0
   -9.6401    1.1647   -1.6962 C   0  0  0  0  0  0  0  0  0  0  0  0
  -10.9455    1.6078   -1.6386 C   0  0  0  0  0  0  0  0  0  0  0  0
  -11.1607    2.9549   -1.4115 C   0  0  0  0  0  0  0  0  0  0  0  0
  -10.1278    3.8310   -1.2477 C   0  0  0  0  0  0  0  0  0  0  0  0
  -10.3839    5.1567   -1.0237 F   0  0  0  0  0  0  0  0  0  0  0  0
   -8.8354    3.3655   -1.3094 C   0  0  0  0  0  0  0  0  0  0  0  0
   -5.0629    0.2788    1.1487 C   0  0  0  0  0  0  0  0  0  0  0  0
   -6.1780    0.4523    2.4771 Cl  0  0  0  0  0  0  0  0  0  0  0  0
   -3.7769   -0.2331    1.3978 C   0  0  0  0  0  0  0  0  0  0  0  0
   -0.0149   -2.1885    1.8739 C   0  0  0  0  0  0  0  0  0  0  0  0
    1.0334   -1.6772    1.1388 C   0  0  0  0  0  0  0  0  0  0  0  0
    4.7214   -1.7709    0.6805 O   0  0  0  0  0  0  0  0  0  0  0  0
    9.8633   -0.4033    0.1737 H   0  0  0  0  0  0  0  0  0  0  0  0
   11.1591   -0.1676   -1.1028 H   0  0  0  0  0  0  0  0  0  0  0  0
    9.5441   -0.7200   -1.6319 H   0  0  0  0  0  0  0  0  0  0  0  0
    7.3321    1.0526   -1.9005 H   0  0  0  0  0  0  0  0  0  0  0  0
    7.4308    2.7106   -1.2195 H   0  0  0  0  0  0  0  0  0  0  0  0
    7.5327    1.7909    1.0752 H   0  0  0  0  0  0  0  0  0  0  0  0
    6.0822    1.2768    0.1445 H   0  0  0  0  0  0  0  0  0  0  0  0
    7.4613   -0.3918    1.5077 H   0  0  0  0  0  0  0  0  0  0  0  0
    7.2297   -2.1829    0.0311 H   0  0  0  0  0  0  0  0  0  0  0  0
    7.1831   -1.0214   -1.3976 H   0  0  0  0  0  0  0  0  0  0  0  0
    4.8348    0.3447   -1.7352 H   0  0  0  0  0  0  0  0  0  0  0  0
    2.3975   -0.1344   -0.8076 H   0  0  0  0  0  0  0  0  0  0  0  0
    3.5881   -3.2706    2.5894 H   0  0  0  0  0  0  0  0  0  0  0  0
    1.7034   -4.2109    3.9314 H   0  0  0  0  0  0  0  0  0  0  0  0
   -2.8471   -3.6296    3.9213 H   0  0  0  0  0  0  0  0  0  0  0  0
   -0.8379   -0.4907   -0.0615 H   0  0  0  0  0  0  0  0  0  0  0  0
   -2.6237   -0.1095   -1.7172 H   0  0  0  0  0  0  0  0  0  0  0  0
   -4.8832    0.7895   -2.1353 H   0  0  0  0  0  0  0  0  0  0  0  0
   -6.5120    2.3400   -1.9184 H   0  0  0  0  0  0  0  0  0  0  0  0
   -7.0876    0.7027   -2.3161 H   0  0  0  0  0  0  0  0  0  0  0  0
   -9.4515    0.0941   -1.8749 H   0  0  0  0  0  0  0  0  0  0  0  0
  -11.7741    0.9233   -1.7675 H   0  0  0  0  0  0  0  0  0  0  0  0
  -12.1992    3.2741   -1.3710 H   0  0  0  0  0  0  0  0  0  0  0  0
   -8.0044    4.0675   -1.1797 H   0  0  0  0  0  0  0  0  0  0  0  0
   -3.5426   -0.4813    2.4320 H   0  0  0  0  0  0  0  0  0  0  0  0
    0.9082   -0.9680    0.3510 H   0  0  0  0  0  0  0  0  0  0  0  0
  1  2  1  0
  2  3  2  0
  2  4  2  0
  2  5  1  0
  5  6  1  0
  6  7  1  0
  7  8  1  0
  8  9  1  0
  9 10  2  0
 10 11  1  0
 11 12  2  0
 12 13  1  0
 13 14  2  0
 14 15  1  0
 15 16  2  0
 16 17  1  0
 17 18  2  0
 18 19  1  0
 19 20  2  0
 20 21  1  0
 21 22  1  0
 22 23  2  0
 23 24  1  0
 24 25  2  0
 25 26  1  0
 26 27  1  0
 27 28  1  0
 28 29  2  0
 29 30  1  0
 30 31  2  0
 31 32  1  0
 32 33  1  0
 32 34  2  0
 25 35  1  0
 35 36  1  0
 35 37  2  0
 20 38  1  0
 38 39  2  0
 12 40  1  0
 40  9  1  0
 39 13  1  0
 38 16  1  0
 37 22  1  0
 34 28  1  0
  1 41  1  0
  1 42  1  0
  1 43  1  0
  5 44  1  0
  5 45  1  0
  6 46  1  0
  6 47  1  0
  7 48  1  0
  8 49  1  0
  8 50  1  0
 10 51  1  0
 11 52  1  0
 14 53  1  0
 15 54  1  0
 18 55  1  0
 21 56  1  0
 23 57  1  0
 24 58  1  0
 27 59  1  0
 27 60  1  0
 29 61  1  0
 30 62  1  0
 31 63  1  0
 34 64  1  0
 37 65  1  0
 39 66  1  0
M  END
$$$$
