
     RDKit          3D

 51 53  0  0  0  0  0  0  0  0999 V2000
   -2.7881    3.8519    2.7540 C   0  0  0  0  0  0  0  0  0  0  0  0
   -2.6975    3.3833    1.3342 C   0  0  0  0  0  0  0  0  0  0  0  0
   -3.5960    3.9171    0.4459 C   0  0  0  0  0  0  0  0  0  0  0  0
   -3.5762    3.5401   -0.8729 C   0  0  0  0  0  0  0  0  0  0  0  0
   -2.6326    2.6137   -1.2786 C   0  0  0  0  0  0  0  0  0  0  0  0
   -1.7407    2.0860   -0.3844 C   0  0  0  0  0  0  0  0  0  0  0  0
   -0.7632    1.0964   -0.8163 C   0  0  0  0  0  0  0  0  0  0  0  0
    0.5795    1.2883   -0.4919 C   0  0  0  0  0  0  0  0  0  0  0  0
    1.2872    0.2469   -1.0195 C   0  0  0  0  0  0  0  0  0  0  0  0
    2.7669    0.0703   -0.8976 C   0  0  0  0  0  0  0  0  0  0  0  0
    2.9900   -0.6536    0.2454 O   0  0  0  0  0  0  0  0  0  0  0  0
    4.2979   -0.9314    0.5455 C   0  0  0  0  0  0  0  0  0  0  0  0
    4.2740   -1.7291    1.8599 C   0  0  0  0  0  0  0  0  0  0  0  0
    5.1711    0.2693    0.7178 C   0  0  0  0  0  0  0  0  0  0  0  0
    4.9585   -1.8307   -0.4502 C   0  0  0  0  0  0  0  0  0  0  0  0
    4.4133   -2.3052   -1.4548 O   0  0  0  0  0  0  0  0  0  0  0  0
    6.2927   -2.1503   -0.2149 O   0  0  0  0  0  0  0  0  0  0  0  0
    0.4024   -0.5333   -1.6322 N   0  0  0  0  0  0  0  0  0  0  0  0
   -0.8539   -0.0209   -1.5108 N   0  0  0  0  0  0  0  0  0  0  0  0
   -2.0292   -0.6809   -2.0202 C   0  0  0  0  0  0  0  0  0  0  0  0
   -2.5336   -1.7926   -1.1926 C   0  0  0  0  0  0  0  0  0  0  0  0
   -2.1060   -3.0798   -1.5634 C   0  0  0  0  0  0  0  0  0  0  0  0
   -2.4704   -4.2022   -0.8581 C   0  0  0  0  0  0  0  0  0  0  0  0
   -3.2769   -4.1181    0.2526 C   0  0  0  0  0  0  0  0  0  0  0  0
   -3.7056   -2.8657    0.6297 C   0  0  0  0  0  0  0  0  0  0  0  0
   -3.3277   -1.7272   -0.0985 C   0  0  0  0  0  0  0  0  0  0  0  0
   -3.9748   -0.2119    0.4535 Cl  0  0  0  0  0  0  0  0  0  0  0  0
   -1.7546    2.4635    0.9521 C   0  0  0  0  0  0  0  0  0  0  0  0
   -3.8485    3.6843    3.0545 H   0  0  0  0  0  0  0  0  0  0  0  0
   -2.5136    4.9179    2.7845 H   0  0  0  0  0  0  0  0  0  0  0  0
   -2.1695    3.2039    3.3964 H   0  0  0  0  0  0  0  0  0  0  0  0
   -4.3314    4.6402    0.7713 H   0  0  0  0  0  0  0  0  0  0  0  0
   -4.2719    3.9401   -1.6091 H   0  0  0  0  0  0  0  0  0  0  0  0
   -2.6597    2.3688   -2.3417 H   0  0  0  0  0  0  0  0  0  0  0  0
    0.9873    2.1177    0.0782 H   0  0  0  0  0  0  0  0  0  0  0  0
    3.1811   -0.3703   -1.8236 H   0  0  0  0  0  0  0  0  0  0  0  0
    3.2710    1.0507   -0.7783 H   0  0  0  0  0  0  0  0  0  0  0  0
    3.7547   -2.6721    1.6275 H   0  0  0  0  0  0  0  0  0  0  0  0
    3.6933   -1.1076    2.5967 H   0  0  0  0  0  0  0  0  0  0  0  0
    5.3211   -1.8505    2.1766 H   0  0  0  0  0  0  0  0  0  0  0  0
    6.0832   -0.0740    1.2885 H   0  0  0  0  0  0  0  0  0  0  0  0
    4.7282    1.0776    1.3085 H   0  0  0  0  0  0  0  0  0  0  0  0
    5.5797    0.6195   -0.2626 H   0  0  0  0  0  0  0  0  0  0  0  0
    6.8988   -2.5625   -0.9009 H   0  0  0  0  0  0  0  0  0  0  0  0
   -2.8577    0.0814   -2.1320 H   0  0  0  0  0  0  0  0  0  0  0  0
   -1.8688   -1.0255   -3.0785 H   0  0  0  0  0  0  0  0  0  0  0  0
   -1.4763   -3.1473   -2.4307 H   0  0  0  0  0  0  0  0  0  0  0  0
   -2.1344   -5.1851   -1.1535 H   0  0  0  0  0  0  0  0  0  0  0  0
   -3.5824   -4.9767    0.8305 H   0  0  0  0  0  0  0  0  0  0  0  0
   -4.3431   -2.7702    1.5020 H   0  0  0  0  0  0  0  0  0  0  0  0
   -1.0480    2.0460    1.6621 H   0  0  0  0  0  0  0  0  0  0  0  0
  1  2  1  0
  2  3  2  0
  3  4  1  0
  4  5  2  0
  5  6  1  0
  6  7  1  0
  7  8  2  0
  8  9  1  0
  9 10  1  0
 10 11  1  0
 11 12  1  0
 12 13  1  0
 12 14  1  0
 12 15  1  0
 15 16  2  0
 15 17  1  0
  9 18  2  0
 18 19  1  0
 19 20  1  0
 20 21  1  0
 21 22  2  0
 22 23  1  0
 23 24  2  0
 24 25  1  0
 25 26  2  0
 26 27  1  0
  6 28  2  0
 28  2  1  0
 19  7  1  0
 26 21  1  0
  1 29  1  0
  1 30  1  0
  1 31  1  0
  3 32  1  0
  4 33  1  0
  5 34  1  0
  8 35  1  0
 10 36  1  0
 10 37  1  0
 13 38  1  0
 13 39  1  0
 13 40  1  0
 14 41  1  0
 14 42  1  0
 14 43  1  0
 17 44  1  0
 20 45  1  0
 20 46  1  0
 22 47  1  0
 23 48  1  0
 24 49  1  0
 25 50  1  0
 28 51  1  0
M  END
$$$$
