@<TRIPOS>MOLECULE
*****
 51 53 0 0 0
SMALL
GASTEIGER

@<TRIPOS>ATOM
      1 C          -2.7881    3.8519    2.7540 C.3     1  UNL1       -0.0397
      2 C          -2.6975    3.3833    1.3342 C.ar    1  UNL1       -0.0498
      3 C          -3.5960    3.9171    0.4459 C.ar    1  UNL1       -0.0588
      4 C          -3.5762    3.5401   -0.8729 C.ar    1  UNL1       -0.0609
      5 C          -2.6326    2.6137   -1.2786 C.ar    1  UNL1       -0.0526
      6 C          -1.7407    2.0860   -0.3844 C.ar    1  UNL1        0.0003
      7 C          -0.7632    1.0964   -0.8163 C.ar    1  UNL1        0.0696
      8 C           0.5795    1.2883   -0.4919 C.ar    1  UNL1       -0.0108
      9 C           1.2872    0.2469   -1.0195 C.ar    1  UNL1        0.0892
     10 C           2.7669    0.0703   -0.8976 C.3     1  UNL1        0.0928
     11 O           2.9900   -0.6536    0.2454 O.3     1  UNL1       -0.3566
     12 C           4.2979   -0.9314    0.5455 C.3     1  UNL1        0.1602
     13 C           4.2740   -1.7291    1.8599 C.3     1  UNL1       -0.0256
     14 C           5.1711    0.2693    0.7178 C.3     1  UNL1       -0.0256
     15 C           4.9585   -1.8307   -0.4502 C.2     1  UNL1        0.3365
     16 O           4.4133   -2.3052   -1.4548 O.2     1  UNL1       -0.2478
     17 O           6.2927   -2.1503   -0.2149 O.3     1  UNL1       -0.4786
     18 N           0.4024   -0.5333   -1.6322 N.ar    1  UNL1       -0.1730
     19 N          -0.8539   -0.0209   -1.5108 N.ar    1  UNL1       -0.2590
     20 C          -2.0292   -0.6809   -2.0202 C.3     1  UNL1        0.0685
     21 C          -2.5336   -1.7926   -1.1926 C.ar    1  UNL1       -0.0078
     22 C          -2.1060   -3.0798   -1.5634 C.ar    1  UNL1       -0.0554
     23 C          -2.4704   -4.2022   -0.8581 C.ar    1  UNL1       -0.0614
     24 C          -3.2769   -4.1181    0.2526 C.ar    1  UNL1       -0.0604
     25 C          -3.7056   -2.8657    0.6297 C.ar    1  UNL1       -0.0431
     26 C          -3.3277   -1.7272   -0.0985 C.ar    1  UNL1        0.0459
     27 CL         -3.9748   -0.2119    0.4535 Cl      1  UNL1       -0.0832
     28 C          -1.7546    2.4635    0.9521 C.ar    1  UNL1       -0.0497
     29 H          -3.8485    3.6843    3.0545 H       1  UNL1        0.0278
     30 H          -2.5136    4.9179    2.7845 H       1  UNL1        0.0278
     31 H          -2.1695    3.2039    3.3964 H       1  UNL1        0.0278
     32 H          -4.3314    4.6402    0.7713 H       1  UNL1        0.0620
     33 H          -4.2719    3.9401   -1.6091 H       1  UNL1        0.0618
     34 H          -2.6597    2.3688   -2.3417 H       1  UNL1        0.0624
     35 H           0.9873    2.1177    0.0782 H       1  UNL1        0.0658
     36 H           3.1811   -0.3703   -1.8236 H       1  UNL1        0.0626
     37 H           3.2710    1.0507   -0.7783 H       1  UNL1        0.0626
     38 H           3.7547   -2.6721    1.6275 H       1  UNL1        0.0263
     39 H           3.6933   -1.1076    2.5967 H       1  UNL1        0.0263
     40 H           5.3211   -1.8505    2.1766 H       1  UNL1        0.0263
     41 H           6.0832   -0.0740    1.2885 H       1  UNL1        0.0263
     42 H           4.7282    1.0776    1.3085 H       1  UNL1        0.0263
     43 H           5.5797    0.6195   -0.2626 H       1  UNL1        0.0263
     44 H           6.8988   -2.5625   -0.9009 H       1  UNL1        0.2951
     45 H          -2.8577    0.0814   -2.1320 H       1  UNL1        0.0559
     46 H          -1.8688   -1.0255   -3.0785 H       1  UNL1        0.0559
     47 H          -1.4763   -3.1473   -2.4307 H       1  UNL1        0.0621
     48 H          -2.1344   -5.1851   -1.1535 H       1  UNL1        0.0618
     49 H          -3.5824   -4.9767    0.8305 H       1  UNL1        0.0618
     50 H          -4.3431   -2.7702    1.5020 H       1  UNL1        0.0632
     51 H          -1.0480    2.0460    1.6621 H       1  UNL1        0.0627
@<TRIPOS>BOND
     1     1     2    1
     2     2     3   ar
     3     3     4   ar
     4     4     5   ar
     5     5     6   ar
     6     6     7    1
     7     7     8   ar
     8     8     9   ar
     9     9    10    1
    10    10    11    1
    11    11    12    1
    12    12    13    1
    13    12    14    1
    14    12    15    1
    15    15    16    2
    16    15    17    1
    17     9    18   ar
    18    18    19   ar
    19    19    20    1
    20    20    21    1
    21    21    22   ar
    22    22    23   ar
    23    23    24   ar
    24    24    25   ar
    25    25    26   ar
    26    26    27    1
    27     6    28   ar
    28    28     2   ar
    29    19     7   ar
    30    26    21   ar
    31     1    29    1
    32     1    30    1
    33     1    31    1
    34     3    32    1
    35     4    33    1
    36     5    34    1
    37     8    35    1
    38    10    36    1
    39    10    37    1
    40    13    38    1
    41    13    39    1
    42    13    40    1
    43    14    41    1
    44    14    42    1
    45    14    43    1
    46    17    44    1
    47    20    45    1
    48    20    46    1
    49    22    47    1
    50    23    48    1
    51    24    49    1
    52    25    50    1
    53    28    51    1
