@<TRIPOS>MOLECULE
*****
 65 68 0 0 0
SMALL
GASTEIGER

@<TRIPOS>ATOM
      1 C          -5.2886    4.0574    0.3996 C.3     1  UNL1       -0.0652
      2 C          -3.9860    3.6789   -0.2605 C.3     1  UNL1       -0.0545
      3 C          -2.8427    3.7825    0.7256 C.3     1  UNL1       -0.0376
      4 C          -3.0034    2.8875    1.9045 C.3     1  UNL1        0.0118
      5 N          -3.0735    1.5223    1.4931 N.pl3   1  UNL1       -0.3134
      6 C          -1.9300    0.9073    0.8915 C.ar    1  UNL1        0.2169
      7 N          -0.7710    1.5662    0.7425 N.ar    1  UNL1       -0.2222
      8 C           0.3202    1.0615    0.1984 C.ar    1  UNL1        0.0436
      9 C           0.3168   -0.2626   -0.2759 C.ar    1  UNL1        0.0584
     10 C           1.5113   -0.8090   -0.8916 C.ar    1  UNL1        0.0807
     11 C           2.6869   -0.0532   -0.9894 C.ar    1  UNL1        0.0046
     12 C           3.8327   -0.5700   -1.5692 C.ar    1  UNL1        0.1267
     13 N           5.0329    0.1796   -1.6813 N.pl3   1  UNL1       -0.2992
     14 C           5.0907    1.5340   -1.3175 C.ar    1  UNL1        0.0388
     15 C           4.2112    2.4927   -1.7308 C.ar    1  UNL1       -0.0401
     16 C           4.3254    3.8081   -1.3060 C.ar    1  UNL1       -0.0536
     17 C           5.3495    4.1637   -0.4462 C.ar    1  UNL1        0.0157
     18 C           6.2519    3.2091   -0.0158 C.ar    1  UNL1        0.2749
     19 N           7.2960    3.5939    0.8669 N.pl3   1  UNL1        0.0797
     20 O           8.1108    2.7108    1.2520 O.2     1  UNL1        0.0414
     21 O           7.4242    4.8805    1.2950 O.co2   1  UNL1       -0.5760
     22 C           6.1200    1.9163   -0.4477 C.ar    1  UNL1        0.0367
     23 N           3.7791   -1.8327   -2.0381 N.ar    1  UNL1       -0.2206
     24 C           2.6741   -2.5792   -1.9592 C.ar    1  UNL1        0.1187
     25 N           1.5965   -2.0264   -1.3890 N.ar    1  UNL1       -0.2351
     26 C          -0.8722   -0.9226   -0.1168 C.ar    1  UNL1        0.1333
     27 N          -0.9909   -2.2804   -0.5472 N.pl3   1  UNL1       -0.3256
     28 C          -2.2728   -2.9654   -0.3639 C.3     1  UNL1        0.0221
     29 C          -2.1287   -4.3779   -0.8744 C.3     1  UNL1       -0.0322
     30 C          -1.3722   -5.1952    0.1515 C.3     1  UNL1       -0.0252
     31 C          -2.2642   -5.3733    1.3551 C.3     1  UNL1        0.0554
     32 O          -2.7897   -6.6532    1.3135 O.3     1  UNL1       -0.3918
     33 C          -3.3434   -4.3050    1.3844 C.3     1  UNL1       -0.0252
     34 C          -2.6983   -2.9745    1.0668 C.3     1  UNL1       -0.0322
     35 N          -1.9620   -0.3475    0.4517 N.ar    1  UNL1       -0.1991
     36 H          -5.2100    5.0960    0.7585 H       1  UNL1        0.0230
     37 H          -6.0812    3.9616   -0.3977 H       1  UNL1        0.0230
     38 H          -5.5817    3.3442    1.1808 H       1  UNL1        0.0230
     39 H          -3.7850    4.4155   -1.0684 H       1  UNL1        0.0263
     40 H          -4.0940    2.6400   -0.6310 H       1  UNL1        0.0263
     41 H          -1.9237    3.5084    0.1808 H       1  UNL1        0.0280
     42 H          -2.7465    4.8499    1.0287 H       1  UNL1        0.0280
     43 H          -3.8290    3.1856    2.5828 H       1  UNL1        0.0462
     44 H          -2.0519    2.9806    2.5078 H       1  UNL1        0.0462
     45 H          -3.9360    0.9664    1.6204 H       1  UNL1        0.1489
     46 H           1.2052    1.6723    0.1230 H       1  UNL1        0.0838
     47 H           2.7371    0.9381   -0.6051 H       1  UNL1        0.0673
     48 H           5.8954   -0.3034   -2.0501 H       1  UNL1        0.1536
     49 H           3.4068    2.2446   -2.4156 H       1  UNL1        0.0636
     50 H           3.6089    4.5287   -1.6585 H       1  UNL1        0.0620
     51 H           5.4285    5.1936   -0.1213 H       1  UNL1        0.0685
     52 H           6.8281    1.1955   -0.1023 H       1  UNL1        0.0704
     53 H           2.7012   -3.5806   -2.3534 H       1  UNL1        0.1048
     54 H          -0.2182   -2.7762   -0.9681 H       1  UNL1        0.1478
     55 H          -3.0292   -2.3893   -0.9616 H       1  UNL1        0.0498
     56 H          -1.5396   -4.3120   -1.8344 H       1  UNL1        0.0284
     57 H          -3.1317   -4.7968   -1.0821 H       1  UNL1        0.0284
     58 H          -0.4376   -4.6423    0.4065 H       1  UNL1        0.0291
     59 H          -1.0232   -6.1625   -0.2849 H       1  UNL1        0.0291
     60 H          -1.6527   -5.2649    2.2864 H       1  UNL1        0.0593
     61 H          -2.6683   -7.0984    0.4440 H       1  UNL1        0.2098
     62 H          -3.8086   -4.2992    2.3991 H       1  UNL1        0.0291
     63 H          -4.1375   -4.5190    0.6441 H       1  UNL1        0.0291
     64 H          -1.8533   -2.8601    1.7828 H       1  UNL1        0.0284
     65 H          -3.4130   -2.1410    1.3176 H       1  UNL1        0.0284
@<TRIPOS>UNITY_ATOM_ATTR
19 1
charge 1
21 1
charge -1
@<TRIPOS>BOND
     1     1     2    1
     2     2     3    1
     3     3     4    1
     4     4     5    1
     5     5     6    1
     6     6     7   ar
     7     7     8   ar
     8     8     9   ar
     9     9    10    1
    10    10    11   ar
    11    11    12   ar
    12    12    13    1
    13    13    14    1
    14    14    15   ar
    15    15    16   ar
    16    16    17   ar
    17    17    18   ar
    18    18    19    1
    19    19    20    2
    20    19    21    1
    21    18    22   ar
    22    12    23   ar
    23    23    24   ar
    24    24    25   ar
    25     9    26   ar
    26    26    27    1
    27    27    28    1
    28    28    29    1
    29    29    30    1
    30    30    31    1
    31    31    32    1
    32    31    33    1
    33    33    34    1
    34    26    35   ar
    35    35     6   ar
    36    25    10   ar
    37    34    28    1
    38    22    14   ar
    39     1    36    1
    40     1    37    1
    41     1    38    1
    42     2    39    1
    43     2    40    1
    44     3    41    1
    45     3    42    1
    46     4    43    1
    47     4    44    1
    48     5    45    1
    49     8    46    1
    50    11    47    1
    51    13    48    1
    52    15    49    1
    53    16    50    1
    54    17    51    1
    55    22    52    1
    56    24    53    1
    57    27    54    1
    58    28    55    1
    59    29    56    1
    60    29    57    1
    61    30    58    1
    62    30    59    1
    63    31    60    1
    64    32    61    1
    65    33    62    1
    66    33    63    1
    67    34    64    1
    68    34    65    1
