
     RDKit          3D

 74 78  0  0  0  0  0  0  0  0999 V2000
   -5.0516   -3.4042   -0.8401 C   0  0  0  0  0  0  0  0  0  0  0  0
   -5.6891   -2.0600   -1.0567 C   0  0  0  0  0  0  0  0  0  0  0  0
   -6.8671   -1.6602   -0.6652 O   0  0  0  0  0  0  0  0  0  0  0  0
   -7.1151   -0.4265   -1.0197 C   0  0  0  0  0  0  0  0  0  0  0  0
   -8.3076    0.3715   -0.7718 C   0  0  0  0  0  0  0  0  0  0  0  0
   -8.4374    1.6699   -1.2128 C   0  0  0  0  0  0  0  0  0  0  0  0
   -9.5552    2.4383   -0.9825 C   0  0  0  0  0  0  0  0  0  0  0  0
  -10.5993    1.8875   -0.2768 C   0  0  0  0  0  0  0  0  0  0  0  0
  -10.5072    0.5948    0.1798 C   0  0  0  0  0  0  0  0  0  0  0  0
   -9.3658   -0.1618   -0.0662 C   0  0  0  0  0  0  0  0  0  0  0  0
   -6.0101   -0.0115   -1.6874 N   0  0  0  0  0  0  0  0  0  0  0  0
   -5.1074   -1.0054   -1.7257 C   0  0  0  0  0  0  0  0  0  0  0  0
   -3.7495   -0.9358   -2.3662 C   0  0  0  0  0  0  0  0  0  0  0  0
   -2.7797   -0.7595   -1.1909 C   0  0  0  0  0  0  0  0  0  0  0  0
   -3.1422    0.4226   -0.5451 O   0  0  0  0  0  0  0  0  0  0  0  0
   -2.4886    0.9113    0.5693 C   0  0  0  0  0  0  0  0  0  0  0  0
   -2.9942    2.1096    1.0788 C   0  0  0  0  0  0  0  0  0  0  0  0
   -2.3694    2.6309    2.1908 C   0  0  0  0  0  0  0  0  0  0  0  0
   -1.2925    1.9972    2.7746 C   0  0  0  0  0  0  0  0  0  0  0  0
   -0.7860    0.8107    2.2763 C   0  0  0  0  0  0  0  0  0  0  0  0
    0.3772    0.1387    2.9201 C   0  0  0  0  0  0  0  0  0  0  0  0
    1.6835    0.5910    2.3614 C   0  0  2  0  0  0  0  0  0  0  0  0
    1.8974    0.3577    0.9220 C   0  0  0  0  0  0  0  0  0  0  0  0
    1.3181    0.3934   -0.1861 O   0  0  0  0  0  0  0  0  0  0  0  0
    3.2385    0.0073    1.2403 N   0  0  0  0  0  0  0  0  0  0  0  0
    4.5067    0.0586    0.6107 C   0  0  0  0  0  0  0  0  0  0  0  0
    4.9651   -0.9961   -0.1415 C   0  0  0  0  0  0  0  0  0  0  0  0
    6.2116   -0.9626   -0.7696 C   0  0  0  0  0  0  0  0  0  0  0  0
    7.0258    0.1371   -0.6537 C   0  0  0  0  0  0  0  0  0  0  0  0
    8.3475    0.1742   -1.3167 C   0  0  0  0  0  0  0  0  0  0  0  0
    9.0690    1.4733   -1.0789 C   0  0  0  0  0  0  0  0  0  0  0  0
    8.1213   -0.0545   -2.7970 C   0  0  0  0  0  0  0  0  0  0  0  0
    9.2100   -0.9320   -0.7429 C   0  0  0  0  0  0  0  0  0  0  0  0
    6.5790    1.1995    0.0962 C   0  0  0  0  0  0  0  0  0  0  0  0
    5.3327    1.1568    0.7200 C   0  0  0  0  0  0  0  0  0  0  0  0
    2.7663   -0.4417    2.5376 C   0  0  2  0  0  0  0  0  0  0  0  0
    2.2722   -1.8202    2.4762 C   0  0  0  0  0  0  0  0  0  0  0  0
    1.8866   -2.4628    3.5086 O   0  0  0  0  0  0  0  0  0  0  0  0
    2.1938   -2.5119    1.2830 O   0  0  0  0  0  0  0  0  0  0  0  0
   -1.4092    0.2872    1.1642 C   0  0  0  0  0  0  0  0  0  0  0  0
   -4.1416   -3.4762   -1.4498 H   0  0  0  0  0  0  0  0  0  0  0  0
   -4.7911   -3.5288    0.2239 H   0  0  0  0  0  0  0  0  0  0  0  0
   -5.7900   -4.2225   -1.0791 H   0  0  0  0  0  0  0  0  0  0  0  0
   -7.6205    2.1004   -1.7658 H   0  0  0  0  0  0  0  0  0  0  0  0
   -9.6540    3.4595   -1.3311 H   0  0  0  0  0  0  0  0  0  0  0  0
  -11.4824    2.4834   -0.0901 H   0  0  0  0  0  0  0  0  0  0  0  0
  -11.3340    0.1861    0.7285 H   0  0  0  0  0  0  0  0  0  0  0  0
   -9.2900   -1.1832    0.2934 H   0  0  0  0  0  0  0  0  0  0  0  0
   -3.6924   -0.0041   -2.9575 H   0  0  0  0  0  0  0  0  0  0  0  0
   -3.5700   -1.8551   -2.9214 H   0  0  0  0  0  0  0  0  0  0  0  0
   -2.7883   -1.6525   -0.5287 H   0  0  0  0  0  0  0  0  0  0  0  0
   -1.7812   -0.6266   -1.6529 H   0  0  0  0  0  0  0  0  0  0  0  0
   -3.8402    2.6002    0.6142 H   0  0  0  0  0  0  0  0  0  0  0  0
   -2.7722    3.5681    2.5814 H   0  0  0  0  0  0  0  0  0  0  0  0
   -0.8204    2.4292    3.6484 H   0  0  0  0  0  0  0  0  0  0  0  0
    0.3818    0.2549    4.0211 H   0  0  0  0  0  0  0  0  0  0  0  0
    0.3085   -0.9695    2.7403 H   0  0  0  0  0  0  0  0  0  0  0  0
    1.9860    1.6288    2.6244 H   0  0  0  0  0  0  0  0  0  0  0  0
    4.3569   -1.8713   -0.2556 H   0  0  0  0  0  0  0  0  0  0  0  0
    6.5040   -1.8401   -1.3494 H   0  0  0  0  0  0  0  0  0  0  0  0
   10.0609    1.3975   -1.5823 H   0  0  0  0  0  0  0  0  0  0  0  0
    8.4880    2.3150   -1.5108 H   0  0  0  0  0  0  0  0  0  0  0  0
    9.2092    1.6656   -0.0166 H   0  0  0  0  0  0  0  0  0  0  0  0
    8.6402    0.7050   -3.4182 H   0  0  0  0  0  0  0  0  0  0  0  0
    8.4395   -1.0899   -3.0518 H   0  0  0  0  0  0  0  0  0  0  0  0
    7.0417   -0.0020   -3.0644 H   0  0  0  0  0  0  0  0  0  0  0  0
    9.2236   -1.8345   -1.3978 H   0  0  0  0  0  0  0  0  0  0  0  0
    8.8333   -1.1620    0.2834 H   0  0  0  0  0  0  0  0  0  0  0  0
   10.2456   -0.5803   -0.6385 H   0  0  0  0  0  0  0  0  0  0  0  0
    7.2083    2.0769    0.1989 H   0  0  0  0  0  0  0  0  0  0  0  0
    4.9975    2.0034    1.3066 H   0  0  0  0  0  0  0  0  0  0  0  0
    3.4748   -0.2320    3.3719 H   0  0  0  0  0  0  0  0  0  0  0  0
    1.6316   -3.3152    1.1147 H   0  0  0  0  0  0  0  0  0  0  0  0
   -1.0414   -0.6408    0.7480 H   0  0  0  0  0  0  0  0  0  0  0  0
  1  2  1  0
  2  3  1  0
  3  4  1  0
  4  5  1  0
  5  6  2  0
  6  7  1  0
  7  8  2  0
  8  9  1  0
  9 10  2  0
  4 11  2  0
 11 12  1  0
 12 13  1  0
 13 14  1  0
 14 15  1  0
 15 16  1  0
 16 17  2  0
 17 18  1  0
 18 19  2  0
 19 20  1  0
 20 21  1  0
 21 22  1  0
 22 23  1  0
 23 24  2  0
 23 25  1  0
 25 26  1  0
 26 27  2  0
 27 28  1  0
 28 29  2  0
 29 30  1  0
 30 31  1  0
 30 32  1  0
 30 33  1  0
 29 34  1  0
 34 35  2  0
 25 36  1  0
 36 37  1  0
 37 38  2  0
 37 39  1  0
 20 40  2  0
 12  2  2  0
 40 16  1  0
 10  5  1  0
 36 22  1  0
 35 26  1  0
  1 41  1  0
  1 42  1  0
  1 43  1  0
  6 44  1  0
  7 45  1  0
  8 46  1  0
  9 47  1  0
 10 48  1  0
 13 49  1  0
 13 50  1  0
 14 51  1  0
 14 52  1  0
 17 53  1  0
 18 54  1  0
 19 55  1  0
 21 56  1  0
 21 57  1  0
 22 58  1  6
 27 59  1  0
 28 60  1  0
 31 61  1  0
 31 62  1  0
 31 63  1  0
 32 64  1  0
 32 65  1  0
 32 66  1  0
 33 67  1  0
 33 68  1  0
 33 69  1  0
 34 70  1  0
 35 71  1  0
 36 72  1  1
 39 73  1  0
 40 74  1  0
M  END
$$$$
