@<TRIPOS>MOLECULE
*****
 74 78 0 0 0
SMALL
GASTEIGER

@<TRIPOS>ATOM
      1 C          -5.0516   -3.4042   -0.8401 C.3     1  UNL1       -0.0045
      2 C          -5.6891   -2.0600   -1.0567 C.ar    1  UNL1        0.1258
      3 O          -6.8671   -1.6602   -0.6652 O.2     1  UNL1       -0.4402
      4 C          -7.1151   -0.4265   -1.0197 C.ar    1  UNL1        0.2276
      5 C          -8.3076    0.3715   -0.7718 C.ar    1  UNL1        0.0369
      6 C          -8.4374    1.6699   -1.2128 C.ar    1  UNL1       -0.0495
      7 C          -9.5552    2.4383   -0.9825 C.ar    1  UNL1       -0.0610
      8 C         -10.5993    1.8875   -0.2768 C.ar    1  UNL1       -0.0617
      9 C         -10.5072    0.5948    0.1798 C.ar    1  UNL1       -0.0610
     10 C          -9.3658   -0.1618   -0.0662 C.ar    1  UNL1       -0.0495
     11 N          -6.0101   -0.0115   -1.6874 N.ar    1  UNL1       -0.2136
     12 C          -5.1074   -1.0054   -1.7257 C.ar    1  UNL1        0.0860
     13 C          -3.7495   -0.9358   -2.3662 C.3     1  UNL1        0.0272
     14 C          -2.7797   -0.7595   -1.1909 C.3     1  UNL1        0.0951
     15 O          -3.1422    0.4226   -0.5451 O.3     1  UNL1       -0.4916
     16 C          -2.4886    0.9113    0.5693 C.ar    1  UNL1        0.1208
     17 C          -2.9942    2.1096    1.0788 C.ar    1  UNL1       -0.0199
     18 C          -2.3694    2.6309    2.1908 C.ar    1  UNL1       -0.0580
     19 C          -1.2925    1.9972    2.7746 C.ar    1  UNL1       -0.0583
     20 C          -0.7860    0.8107    2.2763 C.ar    1  UNL1       -0.0431
     21 C           0.3772    0.1387    2.9201 C.3     1  UNL1       -0.0142
     22 C           1.6835    0.5910    2.3614 C.3     1  UNL1        0.0693
     23 C           1.8974    0.3577    0.9220 C.2     1  UNL1        0.2263
     24 O           1.3181    0.3934   -0.1861 O.2     1  UNL1       -0.2748
     25 N           3.2385    0.0073    1.2403 N.am    1  UNL1       -0.2566
     26 C           4.5067    0.0586    0.6107 C.ar    1  UNL1        0.0372
     27 C           4.9651   -0.9961   -0.1415 C.ar    1  UNL1       -0.0400
     28 C           6.2116   -0.9626   -0.7696 C.ar    1  UNL1       -0.0563
     29 C           7.0258    0.1371   -0.6537 C.ar    1  UNL1       -0.0419
     30 C           8.3475    0.1742   -1.3167 C.3     1  UNL1       -0.0127
     31 C           9.0690    1.4733   -1.0789 C.3     1  UNL1       -0.0560
     32 C           8.1213   -0.0545   -2.7970 C.3     1  UNL1       -0.0560
     33 C           9.2100   -0.9320   -0.7429 C.3     1  UNL1       -0.0560
     34 C           6.5790    1.1995    0.0962 C.ar    1  UNL1       -0.0563
     35 C           5.3327    1.1568    0.7200 C.ar    1  UNL1       -0.0400
     36 C           2.7663   -0.4417    2.5376 C.3     1  UNL1        0.1388
     37 C           2.2722   -1.8202    2.4762 C.2     1  UNL1        0.3266
     38 O           1.8866   -2.4628    3.5086 O.2     1  UNL1       -0.2489
     39 O           2.1938   -2.5119    1.2830 O.3     1  UNL1       -0.4793
     40 C          -1.4092    0.2872    1.1642 C.ar    1  UNL1       -0.0167
     41 H          -4.1416   -3.4762   -1.4498 H       1  UNL1        0.0308
     42 H          -4.7911   -3.5288    0.2239 H       1  UNL1        0.0308
     43 H          -5.7900   -4.2225   -1.0791 H       1  UNL1        0.0308
     44 H          -7.6205    2.1004   -1.7658 H       1  UNL1        0.0625
     45 H          -9.6540    3.4595   -1.3311 H       1  UNL1        0.0618
     46 H         -11.4824    2.4834   -0.0901 H       1  UNL1        0.0618
     47 H         -11.3340    0.1861    0.7285 H       1  UNL1        0.0618
     48 H          -9.2900   -1.1832    0.2934 H       1  UNL1        0.0625
     49 H          -3.6924   -0.0041   -2.9575 H       1  UNL1        0.0362
     50 H          -3.5700   -1.8551   -2.9214 H       1  UNL1        0.0362
     51 H          -2.7883   -1.6525   -0.5287 H       1  UNL1        0.0700
     52 H          -1.7812   -0.6266   -1.6529 H       1  UNL1        0.0700
     53 H          -3.8402    2.6002    0.6142 H       1  UNL1        0.0654
     54 H          -2.7722    3.5681    2.5814 H       1  UNL1        0.0619
     55 H          -0.8204    2.4292    3.6484 H       1  UNL1        0.0620
     56 H           0.3818    0.2549    4.0211 H       1  UNL1        0.0321
     57 H           0.3085   -0.9695    2.7403 H       1  UNL1        0.0321
     58 H           1.9860    1.6288    2.6244 H       1  UNL1        0.0421
     59 H           4.3569   -1.8713   -0.2556 H       1  UNL1        0.0636
     60 H           6.5040   -1.8401   -1.3494 H       1  UNL1        0.0621
     61 H          10.0609    1.3975   -1.5823 H       1  UNL1        0.0238
     62 H           8.4880    2.3150   -1.5108 H       1  UNL1        0.0238
     63 H           9.2092    1.6656   -0.0166 H       1  UNL1        0.0238
     64 H           8.6402    0.7050   -3.4182 H       1  UNL1        0.0238
     65 H           8.4395   -1.0899   -3.0518 H       1  UNL1        0.0238
     66 H           7.0417   -0.0020   -3.0644 H       1  UNL1        0.0238
     67 H           9.2236   -1.8345   -1.3978 H       1  UNL1        0.0238
     68 H           8.8333   -1.1620    0.2834 H       1  UNL1        0.0238
     69 H          10.2456   -0.5803   -0.6385 H       1  UNL1        0.0238
     70 H           7.2083    2.0769    0.1989 H       1  UNL1        0.0621
     71 H           4.9975    2.0034    1.3066 H       1  UNL1        0.0636
     72 H           3.4748   -0.2320    3.3719 H       1  UNL1        0.0628
     73 H           1.6316   -3.3152    1.1147 H       1  UNL1        0.2951
     74 H          -1.0414   -0.6408    0.7480 H       1  UNL1        0.0657
@<TRIPOS>BOND
     1     1     2    1
     2     2     3   ar
     3     3     4   ar
     4     4     5    1
     5     5     6   ar
     6     6     7   ar
     7     7     8   ar
     8     8     9   ar
     9     9    10   ar
    10     4    11   ar
    11    11    12   ar
    12    12    13    1
    13    13    14    1
    14    14    15    1
    15    15    16    1
    16    16    17   ar
    17    17    18   ar
    18    18    19   ar
    19    19    20   ar
    20    20    21    1
    21    21    22    1
    22    22    23    1
    23    23    24    2
    24    23    25   am
    25    25    26    1
    26    26    27   ar
    27    27    28   ar
    28    28    29   ar
    29    29    30    1
    30    30    31    1
    31    30    32    1
    32    30    33    1
    33    29    34   ar
    34    34    35   ar
    35    25    36    1
    36    36    37    1
    37    37    38    2
    38    37    39    1
    39    20    40   ar
    40    12     2   ar
    41    40    16   ar
    42    10     5   ar
    43    36    22    1
    44    35    26   ar
    45     1    41    1
    46     1    42    1
    47     1    43    1
    48     6    44    1
    49     7    45    1
    50     8    46    1
    51     9    47    1
    52    10    48    1
    53    13    49    1
    54    13    50    1
    55    14    51    1
    56    14    52    1
    57    17    53    1
    58    18    54    1
    59    19    55    1
    60    21    56    1
    61    21    57    1
    62    22    58    1
    63    27    59    1
    64    28    60    1
    65    31    61    1
    66    31    62    1
    67    31    63    1
    68    32    64    1
    69    32    65    1
    70    32    66    1
    71    33    67    1
    72    33    68    1
    73    33    69    1
    74    34    70    1
    75    35    71    1
    76    36    72    1
    77    39    73    1
    78    40    74    1
