@<TRIPOS>MOLECULE
*****
 62 66 0 0 0
SMALL
GASTEIGER

@<TRIPOS>ATOM
      1 O           0.0761   -3.5844   -1.0040 O.2     1  UNL1       -0.2492
      2 C           0.7098   -2.5389   -0.6896 C.2     1  UNL1        0.3223
      3 OXT         2.0783   -2.5940   -0.9119 O.3     1  UNL1       -0.4795
      4 CA          0.0135   -1.3770   -0.1376 C.3     1  UNL1        0.1103
      5 C           0.6849   -0.7012    1.0165 C.3     1  UNL1       -0.0017
      6 C           2.0400   -0.1699    0.7136 C.ar    1  UNL1       -0.0418
      7 C           3.1303   -0.9433    1.0167 C.ar    1  UNL1       -0.0577
      8 C           4.3914   -0.4239    0.7067 C.ar    1  UNL1       -0.0501
      9 C           4.5101    0.8180    0.1209 C.ar    1  UNL1        0.0279
     10 C           3.4146    1.5947   -0.1828 C.ar    1  UNL1        0.1365
     11 C           2.1611    1.0678    0.1298 C.ar    1  UNL1       -0.0155
     12 O           3.8276    2.7056   -0.7227 O.2     1  UNL1       -0.4548
     13 C           5.1450    2.7535   -0.8153 C.ar    1  UNL1        0.1362
     14 C           6.0319    3.6940   -1.3012 C.ar    1  UNL1       -0.0187
     15 C           7.3790    3.4403   -1.2549 C.ar    1  UNL1       -0.0582
     16 C           7.8553    2.2601   -0.7300 C.ar    1  UNL1       -0.0610
     17 C           6.9681    1.3200   -0.2443 C.ar    1  UNL1       -0.0504
     18 C           5.6013    1.5576   -0.2820 C.ar    1  UNL1        0.0279
     19 N          -1.3864   -1.4486   -0.0175 N.3     1  UNL1       -0.2910
     20 C          -2.0586   -2.4632    0.6467 C.3     1  UNL1        0.1110
     21 C          -3.5627   -2.2404    0.5440 C.3     1  UNL1       -0.0223
     22 C          -4.0781   -0.9717    1.0855 C.3     1  UNL1       -0.0251
     23 C          -3.6230    0.2704    0.4262 C.ar    1  UNL1       -0.0396
     24 C          -2.6270    1.0731    0.9349 C.ar    1  UNL1       -0.0580
     25 C          -2.1764    2.2213    0.3317 C.ar    1  UNL1       -0.0609
     26 C          -2.7380    2.6167   -0.8543 C.ar    1  UNL1       -0.0540
     27 C          -3.7385    1.8505   -1.4053 C.ar    1  UNL1       -0.0176
     28 C          -4.3104    2.2608   -2.5979 C.ar    1  UNL1       -0.0540
     29 C          -5.3240    1.5561   -3.2069 C.ar    1  UNL1       -0.0612
     30 C          -5.7609    0.4082   -2.5819 C.ar    1  UNL1       -0.0612
     31 C          -5.1927   -0.0194   -1.3770 C.ar    1  UNL1       -0.0538
     32 C          -4.1828    0.6844   -0.7742 C.ar    1  UNL1       -0.0147
     33 P          -1.5592   -3.0053    2.2591 P.3     1  UNL1        0.3445
     34 O          -0.2441   -3.7920    2.1925 O.2     1  UNL1       -0.2572
     35 O          -1.4301   -1.8583    3.4435 O.3     1  UNL1       -0.3230
     36 O          -2.7048   -4.2057    2.7500 O.3     1  UNL1       -0.3230
     37 HXT         2.5346   -3.4712   -1.0958 H       1  UNL1        0.2951
     38 HA          0.1694   -0.5789   -0.9952 H       1  UNL1        0.0579
     39 H           0.7401   -1.3388    1.9070 H       1  UNL1        0.0334
     40 H           0.0911    0.2018    1.3363 H       1  UNL1        0.0334
     41 H           3.0563   -1.9221    1.4918 H       1  UNL1        0.0621
     42 H           5.2486   -1.0345    0.9455 H       1  UNL1        0.0625
     43 H           1.2872    1.6798   -0.1086 H       1  UNL1        0.0657
     44 H           5.6805    4.6201   -1.7138 H       1  UNL1        0.0654
     45 H           8.1199    4.1631   -1.6318 H       1  UNL1        0.0619
     46 H           8.9347    2.0929   -0.7097 H       1  UNL1        0.0618
     47 H           7.3352    0.3911    0.1690 H       1  UNL1        0.0625
     48 H          -1.8911   -1.0546   -0.8547 H       1  UNL1        0.1235
     49 H          -1.9421   -3.4181   -0.0178 H       1  UNL1        0.0586
     50 H          -3.8422   -2.3562   -0.5201 H       1  UNL1        0.0289
     51 H          -4.0779   -3.1084    1.0550 H       1  UNL1        0.0289
     52 H          -5.2078   -0.9940    1.0503 H       1  UNL1        0.0314
     53 H          -3.8702   -0.8394    2.1798 H       1  UNL1        0.0314
     54 H          -2.1756    0.7742    1.8824 H       1  UNL1        0.0620
     55 H          -1.3744    2.7985    0.8136 H       1  UNL1        0.0618
     56 H          -2.3724    3.5293   -1.3246 H       1  UNL1        0.0624
     57 H          -3.9669    3.1601   -3.0847 H       1  UNL1        0.0624
     58 H          -5.7795    1.8667   -4.1398 H       1  UNL1        0.0618
     59 H          -6.5545   -0.1669   -3.0332 H       1  UNL1        0.0618
     60 H          -5.5862   -0.9140   -0.9330 H       1  UNL1        0.0624
     61 H          -1.2667   -0.9751    3.1139 H       1  UNL1        0.2198
     62 H          -2.6114   -4.9213    2.0440 H       1  UNL1        0.2198
@<TRIPOS>BOND
     1     1     2    2
     2     2     3    1
     3     2     4    1
     4     4     5    1
     5     5     6    1
     6     6     7   ar
     7     7     8   ar
     8     8     9   ar
     9     9    10   ar
    10    10    11   ar
    11    10    12   ar
    12    12    13   ar
    13    13    14   ar
    14    14    15   ar
    15    15    16   ar
    16    16    17   ar
    17    17    18   ar
    18     4    19    1
    19    19    20    1
    20    20    21    1
    21    21    22    1
    22    22    23    1
    23    23    24   ar
    24    24    25   ar
    25    25    26   ar
    26    26    27   ar
    27    27    28   ar
    28    28    29   ar
    29    29    30   ar
    30    30    31   ar
    31    31    32   ar
    32    20    33    1
    33    33    34    2
    34    33    35    1
    35    33    36    1
    36    11     6   ar
    37    18    13   ar
    38    32    23   ar
    39    18     9   ar
    40    32    27   ar
    41     3    37    1
    42     4    38    1
    43     5    39    1
    44     5    40    1
    45     7    41    1
    46     8    42    1
    47    11    43    1
    48    14    44    1
    49    15    45    1
    50    16    46    1
    51    17    47    1
    52    19    48    1
    53    20    49    1
    54    21    50    1
    55    21    51    1
    56    22    52    1
    57    22    53    1
    58    24    54    1
    59    25    55    1
    60    26    56    1
    61    28    57    1
    62    29    58    1
    63    30    59    1
    64    31    60    1
    65    35    61    1
    66    36    62    1
