@<TRIPOS>MOLECULE
*****
 37 38 0 0 0
SMALL
GASTEIGER

@<TRIPOS>ATOM
      1 C           7.1365   -0.1175    0.0049 C.3     1  UNL1       -0.0653
      2 C           5.8122   -0.5751    0.5634 C.3     1  UNL1       -0.0559
      3 C           4.6955    0.1211   -0.2222 C.3     1  UNL1       -0.0532
      4 C           3.3441   -0.3239    0.3222 C.3     1  UNL1       -0.0500
      5 C           2.2780    0.3870   -0.4816 C.3     1  UNL1       -0.0186
      6 C           0.8910    0.0161   -0.0227 C.3     1  UNL1        0.0912
      7 O          -0.0506    0.7022   -0.8002 O.3     1  UNL1       -0.4764
      8 C          -1.4232    0.5167   -0.5567 C.ar    1  UNL1        0.2148
      9 C          -2.3765    1.1765   -1.3035 C.ar    1  UNL1        0.0019
     10 C          -3.7363    1.0194   -1.0933 C.ar    1  UNL1       -0.0313
     11 C          -4.1452    0.1716   -0.1007 C.ar    1  UNL1        0.0658
     12 N          -5.5233   -0.0425    0.1761 N.ar    1  UNL1       -0.3044
     13 C          -6.3158    0.6746    0.9911 C.ar    1  UNL1        0.0293
     14 C          -7.5985    0.1364    0.9841 C.ar    1  UNL1        0.0458
     15 N          -7.5478   -0.9153    0.1469 N.ar    1  UNL1       -0.2437
     16 C          -6.2857   -1.0215   -0.3425 C.ar    1  UNL1        0.1004
     17 C          -3.1709   -0.4842    0.6410 C.ar    1  UNL1        0.0552
     18 N          -1.8568   -0.3089    0.4106 N.ar    1  UNL1       -0.2193
     19 H           6.9729    0.2182   -1.0399 H       1  UNL1        0.0230
     20 H           7.8075   -1.0085   -0.0333 H       1  UNL1        0.0230
     21 H           7.5810    0.6849    0.6142 H       1  UNL1        0.0230
     22 H           5.7424   -0.1786    1.6024 H       1  UNL1        0.0263
     23 H           5.7096   -1.6578    0.5026 H       1  UNL1        0.0263
     24 H           4.7800    1.2172   -0.1344 H       1  UNL1        0.0265
     25 H           4.7969   -0.1733   -1.2866 H       1  UNL1        0.0265
     26 H           3.2375   -1.4179    0.2921 H       1  UNL1        0.0266
     27 H           3.2777   -0.0137    1.3842 H       1  UNL1        0.0266
     28 H           2.4329    1.4795   -0.3669 H       1  UNL1        0.0298
     29 H           2.4061    0.1719   -1.5623 H       1  UNL1        0.0298
     30 H           0.8202    0.2921    1.0605 H       1  UNL1        0.0697
     31 H           0.7629   -1.0741   -0.0868 H       1  UNL1        0.0697
     32 H          -2.0521    1.8365   -2.0764 H       1  UNL1        0.0671
     33 H          -4.4860    1.5369   -1.6790 H       1  UNL1        0.0640
     34 H          -6.0097    1.5353    1.5642 H       1  UNL1        0.0829
     35 H          -8.4512    0.5131    1.5528 H       1  UNL1        0.0845
     36 H          -5.9353   -1.7761   -1.0443 H       1  UNL1        0.1032
     37 H          -3.5200   -1.1488    1.4198 H       1  UNL1        0.0852
@<TRIPOS>BOND
     1     1     2    1
     2     2     3    1
     3     3     4    1
     4     4     5    1
     5     5     6    1
     6     6     7    1
     7     7     8    1
     8     8     9   ar
     9     9    10   ar
    10    10    11   ar
    11    11    12    1
    12    12    13   ar
    13    13    14   ar
    14    14    15   ar
    15    15    16   ar
    16    11    17   ar
    17    17    18   ar
    18    18     8   ar
    19    16    12   ar
    20     1    19    1
    21     1    20    1
    22     1    21    1
    23     2    22    1
    24     2    23    1
    25     3    24    1
    26     3    25    1
    27     4    26    1
    28     4    27    1
    29     5    28    1
    30     5    29    1
    31     6    30    1
    32     6    31    1
    33     9    32    1
    34    10    33    1
    35    13    34    1
    36    14    35    1
    37    16    36    1
    38    17    37    1
