
     RDKit          3D

 37 38  0  0  0  0  0  0  0  0999 V2000
    7.1365   -0.1175    0.0049 C   0  0  0  0  0  0  0  0  0  0  0  0
    5.8122   -0.5751    0.5634 C   0  0  0  0  0  0  0  0  0  0  0  0
    4.6955    0.1211   -0.2222 C   0  0  0  0  0  0  0  0  0  0  0  0
    3.3441   -0.3239    0.3222 C   0  0  0  0  0  0  0  0  0  0  0  0
    2.2780    0.3870   -0.4816 C   0  0  0  0  0  0  0  0  0  0  0  0
    0.8910    0.0161   -0.0227 C   0  0  0  0  0  0  0  0  0  0  0  0
   -0.0506    0.7022   -0.8002 O   0  0  0  0  0  0  0  0  0  0  0  0
   -1.4232    0.5167   -0.5567 C   0  0  0  0  0  0  0  0  0  0  0  0
   -2.3765    1.1765   -1.3035 C   0  0  0  0  0  0  0  0  0  0  0  0
   -3.7363    1.0194   -1.0933 C   0  0  0  0  0  0  0  0  0  0  0  0
   -4.1452    0.1716   -0.1007 C   0  0  0  0  0  0  0  0  0  0  0  0
   -5.5233   -0.0425    0.1761 N   0  0  0  0  0  0  0  0  0  0  0  0
   -6.3158    0.6746    0.9911 C   0  0  0  0  0  0  0  0  0  0  0  0
   -7.5985    0.1364    0.9841 C   0  0  0  0  0  0  0  0  0  0  0  0
   -7.5478   -0.9153    0.1469 N   0  0  0  0  0  0  0  0  0  0  0  0
   -6.2857   -1.0215   -0.3425 C   0  0  0  0  0  0  0  0  0  0  0  0
   -3.1709   -0.4842    0.6410 C   0  0  0  0  0  0  0  0  0  0  0  0
   -1.8568   -0.3089    0.4106 N   0  0  0  0  0  0  0  0  0  0  0  0
    6.9729    0.2182   -1.0399 H   0  0  0  0  0  0  0  0  0  0  0  0
    7.8075   -1.0085   -0.0333 H   0  0  0  0  0  0  0  0  0  0  0  0
    7.5810    0.6849    0.6142 H   0  0  0  0  0  0  0  0  0  0  0  0
    5.7424   -0.1786    1.6024 H   0  0  0  0  0  0  0  0  0  0  0  0
    5.7096   -1.6578    0.5026 H   0  0  0  0  0  0  0  0  0  0  0  0
    4.7800    1.2172   -0.1344 H   0  0  0  0  0  0  0  0  0  0  0  0
    4.7969   -0.1733   -1.2866 H   0  0  0  0  0  0  0  0  0  0  0  0
    3.2375   -1.4179    0.2921 H   0  0  0  0  0  0  0  0  0  0  0  0
    3.2777   -0.0137    1.3842 H   0  0  0  0  0  0  0  0  0  0  0  0
    2.4329    1.4795   -0.3669 H   0  0  0  0  0  0  0  0  0  0  0  0
    2.4061    0.1719   -1.5623 H   0  0  0  0  0  0  0  0  0  0  0  0
    0.8202    0.2921    1.0605 H   0  0  0  0  0  0  0  0  0  0  0  0
    0.7629   -1.0741   -0.0868 H   0  0  0  0  0  0  0  0  0  0  0  0
   -2.0521    1.8365   -2.0764 H   0  0  0  0  0  0  0  0  0  0  0  0
   -4.4860    1.5369   -1.6790 H   0  0  0  0  0  0  0  0  0  0  0  0
   -6.0097    1.5353    1.5642 H   0  0  0  0  0  0  0  0  0  0  0  0
   -8.4512    0.5131    1.5528 H   0  0  0  0  0  0  0  0  0  0  0  0
   -5.9353   -1.7761   -1.0443 H   0  0  0  0  0  0  0  0  0  0  0  0
   -3.5200   -1.1488    1.4198 H   0  0  0  0  0  0  0  0  0  0  0  0
  1  2  1  0
  2  3  1  0
  3  4  1  0
  4  5  1  0
  5  6  1  0
  6  7  1  0
  7  8  1  0
  8  9  2  0
  9 10  1  0
 10 11  2  0
 11 12  1  0
 12 13  1  0
 13 14  2  0
 14 15  1  0
 15 16  2  0
 11 17  1  0
 17 18  2  0
 18  8  1  0
 16 12  1  0
  1 19  1  0
  1 20  1  0
  1 21  1  0
  2 22  1  0
  2 23  1  0
  3 24  1  0
  3 25  1  0
  4 26  1  0
  4 27  1  0
  5 28  1  0
  5 29  1  0
  6 30  1  0
  6 31  1  0
  9 32  1  0
 10 33  1  0
 13 34  1  0
 14 35  1  0
 16 36  1  0
 17 37  1  0
M  END
$$$$
