@<TRIPOS>MOLECULE
*****
 53 58 0 0 0
SMALL
GASTEIGER

@<TRIPOS>ATOM
      1 C          -3.7274    2.5676    2.3124 C.3     1  UNL1       -0.0361
      2 C          -3.2898    1.4661    1.4208 C.ar    1  UNL1       -0.0041
      3 C          -1.9638    1.1059    1.2955 C.ar    1  UNL1       -0.0324
      4 C          -1.5709    0.0824    0.4646 C.ar    1  UNL1        0.0545
      5 N          -0.1873   -0.3017    0.3134 N.am    1  UNL1       -0.2531
      6 C           0.5656   -1.2133    1.1019 C.2     1  UNL1        0.2700
      7 O           0.1310   -1.8123    2.1203 O.2     1  UNL1       -0.2679
      8 C           1.9073   -1.3476    0.5556 C.ar    1  UNL1        0.1297
      9 C           1.9836   -0.5346   -0.5462 C.ar    1  UNL1        0.0330
     10 C           3.2530   -0.6683   -1.0752 C.ar    1  UNL1        0.0943
     11 C           3.7917    0.0140   -2.2639 C.3     1  UNL1        0.0883
     12 O           3.3040   -0.5469   -3.4576 O.3     1  UNL1       -0.3888
     13 N           3.8842   -1.5362   -0.2924 N.ar    1  UNL1       -0.1726
     14 N           3.0920   -1.9624    0.7023 N.ar    1  UNL1       -0.2555
     15 C           3.5198   -2.9004    1.6903 C.3     1  UNL1        0.0537
     16 C           3.6292   -4.3359    1.1628 C.3     1  UNL1       -0.0285
     17 C           2.6780   -3.9268    2.2806 C.3     1  UNL1       -0.0285
     18 C           0.7028    0.1599   -0.7212 C.3     1  UNL1        0.0855
     19 C           0.8756    1.6394   -0.7434 C.ar    1  UNL1       -0.0221
     20 C           1.1594    2.3048    0.4284 C.ar    1  UNL1       -0.0551
     21 C           1.3261    3.6555    0.4532 C.ar    1  UNL1       -0.0431
     22 C           1.2120    4.3910   -0.7113 C.ar    1  UNL1        0.0410
     23 CL          1.4231    6.1416   -0.7071 Cl      1  UNL1       -0.0835
     24 C           0.9254    3.7128   -1.8900 C.ar    1  UNL1       -0.0431
     25 C           0.7558    2.3465   -1.9213 C.ar    1  UNL1       -0.0551
     26 C          -2.5448   -0.6013   -0.2637 C.ar    1  UNL1        0.0344
     27 N          -3.8121   -0.2562   -0.1431 N.ar    1  UNL1       -0.2846
     28 C          -4.8966   -0.7919   -0.7594 C.ar    1  UNL1        0.1347
     29 C          -4.8819   -1.9151   -1.7295 C.3     1  UNL1       -0.0041
     30 N          -5.9467   -0.0960   -0.3049 N.ar    1  UNL1       -0.1340
     31 N          -5.5337    0.8246    0.5499 N.ar    1  UNL1       -0.1292
     32 C          -4.2082    0.7564    0.6776 C.ar    1  UNL1        0.1641
     33 H          -3.8437    2.1298    3.3353 H       1  UNL1        0.0279
     34 H          -3.0643    3.4375    2.2867 H       1  UNL1        0.0279
     35 H          -4.7366    2.9056    1.9809 H       1  UNL1        0.0279
     36 H          -1.2045    1.6296    1.8646 H       1  UNL1        0.0640
     37 H           4.9056   -0.1114   -2.3124 H       1  UNL1        0.0623
     38 H           3.6265    1.1220   -2.2396 H       1  UNL1        0.0623
     39 H           2.3831   -0.8375   -3.2906 H       1  UNL1        0.2099
     40 H           4.4211   -2.5840    2.2539 H       1  UNL1        0.0545
     41 H           4.5171   -4.9294    1.4316 H       1  UNL1        0.0286
     42 H           3.2078   -4.5620    0.1701 H       1  UNL1        0.0286
     43 H           2.9721   -4.3171    3.2907 H       1  UNL1        0.0286
     44 H           1.6322   -4.1143    2.0440 H       1  UNL1        0.0286
     45 H           0.2786   -0.1151   -1.7357 H       1  UNL1        0.0606
     46 H           1.2509    1.7288    1.3535 H       1  UNL1        0.0621
     47 H           1.5523    4.1711    1.3975 H       1  UNL1        0.0632
     48 H           0.8394    4.3012   -2.7897 H       1  UNL1        0.0632
     49 H           0.5283    1.8216   -2.8643 H       1  UNL1        0.0621
     50 H          -2.2054   -1.4164   -0.9217 H       1  UNL1        0.0833
     51 H          -4.0226   -2.5954   -1.5591 H       1  UNL1        0.0308
     52 H          -4.7916   -1.5552   -2.7745 H       1  UNL1        0.0308
     53 H          -5.8026   -2.5306   -1.6903 H       1  UNL1        0.0308
@<TRIPOS>BOND
     1     1     2    1
     2     2     3   ar
     3     3     4   ar
     4     4     5    1
     5     5     6   am
     6     6     7    2
     7     6     8    1
     8     8     9   ar
     9     9    10   ar
    10    10    11    1
    11    11    12    1
    12    10    13   ar
    13    13    14   ar
    14    14    15    1
    15    15    16    1
    16    16    17    1
    17     9    18    1
    18    18    19    1
    19    19    20   ar
    20    20    21   ar
    21    21    22   ar
    22    22    23    1
    23    22    24   ar
    24    24    25   ar
    25     4    26   ar
    26    26    27   ar
    27    27    28   ar
    28    28    29    1
    29    28    30   ar
    30    30    31   ar
    31    31    32   ar
    32    32     2   ar
    33    18     5    1
    34    25    19   ar
    35    32    27   ar
    36    14     8   ar
    37    17    15    1
    38     1    33    1
    39     1    34    1
    40     1    35    1
    41     3    36    1
    42    11    37    1
    43    11    38    1
    44    12    39    1
    45    15    40    1
    46    16    41    1
    47    16    42    1
    48    17    43    1
    49    17    44    1
    50    18    45    1
    51    20    46    1
    52    21    47    1
    53    24    48    1
    54    25    49    1
    55    26    50    1
    56    29    51    1
    57    29    52    1
    58    29    53    1
