
     RDKit          3D

 53 58  0  0  0  0  0  0  0  0999 V2000
   -3.7274    2.5676    2.3124 C   0  0  0  0  0  0  0  0  0  0  0  0
   -3.2898    1.4661    1.4208 C   0  0  0  0  0  0  0  0  0  0  0  0
   -1.9638    1.1059    1.2955 C   0  0  0  0  0  0  0  0  0  0  0  0
   -1.5709    0.0824    0.4646 C   0  0  0  0  0  0  0  0  0  0  0  0
   -0.1873   -0.3017    0.3134 N   0  0  0  0  0  0  0  0  0  0  0  0
    0.5656   -1.2133    1.1019 C   0  0  0  0  0  0  0  0  0  0  0  0
    0.1310   -1.8123    2.1203 O   0  0  0  0  0  0  0  0  0  0  0  0
    1.9073   -1.3476    0.5556 C   0  0  0  0  0  0  0  0  0  0  0  0
    1.9836   -0.5346   -0.5462 C   0  0  0  0  0  0  0  0  0  0  0  0
    3.2530   -0.6683   -1.0752 C   0  0  0  0  0  0  0  0  0  0  0  0
    3.7917    0.0140   -2.2639 C   0  0  0  0  0  0  0  0  0  0  0  0
    3.3040   -0.5469   -3.4576 O   0  0  0  0  0  0  0  0  0  0  0  0
    3.8842   -1.5362   -0.2924 N   0  0  0  0  0  0  0  0  0  0  0  0
    3.0920   -1.9624    0.7023 N   0  0  0  0  0  0  0  0  0  0  0  0
    3.5198   -2.9004    1.6903 C   0  0  0  0  0  0  0  0  0  0  0  0
    3.6292   -4.3359    1.1628 C   0  0  0  0  0  0  0  0  0  0  0  0
    2.6780   -3.9268    2.2806 C   0  0  0  0  0  0  0  0  0  0  0  0
    0.7028    0.1599   -0.7212 C   0  0  0  0  0  0  0  0  0  0  0  0
    0.8756    1.6394   -0.7434 C   0  0  0  0  0  0  0  0  0  0  0  0
    1.1594    2.3048    0.4284 C   0  0  0  0  0  0  0  0  0  0  0  0
    1.3261    3.6555    0.4532 C   0  0  0  0  0  0  0  0  0  0  0  0
    1.2120    4.3910   -0.7113 C   0  0  0  0  0  0  0  0  0  0  0  0
    1.4231    6.1416   -0.7071 Cl  0  0  0  0  0  0  0  0  0  0  0  0
    0.9254    3.7128   -1.8900 C   0  0  0  0  0  0  0  0  0  0  0  0
    0.7558    2.3465   -1.9213 C   0  0  0  0  0  0  0  0  0  0  0  0
   -2.5448   -0.6013   -0.2637 C   0  0  0  0  0  0  0  0  0  0  0  0
   -3.8121   -0.2562   -0.1431 N   0  0  0  0  0  0  0  0  0  0  0  0
   -4.8966   -0.7919   -0.7594 C   0  0  0  0  0  0  0  0  0  0  0  0
   -4.8819   -1.9151   -1.7295 C   0  0  0  0  0  0  0  0  0  0  0  0
   -5.9467   -0.0960   -0.3049 N   0  0  0  0  0  0  0  0  0  0  0  0
   -5.5337    0.8246    0.5499 N   0  0  0  0  0  0  0  0  0  0  0  0
   -4.2082    0.7564    0.6776 C   0  0  0  0  0  0  0  0  0  0  0  0
   -3.8437    2.1298    3.3353 H   0  0  0  0  0  0  0  0  0  0  0  0
   -3.0643    3.4375    2.2867 H   0  0  0  0  0  0  0  0  0  0  0  0
   -4.7366    2.9056    1.9809 H   0  0  0  0  0  0  0  0  0  0  0  0
   -1.2045    1.6296    1.8646 H   0  0  0  0  0  0  0  0  0  0  0  0
    4.9056   -0.1114   -2.3124 H   0  0  0  0  0  0  0  0  0  0  0  0
    3.6265    1.1220   -2.2396 H   0  0  0  0  0  0  0  0  0  0  0  0
    2.3831   -0.8375   -3.2906 H   0  0  0  0  0  0  0  0  0  0  0  0
    4.4211   -2.5840    2.2539 H   0  0  0  0  0  0  0  0  0  0  0  0
    4.5171   -4.9294    1.4316 H   0  0  0  0  0  0  0  0  0  0  0  0
    3.2078   -4.5620    0.1701 H   0  0  0  0  0  0  0  0  0  0  0  0
    2.9721   -4.3171    3.2907 H   0  0  0  0  0  0  0  0  0  0  0  0
    1.6322   -4.1143    2.0440 H   0  0  0  0  0  0  0  0  0  0  0  0
    0.2786   -0.1151   -1.7357 H   0  0  0  0  0  0  0  0  0  0  0  0
    1.2509    1.7288    1.3535 H   0  0  0  0  0  0  0  0  0  0  0  0
    1.5523    4.1711    1.3975 H   0  0  0  0  0  0  0  0  0  0  0  0
    0.8394    4.3012   -2.7897 H   0  0  0  0  0  0  0  0  0  0  0  0
    0.5283    1.8216   -2.8643 H   0  0  0  0  0  0  0  0  0  0  0  0
   -2.2054   -1.4164   -0.9217 H   0  0  0  0  0  0  0  0  0  0  0  0
   -4.0226   -2.5954   -1.5591 H   0  0  0  0  0  0  0  0  0  0  0  0
   -4.7916   -1.5552   -2.7745 H   0  0  0  0  0  0  0  0  0  0  0  0
   -5.8026   -2.5306   -1.6903 H   0  0  0  0  0  0  0  0  0  0  0  0
  1  2  1  0
  2  3  2  0
  3  4  1  0
  4  5  1  0
  5  6  1  0
  6  7  2  0
  6  8  1  0
  8  9  2  0
  9 10  1  0
 10 11  1  0
 11 12  1  0
 10 13  2  0
 13 14  1  0
 14 15  1  0
 15 16  1  0
 16 17  1  0
  9 18  1  0
 18 19  1  0
 19 20  2  0
 20 21  1  0
 21 22  2  0
 22 23  1  0
 22 24  1  0
 24 25  2  0
  4 26  2  0
 26 27  1  0
 27 28  1  0
 28 29  1  0
 28 30  2  0
 30 31  1  0
 31 32  2  0
 32  2  1  0
 18  5  1  0
 25 19  1  0
 32 27  1  0
 14  8  1  0
 17 15  1  0
  1 33  1  0
  1 34  1  0
  1 35  1  0
  3 36  1  0
 11 37  1  0
 11 38  1  0
 12 39  1  0
 15 40  1  0
 16 41  1  0
 16 42  1  0
 17 43  1  0
 17 44  1  0
 18 45  1  0
 20 46  1  0
 21 47  1  0
 24 48  1  0
 25 49  1  0
 26 50  1  0
 29 51  1  0
 29 52  1  0
 29 53  1  0
M  END
$$$$
