
     RDKit          3D

 67 68  0  0  0  0  0  0  0  0999 V2000
    0.1869   -0.2997    2.9749 C   0  0  0  0  0  0  0  0  0  0  0  0
    0.2919    0.8504    2.0099 C   0  0  2  0  0  0  0  0  0  0  0  0
   -0.7810    0.8017    1.0819 N   0  0  0  0  0  0  0  0  0  0  0  0
   -1.8020    1.7187    0.6380 C   0  0  0  0  0  0  0  0  0  0  0  0
   -1.6296    2.8116    1.2806 O   0  0  0  0  0  0  0  0  0  0  0  0
   -2.6749    1.1066   -0.3810 C   0  0  0  0  0  0  0  0  0  0  0  0
   -2.6078   -0.1071   -0.8093 O   0  0  0  0  0  0  0  0  0  0  0  0
   -3.7243    1.7782   -1.0428 N   0  0  0  0  0  0  0  0  0  0  0  0
   -4.2520    0.7400   -1.9110 C   0  0  0  0  0  0  0  0  0  0  0  0
   -3.6230    0.5175   -3.1120 C   0  0  0  0  0  0  0  0  0  0  0  0
   -4.1710   -0.4792   -3.9261 C   0  0  0  0  0  0  0  0  0  0  0  0
   -5.2821   -1.1605   -3.4807 C   0  0  0  0  0  0  0  0  0  0  0  0
   -5.8692   -0.8914   -2.2639 C   0  0  0  0  0  0  0  0  0  0  0  0
   -5.3639    0.0994   -1.4041 C   0  0  0  0  0  0  0  0  0  0  0  0
   -6.0127    0.3903   -0.1187 C   0  0  0  0  0  0  0  0  0  0  0  0
   -5.2163    0.2266    1.1160 C   0  0  0  0  0  0  0  0  0  0  0  0
   -6.4754    1.8410   -0.1662 C   0  0  0  0  0  0  0  0  0  0  0  0
   -7.2635   -0.4693   -0.0156 C   0  0  0  0  0  0  0  0  0  0  0  0
    1.6337    0.8409    1.3057 C   0  0  0  0  0  0  0  0  0  0  0  0
    1.5958    0.8980    0.0462 O   0  0  0  0  0  0  0  0  0  0  0  0
    2.8421    0.7723    2.0385 N   0  0  0  0  0  0  0  0  0  0  0  0
    4.0386    0.7820    1.2040 C   0  0  1  0  0  0  0  0  0  0  0  0
    4.9640    1.8358    1.7547 C   0  0  0  0  0  0  0  0  0  0  0  0
    5.2853    1.4429    3.1649 C   0  0  0  0  0  0  0  0  0  0  0  0
    5.0767    0.5082    4.1644 O   0  0  0  0  0  0  0  0  0  0  0  0
    6.0405    2.0803    3.9702 O   0  0  0  0  0  0  0  0  0  0  0  0
    4.6679   -0.5812    1.1930 C   0  0  0  0  0  0  0  0  0  0  0  0
    3.6766   -0.5734    1.9260 O   0  0  0  0  0  0  0  0  0  0  0  0
    5.1379   -1.9678    1.3064 C   0  0  0  0  0  0  0  0  0  0  0  0
    6.2686   -2.1171    0.4302 O   0  0  0  0  0  0  0  0  0  0  0  0
    6.0387   -1.8711   -0.9312 C   0  0  0  0  0  0  0  0  0  0  0  0
    5.6300   -2.9859   -1.6552 C   0  0  0  0  0  0  0  0  0  0  0  0
    5.4333   -4.2482   -1.2092 F   0  0  0  0  0  0  0  0  0  0  0  0
    5.3741   -2.8714   -2.9997 C   0  0  0  0  0  0  0  0  0  0  0  0
    4.9686   -3.8766   -3.8284 F   0  0  0  0  0  0  0  0  0  0  0  0
    5.5107   -1.6747   -3.6640 C   0  0  0  0  0  0  0  0  0  0  0  0
    5.9193   -0.5484   -2.9541 C   0  0  0  0  0  0  0  0  0  0  0  0
    6.0949    0.6841   -3.4762 F   0  0  0  0  0  0  0  0  0  0  0  0
    6.1688   -0.6844   -1.6148 C   0  0  0  0  0  0  0  0  0  0  0  0
    6.5697    0.3590   -0.8647 F   0  0  0  0  0  0  0  0  0  0  0  0
    0.4739   -0.0231    4.0088 H   0  0  0  0  0  0  0  0  0  0  0  0
   -0.8522   -0.6817    2.9293 H   0  0  0  0  0  0  0  0  0  0  0  0
    0.8116   -1.1661    2.6055 H   0  0  0  0  0  0  0  0  0  0  0  0
    0.3286    1.7819    2.6181 H   0  0  0  0  0  0  0  0  0  0  0  0
   -0.7009   -0.1899    0.6834 H   0  0  0  0  0  0  0  0  0  0  0  0
   -3.8199    2.7817   -0.7372 H   0  0  0  0  0  0  0  0  0  0  0  0
   -2.7511    1.0709   -3.4299 H   0  0  0  0  0  0  0  0  0  0  0  0
   -3.6760   -0.6530   -4.8698 H   0  0  0  0  0  0  0  0  0  0  0  0
   -5.6457   -1.9181   -4.1634 H   0  0  0  0  0  0  0  0  0  0  0  0
   -6.7562   -1.4866   -1.9955 H   0  0  0  0  0  0  0  0  0  0  0  0
   -4.4801   -0.6071    1.1162 H   0  0  0  0  0  0  0  0  0  0  0  0
   -5.9414   -0.1093    1.9240 H   0  0  0  0  0  0  0  0  0  0  0  0
   -4.8118    1.1722    1.5606 H   0  0  0  0  0  0  0  0  0  0  0  0
   -7.5673    1.8495   -0.0024 H   0  0  0  0  0  0  0  0  0  0  0  0
   -6.3008    2.2577   -1.1679 H   0  0  0  0  0  0  0  0  0  0  0  0
   -5.9714    2.4492    0.6172 H   0  0  0  0  0  0  0  0  0  0  0  0
   -7.9549   -0.2858   -0.8673 H   0  0  0  0  0  0  0  0  0  0  0  0
   -7.8193   -0.2379    0.9227 H   0  0  0  0  0  0  0  0  0  0  0  0
   -6.9652   -1.5327    0.0307 H   0  0  0  0  0  0  0  0  0  0  0  0
    2.8136    0.7227    3.0719 H   0  0  0  0  0  0  0  0  0  0  0  0
    3.7966    1.0299    0.1530 H   0  0  0  0  0  0  0  0  0  0  0  0
    5.8827    1.9654    1.1612 H   0  0  0  0  0  0  0  0  0  0  0  0
    4.3801    2.7862    1.7809 H   0  0  0  0  0  0  0  0  0  0  0  0
    5.6478   -0.3496    4.2289 H   0  0  0  0  0  0  0  0  0  0  0  0
    4.3468   -2.6952    0.9932 H   0  0  0  0  0  0  0  0  0  0  0  0
    5.5316   -2.1344    2.3185 H   0  0  0  0  0  0  0  0  0  0  0  0
    5.3350   -1.4751   -4.7257 H   0  0  0  0  0  0  0  0  0  0  0  0
  1  2  1  0
  2  3  1  0
  3  4  1  0
  4  5  2  0
  4  6  1  0
  6  7  2  0
  6  8  1  0
  8  9  1  0
  9 10  2  0
 10 11  1  0
 11 12  2  0
 12 13  1  0
 13 14  2  0
 14 15  1  0
 15 16  1  0
 15 17  1  0
 15 18  1  0
  2 19  1  0
 19 20  2  0
 19 21  1  0
 21 22  1  0
 22 23  1  0
 23 24  1  0
 24 25  1  0
 24 26  2  0
 22 27  1  0
 27 28  2  0
 27 29  1  0
 29 30  1  0
 30 31  1  0
 31 32  2  0
 32 33  1  0
 32 34  1  0
 34 35  1  0
 34 36  2  0
 36 37  1  0
 37 38  1  0
 37 39  2  0
 39 40  1  0
 14  9  1  0
 39 31  1  0
  1 41  1  0
  1 42  1  0
  1 43  1  0
  2 44  1  1
  3 45  1  0
  8 46  1  0
 10 47  1  0
 11 48  1  0
 12 49  1  0
 13 50  1  0
 16 51  1  0
 16 52  1  0
 16 53  1  0
 17 54  1  0
 17 55  1  0
 17 56  1  0
 18 57  1  0
 18 58  1  0
 18 59  1  0
 21 60  1  0
 22 61  1  6
 23 62  1  0
 23 63  1  0
 25 64  1  0
 29 65  1  0
 29 66  1  0
 36 67  1  0
M  END
$$$$
