@<TRIPOS>MOLECULE
*****
 54 56 0 0 0
SMALL
GASTEIGER

@<TRIPOS>ATOM
      1 N          -3.2978    1.2428   -2.1543 N.3     1  UNL1       -0.3197
      2 C          -3.1942    0.3711   -0.9425 C.3     1  UNL1        0.0854
      3 C          -3.7679    1.1222    0.1880 C.2     1  UNL1        0.2327
      4 O          -3.7667    2.3915    0.1157 O.2     1  UNL1       -0.2739
      5 N          -4.3166    0.5003    1.3345 N.am    1  UNL1       -0.3002
      6 C          -4.8697    1.2202    2.4935 C.3     1  UNL1        0.0148
      7 C          -5.9989    0.3541    3.0028 C.3     1  UNL1       -0.0357
      8 C          -5.9579   -0.8955    2.1642 C.3     1  UNL1       -0.0357
      9 C          -4.5082   -0.8877    1.6657 C.3     1  UNL1        0.0148
     10 C          -1.7400    0.0828   -0.8437 C.3     1  UNL1       -0.0158
     11 C          -1.2565   -0.7637    0.2692 C.3     1  UNL1       -0.0468
     12 C           0.2468   -0.4403    0.4060 C.3     1  UNL1       -0.0356
     13 C           0.4824    0.6367   -0.6210 C.3     1  UNL1        0.0292
     14 N           0.6517    0.0192   -1.8916 N.3     1  UNL1       -0.1869
     15 S           2.0853    0.5052   -2.7142 S.O2    1  UNL1        0.0586
     16 O           2.2267   -0.1949   -4.0294 O.2     1  UNL1       -0.1530
     17 O           2.0622    1.9783   -2.9411 O.2     1  UNL1       -0.1530
     18 C           3.4491    0.0300   -1.7255 C.ar    1  UNL1        0.1054
     19 C           4.0225    0.8525   -0.7805 C.ar    1  UNL1       -0.0335
     20 C           5.0984    0.4210   -0.0272 C.ar    1  UNL1       -0.0335
     21 C           5.6512   -0.8320   -0.1728 C.ar    1  UNL1        0.1051
     22 S           7.0142   -1.3581    0.7923 S.O2    1  UNL1        0.0559
     23 N           8.4802   -0.9495   -0.0103 N.3     1  UNL1       -0.2035
     24 O           6.9348   -0.6679    2.1343 O.2     1  UNL1       -0.1533
     25 O           6.9732   -2.8314    1.0656 O.2     1  UNL1       -0.1533
     26 C           5.0832   -1.6674   -1.1198 C.ar    1  UNL1       -0.0335
     27 C           4.0099   -1.2355   -1.8704 C.ar    1  UNL1       -0.0335
     28 C          -0.8808    1.3418   -0.6376 C.3     1  UNL1       -0.0312
     29 H          -4.2354    1.1569   -2.5708 H       1  UNL1        0.1189
     30 H          -2.5938    0.9294   -2.8642 H       1  UNL1        0.1189
     31 H          -3.7234   -0.5429   -1.2061 H       1  UNL1        0.0557
     32 H          -5.2261    2.1946    2.1213 H       1  UNL1        0.0464
     33 H          -4.0591    1.3484    3.2175 H       1  UNL1        0.0464
     34 H          -5.7837    0.0481    4.0682 H       1  UNL1        0.0281
     35 H          -6.9701    0.8592    2.9758 H       1  UNL1        0.0281
     36 H          -6.1846   -1.8134    2.7154 H       1  UNL1        0.0281
     37 H          -6.6350   -0.8341    1.2768 H       1  UNL1        0.0281
     38 H          -4.4682   -1.5630    0.8011 H       1  UNL1        0.0464
     39 H          -3.8424   -1.2287    2.4739 H       1  UNL1        0.0464
     40 H          -1.3695   -0.3163   -1.8379 H       1  UNL1        0.0321
     41 H          -1.7657   -0.5416    1.2232 H       1  UNL1        0.0269
     42 H          -1.3121   -1.8375    0.0084 H       1  UNL1        0.0269
     43 H           0.4428   -0.0525    1.4405 H       1  UNL1        0.0281
     44 H           0.8714   -1.3126    0.1671 H       1  UNL1        0.0281
     45 H           1.2843    1.3371   -0.3349 H       1  UNL1        0.0477
     46 H           0.5418   -1.0188   -1.8730 H       1  UNL1        0.1483
     47 H           3.5973    1.8461   -0.6553 H       1  UNL1        0.0638
     48 H           5.5304    1.0827    0.7067 H       1  UNL1        0.0638
     49 H           9.2278   -0.9047    0.7252 H       1  UNL1        0.1442
     50 H           8.6984   -1.6454   -0.7529 H       1  UNL1        0.1442
     51 H           5.4988   -2.6711   -1.2613 H       1  UNL1        0.0638
     52 H           3.5636   -1.9004   -2.6187 H       1  UNL1        0.0638
     53 H          -1.0277    1.7594    0.3665 H       1  UNL1        0.0284
     54 H          -0.9760    2.0436   -1.4625 H       1  UNL1        0.0284
@<TRIPOS>BOND
     1     1     2    1
     2     2     3    1
     3     3     4    2
     4     3     5   am
     5     5     6    1
     6     6     7    1
     7     7     8    1
     8     8     9    1
     9     2    10    1
    10    10    11    1
    11    11    12    1
    12    12    13    1
    13    13    14    1
    14    14    15    1
    15    15    16    2
    16    15    17    2
    17    15    18    1
    18    18    19   ar
    19    19    20   ar
    20    20    21   ar
    21    21    22    1
    22    22    23    1
    23    22    24    2
    24    22    25    2
    25    21    26   ar
    26    26    27   ar
    27    13    28    1
    28     9     5    1
    29    28    10    1
    30    27    18   ar
    31     1    29    1
    32     1    30    1
    33     2    31    1
    34     6    32    1
    35     6    33    1
    36     7    34    1
    37     7    35    1
    38     8    36    1
    39     8    37    1
    40     9    38    1
    41     9    39    1
    42    10    40    1
    43    11    41    1
    44    11    42    1
    45    12    43    1
    46    12    44    1
    47    13    45    1
    48    14    46    1
    49    19    47    1
    50    20    48    1
    51    23    49    1
    52    23    50    1
    53    26    51    1
    54    27    52    1
    55    28    53    1
    56    28    54    1
