
     RDKit          3D

 54 56  0  0  0  0  0  0  0  0999 V2000
   -3.2978    1.2428   -2.1543 N   0  0  0  0  0  0  0  0  0  0  0  0
   -3.1942    0.3711   -0.9425 C   0  0  2  0  0  0  0  0  0  0  0  0
   -3.7679    1.1222    0.1880 C   0  0  0  0  0  0  0  0  0  0  0  0
   -3.7667    2.3915    0.1157 O   0  0  0  0  0  0  0  0  0  0  0  0
   -4.3166    0.5003    1.3345 N   0  0  0  0  0  0  0  0  0  0  0  0
   -4.8697    1.2202    2.4935 C   0  0  0  0  0  0  0  0  0  0  0  0
   -5.9989    0.3541    3.0028 C   0  0  0  0  0  0  0  0  0  0  0  0
   -5.9579   -0.8955    2.1642 C   0  0  0  0  0  0  0  0  0  0  0  0
   -4.5082   -0.8877    1.6657 C   0  0  0  0  0  0  0  0  0  0  0  0
   -1.7400    0.0828   -0.8437 C   0  0  2  0  0  0  0  0  0  0  0  0
   -1.2565   -0.7637    0.2692 C   0  0  0  0  0  0  0  0  0  0  0  0
    0.2468   -0.4403    0.4060 C   0  0  0  0  0  0  0  0  0  0  0  0
    0.4824    0.6367   -0.6210 C   0  0  1  0  0  0  0  0  0  0  0  0
    0.6517    0.0192   -1.8916 N   0  0  0  0  0  0  0  0  0  0  0  0
    2.0853    0.5052   -2.7142 S   0  0  0  0  0  6  0  0  0  0  0  0
    2.2267   -0.1949   -4.0294 O   0  0  0  0  0  0  0  0  0  0  0  0
    2.0622    1.9783   -2.9411 O   0  0  0  0  0  0  0  0  0  0  0  0
    3.4491    0.0300   -1.7255 C   0  0  0  0  0  0  0  0  0  0  0  0
    4.0225    0.8525   -0.7805 C   0  0  0  0  0  0  0  0  0  0  0  0
    5.0984    0.4210   -0.0272 C   0  0  0  0  0  0  0  0  0  0  0  0
    5.6512   -0.8320   -0.1728 C   0  0  0  0  0  0  0  0  0  0  0  0
    7.0142   -1.3581    0.7923 S   0  0  0  0  0  6  0  0  0  0  0  0
    8.4802   -0.9495   -0.0103 N   0  0  0  0  0  0  0  0  0  0  0  0
    6.9348   -0.6679    2.1343 O   0  0  0  0  0  0  0  0  0  0  0  0
    6.9732   -2.8314    1.0656 O   0  0  0  0  0  0  0  0  0  0  0  0
    5.0832   -1.6674   -1.1198 C   0  0  0  0  0  0  0  0  0  0  0  0
    4.0099   -1.2355   -1.8704 C   0  0  0  0  0  0  0  0  0  0  0  0
   -0.8808    1.3418   -0.6376 C   0  0  0  0  0  0  0  0  0  0  0  0
   -4.2354    1.1569   -2.5708 H   0  0  0  0  0  0  0  0  0  0  0  0
   -2.5938    0.9294   -2.8642 H   0  0  0  0  0  0  0  0  0  0  0  0
   -3.7234   -0.5429   -1.2061 H   0  0  0  0  0  0  0  0  0  0  0  0
   -5.2261    2.1946    2.1213 H   0  0  0  0  0  0  0  0  0  0  0  0
   -4.0591    1.3484    3.2175 H   0  0  0  0  0  0  0  0  0  0  0  0
   -5.7837    0.0481    4.0682 H   0  0  0  0  0  0  0  0  0  0  0  0
   -6.9701    0.8592    2.9758 H   0  0  0  0  0  0  0  0  0  0  0  0
   -6.1846   -1.8134    2.7154 H   0  0  0  0  0  0  0  0  0  0  0  0
   -6.6350   -0.8341    1.2768 H   0  0  0  0  0  0  0  0  0  0  0  0
   -4.4682   -1.5630    0.8011 H   0  0  0  0  0  0  0  0  0  0  0  0
   -3.8424   -1.2287    2.4739 H   0  0  0  0  0  0  0  0  0  0  0  0
   -1.3695   -0.3163   -1.8379 H   0  0  0  0  0  0  0  0  0  0  0  0
   -1.7657   -0.5416    1.2232 H   0  0  0  0  0  0  0  0  0  0  0  0
   -1.3121   -1.8375    0.0084 H   0  0  0  0  0  0  0  0  0  0  0  0
    0.4428   -0.0525    1.4405 H   0  0  0  0  0  0  0  0  0  0  0  0
    0.8714   -1.3126    0.1671 H   0  0  0  0  0  0  0  0  0  0  0  0
    1.2843    1.3371   -0.3349 H   0  0  0  0  0  0  0  0  0  0  0  0
    0.5418   -1.0188   -1.8730 H   0  0  0  0  0  0  0  0  0  0  0  0
    3.5973    1.8461   -0.6553 H   0  0  0  0  0  0  0  0  0  0  0  0
    5.5304    1.0827    0.7067 H   0  0  0  0  0  0  0  0  0  0  0  0
    9.2278   -0.9047    0.7252 H   0  0  0  0  0  0  0  0  0  0  0  0
    8.6984   -1.6454   -0.7529 H   0  0  0  0  0  0  0  0  0  0  0  0
    5.4988   -2.6711   -1.2613 H   0  0  0  0  0  0  0  0  0  0  0  0
    3.5636   -1.9004   -2.6187 H   0  0  0  0  0  0  0  0  0  0  0  0
   -1.0277    1.7594    0.3665 H   0  0  0  0  0  0  0  0  0  0  0  0
   -0.9760    2.0436   -1.4625 H   0  0  0  0  0  0  0  0  0  0  0  0
  1  2  1  0
  2  3  1  0
  3  4  2  0
  3  5  1  0
  5  6  1  0
  6  7  1  0
  7  8  1  0
  8  9  1  0
  2 10  1  0
 10 11  1  0
 11 12  1  0
 12 13  1  0
 13 14  1  0
 14 15  1  0
 15 16  2  0
 15 17  2  0
 15 18  1  0
 18 19  2  0
 19 20  1  0
 20 21  2  0
 21 22  1  0
 22 23  1  0
 22 24  2  0
 22 25  2  0
 21 26  1  0
 26 27  2  0
 13 28  1  0
  9  5  1  0
 28 10  1  0
 27 18  1  0
  1 29  1  0
  1 30  1  0
  2 31  1  6
  6 32  1  0
  6 33  1  0
  7 34  1  0
  7 35  1  0
  8 36  1  0
  8 37  1  0
  9 38  1  0
  9 39  1  0
 10 40  1  6
 11 41  1  0
 11 42  1  0
 12 43  1  0
 12 44  1  0
 13 45  1  1
 14 46  1  0
 19 47  1  0
 20 48  1  0
 23 49  1  0
 23 50  1  0
 26 51  1  0
 27 52  1  0
 28 53  1  0
 28 54  1  0
M  END
$$$$
