@<TRIPOS>MOLECULE
*****
 50 52 0 0 0
SMALL
GASTEIGER

@<TRIPOS>ATOM
      1 C          -1.8844   -1.8667    0.8610 C.3     1  UNL1       -0.0449
      2 C          -1.5960   -0.4472    0.4983 C.3     1  UNL1        0.0393
      3 C          -2.7452    0.4799    0.7380 C.3     1  UNL1        0.0362
      4 N          -3.7869    0.3053   -0.2601 N.am    1  UNL1       -0.2642
      5 C          -5.1360    0.4917    0.1191 C.2     1  UNL1        0.4032
      6 O          -6.0975    0.3555   -0.6985 O.2     1  UNL1       -0.2263
      7 O          -5.4786    0.8345    1.4108 O.3     1  UNL1       -0.4412
      8 C          -6.7788    1.0405    1.8871 C.3     1  UNL1        0.1886
      9 C          -6.6534    1.3996    3.3710 C.3     1  UNL1        0.4237
     10 F          -5.8853    2.5508    3.4349 F       1  UNL1       -0.1671
     11 F          -5.8845    0.3729    3.9318 F       1  UNL1       -0.1671
     12 F          -7.8705    1.5266    3.9713 F       1  UNL1       -0.1671
     13 C          -3.4921   -0.0520   -1.6215 C.3     1  UNL1        0.0337
     14 C          -2.0449    0.0262   -1.9563 C.3     1  UNL1        0.0311
     15 N          -1.1585   -0.2879   -0.8806 N.pl3   1  UNL1       -0.2939
     16 C           0.2245   -0.4584   -1.1404 C.ar    1  UNL1        0.2183
     17 N           0.6970   -0.2897   -2.3768 N.ar    1  UNL1       -0.2191
     18 C           1.9764   -0.4311   -2.7131 C.ar    1  UNL1        0.0743
     19 C           2.9189   -0.7793   -1.7320 C.ar    1  UNL1        0.1571
     20 O           4.2214   -0.9318   -2.0393 O.3     1  UNL1       -0.4843
     21 C           5.3664   -1.2407   -1.3752 C.3     1  UNL1        0.1161
     22 C           5.7907   -0.3212   -0.3092 C.ar    1  UNL1        0.0099
     23 C           5.7156   -0.6323    1.0121 C.ar    1  UNL1       -0.0360
     24 C           6.1494    0.2497    1.9689 C.ar    1  UNL1        0.0280
     25 N           6.6625    1.4500    1.6233 N.ar    1  UNL1       -0.2620
     26 C           6.7553    1.7986    0.3273 C.ar    1  UNL1        0.0453
     27 C           6.3251    0.9247   -0.6268 C.ar    1  UNL1        0.0762
     28 C           6.4101    1.2688   -2.0251 C.1     1  UNL1        0.1011
     29 N           6.4803    1.5217   -3.1355 N.1     1  UNL1       -0.1908
     30 C           2.4270   -0.9497   -0.4728 C.ar    1  UNL1        0.0743
     31 N           1.1148   -0.7918   -0.1917 N.ar    1  UNL1       -0.2191
     32 H          -2.7228   -2.3162    0.3318 H       1  UNL1        0.0248
     33 H          -1.9600   -1.9375    1.9665 H       1  UNL1        0.0248
     34 H          -0.9705   -2.4637    0.5950 H       1  UNL1        0.0248
     35 H          -0.7598   -0.1029    1.1736 H       1  UNL1        0.0513
     36 H          -2.4031    1.5289    0.6601 H       1  UNL1        0.0484
     37 H          -3.1410    0.2979    1.7585 H       1  UNL1        0.0484
     38 H          -7.3487    1.8128    1.3414 H       1  UNL1        0.0789
     39 H          -7.3123    0.0565    1.8361 H       1  UNL1        0.0789
     40 H          -4.0282    0.7028   -2.2674 H       1  UNL1        0.0481
     41 H          -3.9698   -1.0233   -1.8430 H       1  UNL1        0.0481
     42 H          -1.8533   -0.7406   -2.7640 H       1  UNL1        0.0480
     43 H          -1.7923    1.0038   -2.4562 H       1  UNL1        0.0480
     44 H           2.3748   -0.2976   -3.7094 H       1  UNL1        0.0869
     45 H           6.2381   -1.3300   -2.0779 H       1  UNL1        0.0748
     46 H           5.2709   -2.2644   -0.8971 H       1  UNL1        0.0748
     47 H           5.3084   -1.5900    1.3329 H       1  UNL1        0.0637
     48 H           6.0886   -0.0006    3.0273 H       1  UNL1        0.0829
     49 H           7.1707    2.7695    0.0585 H       1  UNL1        0.0843
     50 H           3.0675   -1.2230    0.3334 H       1  UNL1        0.0869
@<TRIPOS>BOND
     1     1     2    1
     2     2     3    1
     3     3     4    1
     4     4     5   am
     5     5     6    2
     6     5     7    1
     7     7     8    1
     8     8     9    1
     9     9    10    1
    10     9    11    1
    11     9    12    1
    12     4    13    1
    13    13    14    1
    14    14    15    1
    15    15    16    1
    16    16    17   ar
    17    17    18   ar
    18    18    19   ar
    19    19    20    1
    20    20    21    1
    21    21    22    1
    22    22    23   ar
    23    23    24   ar
    24    24    25   ar
    25    25    26   ar
    26    26    27   ar
    27    27    28    1
    28    28    29    3
    29    19    30   ar
    30    30    31   ar
    31    15     2    1
    32    31    16   ar
    33    27    22   ar
    34     1    32    1
    35     1    33    1
    36     1    34    1
    37     2    35    1
    38     3    36    1
    39     3    37    1
    40     8    38    1
    41     8    39    1
    42    13    40    1
    43    13    41    1
    44    14    42    1
    45    14    43    1
    46    18    44    1
    47    21    45    1
    48    21    46    1
    49    23    47    1
    50    24    48    1
    51    26    49    1
    52    30    50    1
