@<TRIPOS>MOLECULE
*****
 81 85 0 0 0
SMALL
GASTEIGER

@<TRIPOS>ATOM
      1 C           5.1439    0.7651    1.8508 C.3     1  UNL1       -0.0598
      2 C           5.0914    0.9631    0.3506 C.3     1  UNL1       -0.0343
      3 C           5.7805    2.2674    0.0336 C.3     1  UNL1       -0.0598
      4 C           5.6668   -0.2021   -0.3773 C.3     1  UNL1       -0.0468
      5 C           4.7374   -0.8405   -1.3504 C.3     1  UNL1       -0.0362
      6 C           3.4567   -1.3451   -0.6851 C.3     1  UNL1        0.0741
      7 C           3.8762   -2.5871    0.0615 C.2     1  UNL1        0.3115
      8 O           5.0270   -3.0360    0.0794 O.2     1  UNL1       -0.2504
      9 O           2.9060   -3.2976    0.7938 O.3     1  UNL1       -0.4802
     10 C           2.4520   -1.7803   -1.6867 C.3     1  UNL1       -0.0359
     11 C           1.3032   -0.8730   -1.9465 C.3     1  UNL1       -0.0424
     12 C           0.6839   -0.2156   -0.7736 C.3     1  UNL1       -0.0051
     13 C           0.6231    1.2680   -1.0582 C.3     1  UNL1       -0.0553
     14 C           1.5368   -0.3121    0.4775 C.2     1  UNL1       -0.0629
     15 C           1.0047   -0.3930    1.6864 C.2     1  UNL1       -0.0836
     16 C          -0.4478   -0.4039    2.0051 C.3     1  UNL1       -0.0306
     17 C          -1.1975   -0.0268    0.7649 C.3     1  UNL1       -0.0257
     18 C          -2.6847    0.0596    0.9790 C.3     1  UNL1       -0.0250
     19 C          -3.2981   -1.0870    1.7001 C.3     1  UNL1       -0.0590
     20 C          -2.9028    1.2901    1.8675 C.3     1  UNL1       -0.0447
     21 C          -4.3580    1.6678    1.9364 C.3     1  UNL1       -0.0258
     22 C          -4.8876    2.0266    0.5688 C.3     1  UNL1        0.0606
     23 O          -6.1912    2.4543    0.6555 O.3     1  UNL1       -0.3912
     24 C          -4.7241    0.8281   -0.3381 C.3     1  UNL1       -0.0056
     25 C          -5.7729   -0.2138   -0.1156 C.3     1  UNL1       -0.0572
     26 C          -4.9912    1.3777   -1.7562 C.3     1  UNL1       -0.0572
     27 C          -3.3203    0.3697   -0.3418 C.3     1  UNL1       -0.0278
     28 C          -3.0670   -0.8252   -1.2176 C.3     1  UNL1       -0.0486
     29 C          -1.6020   -0.7374   -1.6171 C.3     1  UNL1       -0.0463
     30 C          -0.7178   -0.7722   -0.4211 C.3     1  UNL1       -0.0194
     31 C          -0.4913   -2.2665   -0.1421 C.3     1  UNL1       -0.0585
     32 C           3.0191   -0.3251    0.2995 C.3     1  UNL1       -0.0031
     33 C           3.6013    1.0305   -0.0235 C.3     1  UNL1       -0.0403
     34 H           5.3591   -0.3008    2.0947 H       1  UNL1        0.0235
     35 H           5.9031    1.4131    2.3346 H       1  UNL1        0.0235
     36 H           4.1757    1.0207    2.3341 H       1  UNL1        0.0235
     37 H           5.2724    3.0544    0.6263 H       1  UNL1        0.0235
     38 H           5.7083    2.5350   -1.0398 H       1  UNL1        0.0235
     39 H           6.8077    2.1962    0.4112 H       1  UNL1        0.0235
     40 H           6.0239   -0.9446    0.3643 H       1  UNL1        0.0271
     41 H           6.5596    0.1341   -0.9330 H       1  UNL1        0.0271
     42 H           5.2388   -1.7480   -1.7517 H       1  UNL1        0.0276
     43 H           4.5031   -0.1804   -2.2014 H       1  UNL1        0.0276
     44 H           3.1045   -3.8141    1.6197 H       1  UNL1        0.2951
     45 H           3.0016   -1.9135   -2.6600 H       1  UNL1        0.0276
     46 H           2.0701   -2.8283   -1.4931 H       1  UNL1        0.0276
     47 H           1.6441   -0.1299   -2.7325 H       1  UNL1        0.0274
     48 H           0.5467   -1.4929   -2.5168 H       1  UNL1        0.0274
     49 H           1.3403    1.4797   -1.8766 H       1  UNL1        0.0238
     50 H          -0.3605    1.6104   -1.4531 H       1  UNL1        0.0238
     51 H           0.9694    1.8947   -0.2164 H       1  UNL1        0.0238
     52 H           1.7448   -0.4558    2.5074 H       1  UNL1        0.0572
     53 H          -0.5944    0.3180    2.8368 H       1  UNL1        0.0310
     54 H          -0.6550   -1.4244    2.3862 H       1  UNL1        0.0310
     55 H          -0.8872    1.0564    0.5895 H       1  UNL1        0.0315
     56 H          -2.5920   -1.8434    2.0978 H       1  UNL1        0.0235
     57 H          -4.0378   -1.6623    1.1058 H       1  UNL1        0.0235
     58 H          -3.8892   -0.7758    2.6156 H       1  UNL1        0.0235
     59 H          -2.3726    2.1261    1.3714 H       1  UNL1        0.0271
     60 H          -2.5188    1.1357    2.8811 H       1  UNL1        0.0271
     61 H          -5.0009    0.9215    2.3974 H       1  UNL1        0.0290
     62 H          -4.4185    2.5889    2.5524 H       1  UNL1        0.0290
     63 H          -4.2246    2.8288    0.1696 H       1  UNL1        0.0599
     64 H          -6.3177    3.4241    0.5165 H       1  UNL1        0.2098
     65 H          -6.7264    0.1815   -0.5806 H       1  UNL1        0.0236
     66 H          -6.0438   -0.3732    0.9448 H       1  UNL1        0.0236
     67 H          -5.5271   -1.1098   -0.6835 H       1  UNL1        0.0236
     68 H          -5.3045    0.5099   -2.3828 H       1  UNL1        0.0236
     69 H          -5.8509    2.0675   -1.7223 H       1  UNL1        0.0236
     70 H          -4.0768    1.8373   -2.1721 H       1  UNL1        0.0236
     71 H          -2.7146    1.2241   -0.7753 H       1  UNL1        0.0312
     72 H          -3.6358   -0.7446   -2.1808 H       1  UNL1        0.0268
     73 H          -3.3319   -1.7891   -0.7918 H       1  UNL1        0.0268
     74 H          -1.4666   -1.6223   -2.2805 H       1  UNL1        0.0271
     75 H          -1.5519    0.2134   -2.2131 H       1  UNL1        0.0271
     76 H          -0.2989   -2.7462   -1.1474 H       1  UNL1        0.0235
     77 H          -1.4190   -2.7509    0.2180 H       1  UNL1        0.0235
     78 H           0.2968   -2.4596    0.5770 H       1  UNL1        0.0235
     79 H           3.4964   -0.5938    1.2896 H       1  UNL1        0.0357
     80 H           3.2005    1.8297    0.6245 H       1  UNL1        0.0276
     81 H           3.5946    1.2748   -1.1040 H       1  UNL1        0.0276
@<TRIPOS>BOND
     1     1     2    1
     2     2     3    1
     3     2     4    1
     4     4     5    1
     5     5     6    1
     6     6     7    1
     7     7     8    2
     8     7     9    1
     9     6    10    1
    10    10    11    1
    11    11    12    1
    12    12    13    1
    13    12    14    1
    14    14    15    2
    15    15    16    1
    16    16    17    1
    17    17    18    1
    18    18    19    1
    19    18    20    1
    20    20    21    1
    21    21    22    1
    22    22    23    1
    23    22    24    1
    24    24    25    1
    25    24    26    1
    26    24    27    1
    27    27    28    1
    28    28    29    1
    29    29    30    1
    30    30    31    1
    31    14    32    1
    32    32    33    1
    33    33     2    1
    34    32     6    1
    35    30    12    1
    36    30    17    1
    37    27    18    1
    38     1    34    1
    39     1    35    1
    40     1    36    1
    41     3    37    1
    42     3    38    1
    43     3    39    1
    44     4    40    1
    45     4    41    1
    46     5    42    1
    47     5    43    1
    48     9    44    1
    49    10    45    1
    50    10    46    1
    51    11    47    1
    52    11    48    1
    53    13    49    1
    54    13    50    1
    55    13    51    1
    56    15    52    1
    57    16    53    1
    58    16    54    1
    59    17    55    1
    60    19    56    1
    61    19    57    1
    62    19    58    1
    63    20    59    1
    64    20    60    1
    65    21    61    1
    66    21    62    1
    67    22    63    1
    68    23    64    1
    69    25    65    1
    70    25    66    1
    71    25    67    1
    72    26    68    1
    73    26    69    1
    74    26    70    1
    75    27    71    1
    76    28    72    1
    77    28    73    1
    78    29    74    1
    79    29    75    1
    80    31    76    1
    81    31    77    1
    82    31    78    1
    83    32    79    1
    84    33    80    1
    85    33    81    1
