
     RDKit          3D

 81 85  0  0  0  0  0  0  0  0999 V2000
    5.1439    0.7651    1.8508 C   0  0  0  0  0  0  0  0  0  0  0  0
    5.0914    0.9631    0.3506 C   0  0  0  0  0  0  0  0  0  0  0  0
    5.7805    2.2674    0.0336 C   0  0  0  0  0  0  0  0  0  0  0  0
    5.6668   -0.2021   -0.3773 C   0  0  0  0  0  0  0  0  0  0  0  0
    4.7374   -0.8405   -1.3504 C   0  0  0  0  0  0  0  0  0  0  0  0
    3.4567   -1.3451   -0.6851 C   0  0  2  0  0  0  0  0  0  0  0  0
    3.8762   -2.5871    0.0615 C   0  0  0  0  0  0  0  0  0  0  0  0
    5.0270   -3.0360    0.0794 O   0  0  0  0  0  0  0  0  0  0  0  0
    2.9060   -3.2976    0.7938 O   0  0  0  0  0  0  0  0  0  0  0  0
    2.4520   -1.7803   -1.6867 C   0  0  0  0  0  0  0  0  0  0  0  0
    1.3032   -0.8730   -1.9465 C   0  0  0  0  0  0  0  0  0  0  0  0
    0.6839   -0.2156   -0.7736 C   0  0  2  0  0  0  0  0  0  0  0  0
    0.6231    1.2680   -1.0582 C   0  0  0  0  0  0  0  0  0  0  0  0
    1.5368   -0.3121    0.4775 C   0  0  0  0  0  0  0  0  0  0  0  0
    1.0047   -0.3930    1.6864 C   0  0  0  0  0  0  0  0  0  0  0  0
   -0.4478   -0.4039    2.0051 C   0  0  0  0  0  0  0  0  0  0  0  0
   -1.1975   -0.0268    0.7649 C   0  0  2  0  0  0  0  0  0  0  0  0
   -2.6847    0.0596    0.9790 C   0  0  1  0  0  0  0  0  0  0  0  0
   -3.2981   -1.0870    1.7001 C   0  0  0  0  0  0  0  0  0  0  0  0
   -2.9028    1.2901    1.8675 C   0  0  0  0  0  0  0  0  0  0  0  0
   -4.3580    1.6678    1.9364 C   0  0  0  0  0  0  0  0  0  0  0  0
   -4.8876    2.0266    0.5688 C   0  0  2  0  0  0  0  0  0  0  0  0
   -6.1912    2.4543    0.6555 O   0  0  0  0  0  0  0  0  0  0  0  0
   -4.7241    0.8281   -0.3381 C   0  0  0  0  0  0  0  0  0  0  0  0
   -5.7729   -0.2138   -0.1156 C   0  0  0  0  0  0  0  0  0  0  0  0
   -4.9912    1.3777   -1.7562 C   0  0  0  0  0  0  0  0  0  0  0  0
   -3.3203    0.3697   -0.3418 C   0  0  2  0  0  0  0  0  0  0  0  0
   -3.0670   -0.8252   -1.2176 C   0  0  0  0  0  0  0  0  0  0  0  0
   -1.6020   -0.7374   -1.6171 C   0  0  0  0  0  0  0  0  0  0  0  0
   -0.7178   -0.7722   -0.4211 C   0  0  1  0  0  0  0  0  0  0  0  0
   -0.4913   -2.2665   -0.1421 C   0  0  0  0  0  0  0  0  0  0  0  0
    3.0191   -0.3251    0.2995 C   0  0  2  0  0  0  0  0  0  0  0  0
    3.6013    1.0305   -0.0235 C   0  0  0  0  0  0  0  0  0  0  0  0
    5.3591   -0.3008    2.0947 H   0  0  0  0  0  0  0  0  0  0  0  0
    5.9031    1.4131    2.3346 H   0  0  0  0  0  0  0  0  0  0  0  0
    4.1757    1.0207    2.3341 H   0  0  0  0  0  0  0  0  0  0  0  0
    5.2724    3.0544    0.6263 H   0  0  0  0  0  0  0  0  0  0  0  0
    5.7083    2.5350   -1.0398 H   0  0  0  0  0  0  0  0  0  0  0  0
    6.8077    2.1962    0.4112 H   0  0  0  0  0  0  0  0  0  0  0  0
    6.0239   -0.9446    0.3643 H   0  0  0  0  0  0  0  0  0  0  0  0
    6.5596    0.1341   -0.9330 H   0  0  0  0  0  0  0  0  0  0  0  0
    5.2388   -1.7480   -1.7517 H   0  0  0  0  0  0  0  0  0  0  0  0
    4.5031   -0.1804   -2.2014 H   0  0  0  0  0  0  0  0  0  0  0  0
    3.1045   -3.8141    1.6197 H   0  0  0  0  0  0  0  0  0  0  0  0
    3.0016   -1.9135   -2.6600 H   0  0  0  0  0  0  0  0  0  0  0  0
    2.0701   -2.8283   -1.4931 H   0  0  0  0  0  0  0  0  0  0  0  0
    1.6441   -0.1299   -2.7325 H   0  0  0  0  0  0  0  0  0  0  0  0
    0.5467   -1.4929   -2.5168 H   0  0  0  0  0  0  0  0  0  0  0  0
    1.3403    1.4797   -1.8766 H   0  0  0  0  0  0  0  0  0  0  0  0
   -0.3605    1.6104   -1.4531 H   0  0  0  0  0  0  0  0  0  0  0  0
    0.9694    1.8947   -0.2164 H   0  0  0  0  0  0  0  0  0  0  0  0
    1.7448   -0.4558    2.5074 H   0  0  0  0  0  0  0  0  0  0  0  0
   -0.5944    0.3180    2.8368 H   0  0  0  0  0  0  0  0  0  0  0  0
   -0.6550   -1.4244    2.3862 H   0  0  0  0  0  0  0  0  0  0  0  0
   -0.8872    1.0564    0.5895 H   0  0  0  0  0  0  0  0  0  0  0  0
   -2.5920   -1.8434    2.0978 H   0  0  0  0  0  0  0  0  0  0  0  0
   -4.0378   -1.6623    1.1058 H   0  0  0  0  0  0  0  0  0  0  0  0
   -3.8892   -0.7758    2.6156 H   0  0  0  0  0  0  0  0  0  0  0  0
   -2.3726    2.1261    1.3714 H   0  0  0  0  0  0  0  0  0  0  0  0
   -2.5188    1.1357    2.8811 H   0  0  0  0  0  0  0  0  0  0  0  0
   -5.0009    0.9215    2.3974 H   0  0  0  0  0  0  0  0  0  0  0  0
   -4.4185    2.5889    2.5524 H   0  0  0  0  0  0  0  0  0  0  0  0
   -4.2246    2.8288    0.1696 H   0  0  0  0  0  0  0  0  0  0  0  0
   -6.3177    3.4241    0.5165 H   0  0  0  0  0  0  0  0  0  0  0  0
   -6.7264    0.1815   -0.5806 H   0  0  0  0  0  0  0  0  0  0  0  0
   -6.0438   -0.3732    0.9448 H   0  0  0  0  0  0  0  0  0  0  0  0
   -5.5271   -1.1098   -0.6835 H   0  0  0  0  0  0  0  0  0  0  0  0
   -5.3045    0.5099   -2.3828 H   0  0  0  0  0  0  0  0  0  0  0  0
   -5.8509    2.0675   -1.7223 H   0  0  0  0  0  0  0  0  0  0  0  0
   -4.0768    1.8373   -2.1721 H   0  0  0  0  0  0  0  0  0  0  0  0
   -2.7146    1.2241   -0.7753 H   0  0  0  0  0  0  0  0  0  0  0  0
   -3.6358   -0.7446   -2.1808 H   0  0  0  0  0  0  0  0  0  0  0  0
   -3.3319   -1.7891   -0.7918 H   0  0  0  0  0  0  0  0  0  0  0  0
   -1.4666   -1.6223   -2.2805 H   0  0  0  0  0  0  0  0  0  0  0  0
   -1.5519    0.2134   -2.2131 H   0  0  0  0  0  0  0  0  0  0  0  0
   -0.2989   -2.7462   -1.1474 H   0  0  0  0  0  0  0  0  0  0  0  0
   -1.4190   -2.7509    0.2180 H   0  0  0  0  0  0  0  0  0  0  0  0
    0.2968   -2.4596    0.5770 H   0  0  0  0  0  0  0  0  0  0  0  0
    3.4964   -0.5938    1.2896 H   0  0  0  0  0  0  0  0  0  0  0  0
    3.2005    1.8297    0.6245 H   0  0  0  0  0  0  0  0  0  0  0  0
    3.5946    1.2748   -1.1040 H   0  0  0  0  0  0  0  0  0  0  0  0
  1  2  1  0
  2  3  1  0
  2  4  1  0
  4  5  1  0
  5  6  1  0
  6  7  1  1
  7  8  2  0
  7  9  1  0
  6 10  1  0
 10 11  1  0
 11 12  1  0
 12 13  1  6
 12 14  1  0
 14 15  2  0
 15 16  1  0
 16 17  1  0
 17 18  1  0
 18 19  1  1
 18 20  1  0
 20 21  1  0
 21 22  1  0
 22 23  1  0
 22 24  1  0
 24 25  1  0
 24 26  1  0
 24 27  1  0
 27 28  1  0
 28 29  1  0
 29 30  1  0
 30 31  1  1
 14 32  1  0
 32 33  1  0
 33  2  1  0
 32  6  1  0
 30 12  1  0
 30 17  1  0
 27 18  1  0
  1 34  1  0
  1 35  1  0
  1 36  1  0
  3 37  1  0
  3 38  1  0
  3 39  1  0
  4 40  1  0
  4 41  1  0
  5 42  1  0
  5 43  1  0
  9 44  1  0
 10 45  1  0
 10 46  1  0
 11 47  1  0
 11 48  1  0
 13 49  1  0
 13 50  1  0
 13 51  1  0
 15 52  1  0
 16 53  1  0
 16 54  1  0
 17 55  1  6
 19 56  1  0
 19 57  1  0
 19 58  1  0
 20 59  1  0
 20 60  1  0
 21 61  1  0
 21 62  1  0
 22 63  1  6
 23 64  1  0
 25 65  1  0
 25 66  1  0
 25 67  1  0
 26 68  1  0
 26 69  1  0
 26 70  1  0
 27 71  1  6
 28 72  1  0
 28 73  1  0
 29 74  1  0
 29 75  1  0
 31 76  1  0
 31 77  1  0
 31 78  1  0
 32 79  1  1
 33 80  1  0
 33 81  1  0
M  END
$$$$
