@<TRIPOS>MOLECULE
*****
 74 77 0 0 0
SMALL
GASTEIGER

@<TRIPOS>ATOM
      1 C          -6.4070   -3.5155   -1.8675 C.3     1  UNL1        0.0741
      2 S          -4.8944   -2.8148   -1.2525 S.O2    1  UNL1        0.0467
      3 O          -4.3320   -3.6205   -0.1220 O.2     1  UNL1       -0.1549
      4 O          -3.8877   -2.8716   -2.3615 O.2     1  UNL1       -0.1549
      5 N          -5.1758   -1.1874   -0.8373 N.pl3   1  UNL1       -0.1762
      6 C          -6.0943   -0.7588    0.1545 C.ar    1  UNL1        0.0594
      7 C          -7.4284   -0.4754   -0.1592 C.ar    1  UNL1       -0.0205
      8 C          -8.3287   -0.0608    0.7850 C.ar    1  UNL1        0.0294
      9 N          -7.9300    0.0818    2.0536 N.ar    1  UNL1       -0.2631
     10 C          -6.6534   -0.1806    2.3990 C.ar    1  UNL1        0.0294
     11 C          -5.7280   -0.5986    1.4703 C.ar    1  UNL1       -0.0205
     12 C          -4.4544   -0.1845   -1.5290 C.ar    1  UNL1        0.0572
     13 C          -5.0399    0.3256   -2.6736 C.ar    1  UNL1       -0.0386
     14 C          -4.4173    1.3124   -3.4162 C.ar    1  UNL1       -0.0592
     15 C          -3.2075    1.8006   -3.0270 C.ar    1  UNL1       -0.0495
     16 C          -2.5940    1.3207   -1.8979 C.ar    1  UNL1        0.0385
     17 C          -1.3051    1.8375   -1.4803 C.2     1  UNL1        0.2444
     18 O          -0.7967    2.7701   -2.1699 O.2     1  UNL1       -0.2702
     19 N          -0.5832    1.3790   -0.3706 N.am    1  UNL1       -0.3057
     20 C           0.6919    1.9618   -0.0420 C.3     1  UNL1        0.0545
     21 C           0.7029    2.6140    1.3223 C.3     1  UNL1       -0.0067
     22 C           2.0292    3.2083    1.6279 C.ar    1  UNL1       -0.0455
     23 C           3.0305    2.5265    2.2657 C.ar    1  UNL1       -0.0585
     24 C           4.2380    3.1388    2.5180 C.ar    1  UNL1       -0.0615
     25 C           4.4730    4.4397    2.1417 C.ar    1  UNL1       -0.0617
     26 C           3.4651    5.1298    1.4985 C.ar    1  UNL1       -0.0615
     27 C           2.2556    4.5281    1.2412 C.ar    1  UNL1       -0.0585
     28 C           1.8211    0.9548   -0.1889 C.3     1  UNL1        0.0862
     29 O           1.8565    0.5147   -1.5317 O.3     1  UNL1       -0.3887
     30 C           1.5711   -0.2816    0.6407 C.3     1  UNL1        0.0240
     31 N           2.5795   -1.2757    0.4894 N.3     1  UNL1       -0.3095
     32 C           3.8402   -0.8514    1.0488 C.3     1  UNL1        0.0213
     33 C           4.8879   -1.8724    0.8657 C.ar    1  UNL1       -0.0330
     34 C           5.1691   -2.8610    1.7625 C.ar    1  UNL1       -0.0573
     35 C           6.1701   -3.7819    1.5062 C.ar    1  UNL1       -0.0609
     36 C           6.9098   -3.7245    0.3383 C.ar    1  UNL1       -0.0501
     37 C           6.6432   -2.7440   -0.5688 C.ar    1  UNL1        0.0551
     38 C           7.4235   -2.6684   -1.8276 C.3     1  UNL1        0.4174
     39 F           7.1837   -1.4077   -2.3762 F       1  UNL1       -0.1659
     40 F           8.7640   -2.8496   -1.6513 F       1  UNL1       -0.1659
     41 F           6.9243   -3.5695   -2.7731 F       1  UNL1       -0.1659
     42 C           5.6350   -1.8311   -0.2915 C.ar    1  UNL1       -0.0457
     43 C          -3.2368    0.3223   -1.1570 C.ar    1  UNL1       -0.0266
     44 H          -6.2329   -4.4844   -2.3791 H       1  UNL1        0.0482
     45 H          -7.1286   -3.6717   -1.0549 H       1  UNL1        0.0482
     46 H          -6.8457   -2.8356   -2.6246 H       1  UNL1        0.0482
     47 H          -7.7242   -0.6030   -1.2126 H       1  UNL1        0.0652
     48 H          -9.3558    0.1577    0.5433 H       1  UNL1        0.0830
     49 H          -6.3148   -0.0669    3.4398 H       1  UNL1        0.0830
     50 H          -4.7072   -0.8116    1.7260 H       1  UNL1        0.0652
     51 H          -5.9977   -0.0117   -3.0454 H       1  UNL1        0.0637
     52 H          -4.8629    1.7235   -4.3162 H       1  UNL1        0.0618
     53 H          -2.6911    2.5869   -3.6017 H       1  UNL1        0.0625
     54 H          -0.9539    0.6193    0.2238 H       1  UNL1        0.1494
     55 H           0.9282    2.8003   -0.7677 H       1  UNL1        0.0527
     56 H           0.4651    1.8904    2.1307 H       1  UNL1        0.0332
     57 H          -0.0373    3.4403    1.3576 H       1  UNL1        0.0332
     58 H           2.8885    1.5146    2.5757 H       1  UNL1        0.0620
     59 H           5.0284    2.5983    3.0223 H       1  UNL1        0.0618
     60 H           5.4270    4.9362    2.3385 H       1  UNL1        0.0618
     61 H           3.6200    6.1590    1.1896 H       1  UNL1        0.0618
     62 H           1.4471    5.0556    0.7344 H       1  UNL1        0.0620
     63 H           2.7531    1.4735    0.0123 H       1  UNL1        0.0624
     64 H           0.9813    0.0738   -1.7536 H       1  UNL1        0.2099
     65 H           1.3324   -0.0692    1.6988 H       1  UNL1        0.0450
     66 H           0.6178   -0.7268    0.2251 H       1  UNL1        0.0450
     67 H           2.2309   -2.1763    0.8442 H       1  UNL1        0.1223
     68 H           3.7712   -0.6708    2.1477 H       1  UNL1        0.0473
     69 H           4.1589    0.0570    0.5013 H       1  UNL1        0.0473
     70 H           4.6247   -2.9392    2.6665 H       1  UNL1        0.0621
     71 H           6.4290   -4.5852    2.1871 H       1  UNL1        0.0618
     72 H           7.7001   -4.4551    0.1384 H       1  UNL1        0.0623
     73 H           5.4700   -1.0746   -1.0498 H       1  UNL1        0.0626
     74 H          -2.7922   -0.0835   -0.2634 H       1  UNL1        0.0644
@<TRIPOS>BOND
     1     1     2    1
     2     2     3    2
     3     2     4    2
     4     2     5    1
     5     5     6    1
     6     6     7   ar
     7     7     8   ar
     8     8     9   ar
     9     9    10   ar
    10    10    11   ar
    11     5    12    1
    12    12    13   ar
    13    13    14   ar
    14    14    15   ar
    15    15    16   ar
    16    16    17    1
    17    17    18    2
    18    17    19   am
    19    19    20    1
    20    20    21    1
    21    21    22    1
    22    22    23   ar
    23    23    24   ar
    24    24    25   ar
    25    25    26   ar
    26    26    27   ar
    27    20    28    1
    28    28    29    1
    29    28    30    1
    30    30    31    1
    31    31    32    1
    32    32    33    1
    33    33    34   ar
    34    34    35   ar
    35    35    36   ar
    36    36    37   ar
    37    37    38    1
    38    38    39    1
    39    38    40    1
    40    38    41    1
    41    37    42   ar
    42    16    43   ar
    43    11     6   ar
    44    43    12   ar
    45    27    22   ar
    46    42    33   ar
    47     1    44    1
    48     1    45    1
    49     1    46    1
    50     7    47    1
    51     8    48    1
    52    10    49    1
    53    11    50    1
    54    13    51    1
    55    14    52    1
    56    15    53    1
    57    19    54    1
    58    20    55    1
    59    21    56    1
    60    21    57    1
    61    23    58    1
    62    24    59    1
    63    25    60    1
    64    26    61    1
    65    27    62    1
    66    28    63    1
    67    29    64    1
    68    30    65    1
    69    30    66    1
    70    31    67    1
    71    32    68    1
    72    32    69    1
    73    34    70    1
    74    35    71    1
    75    36    72    1
    76    42    73    1
    77    43    74    1
