
     RDKit          3D

 53 56  0  0  0  0  0  0  0  0999 V2000
   -4.9694    1.2782   -1.8793 C   0  0  0  0  0  0  0  0  0  0  0  0
   -3.8245    1.3506   -0.8660 C   0  0  0  0  0  0  0  0  0  0  0  0
   -3.3289    2.7635   -0.8651 C   0  0  0  0  0  0  0  0  0  0  0  0
   -4.2883    0.8681    0.4647 C   0  0  0  0  0  0  0  0  0  0  0  0
   -3.7222   -0.4771    0.6453 N   0  0  0  0  0  0  0  0  0  0  0  0
   -3.4486   -0.6865    2.0599 C   0  0  0  0  0  0  0  0  0  0  0  0
   -2.1548    0.0141    2.3473 C   0  0  0  0  0  0  0  0  0  0  0  0
   -1.6901    0.5262    1.0084 C   0  0  0  0  0  0  0  0  0  0  0  0
   -2.4158   -0.3111    0.0287 C   0  0  1  0  0  0  0  0  0  0  0  0
   -1.7309   -1.6048   -0.2315 C   0  0  0  0  0  0  0  0  0  0  0  0
   -0.4472   -1.3722   -0.8453 N   0  0  0  0  0  0  0  0  0  0  0  0
    0.8134   -1.4689   -0.2137 C   0  0  0  0  0  0  0  0  0  0  0  0
    0.9820   -1.8534    1.0955 C   0  0  0  0  0  0  0  0  0  0  0  0
    2.2068   -1.9617    1.6661 C   0  0  0  0  0  0  0  0  0  0  0  0
    2.3116   -2.3444    2.9595 F   0  0  0  0  0  0  0  0  0  0  0  0
    3.3320   -1.6814    0.9248 C   0  0  0  0  0  0  0  0  0  0  0  0
    4.8993   -1.8298    1.6576 S   0  0  0  0  0  6  0  0  0  0  0  0
    5.0804   -3.2349    2.0972 O   0  0  0  0  0  0  0  0  0  0  0  0
    4.9680   -0.8861    2.8463 O   0  0  0  0  0  0  0  0  0  0  0  0
    6.0949   -1.3752    0.5018 N   0  0  0  0  0  0  0  0  0  0  0  0
    6.0910   -0.0302   -0.0213 C   0  0  0  0  0  0  0  0  0  0  0  0
    5.5617    1.0040    0.0092 N   0  0  0  0  0  0  0  0  0  0  0  0
    5.8263    2.1099   -0.6412 C   0  0  0  0  0  0  0  0  0  0  0  0
    6.8766    2.0760   -1.4916 C   0  0  0  0  0  0  0  0  0  0  0  0
    7.4501    0.3381   -1.2830 S   0  0  0  0  0  0  0  0  0  0  0  0
    3.1797   -1.2947   -0.3907 C   0  0  0  0  0  0  0  0  0  0  0  0
    1.9355   -1.1865   -0.9638 C   0  0  0  0  0  0  0  0  0  0  0  0
    1.7853   -0.6932   -2.6326 Cl  0  0  0  0  0  0  0  0  0  0  0  0
   -2.7261    0.4204   -1.2647 C   0  0  0  0  0  0  0  0  0  0  0  0
   -5.2842    0.2235   -2.0175 H   0  0  0  0  0  0  0  0  0  0  0  0
   -4.6059    1.7469   -2.8041 H   0  0  0  0  0  0  0  0  0  0  0  0
   -5.8189    1.8904   -1.5093 H   0  0  0  0  0  0  0  0  0  0  0  0
   -3.4665    3.2899    0.0893 H   0  0  0  0  0  0  0  0  0  0  0  0
   -2.2352    2.8252   -1.1212 H   0  0  0  0  0  0  0  0  0  0  0  0
   -3.8289    3.3996   -1.6452 H   0  0  0  0  0  0  0  0  0  0  0  0
   -4.0454    1.5263    1.3050 H   0  0  0  0  0  0  0  0  0  0  0  0
   -5.3966    0.7522    0.4438 H   0  0  0  0  0  0  0  0  0  0  0  0
   -4.2551   -0.2256    2.6919 H   0  0  0  0  0  0  0  0  0  0  0  0
   -3.4006   -1.7727    2.2790 H   0  0  0  0  0  0  0  0  0  0  0  0
   -1.4526   -0.7203    2.8111 H   0  0  0  0  0  0  0  0  0  0  0  0
   -2.2957    0.8517    3.0759 H   0  0  0  0  0  0  0  0  0  0  0  0
   -2.0078    1.6034    0.9828 H   0  0  0  0  0  0  0  0  0  0  0  0
   -0.5916    0.4880    0.8637 H   0  0  0  0  0  0  0  0  0  0  0  0
   -1.6313   -2.2430    0.6722 H   0  0  0  0  0  0  0  0  0  0  0  0
   -2.3631   -2.1603   -0.9831 H   0  0  0  0  0  0  0  0  0  0  0  0
   -0.4860   -1.1020   -1.8766 H   0  0  0  0  0  0  0  0  0  0  0  0
    0.1098   -2.0866    1.7001 H   0  0  0  0  0  0  0  0  0  0  0  0
    6.7857   -2.0786    0.2120 H   0  0  0  0  0  0  0  0  0  0  0  0
    5.2319    3.0503   -0.5204 H   0  0  0  0  0  0  0  0  0  0  0  0
    7.3632    2.7834   -2.1686 H   0  0  0  0  0  0  0  0  0  0  0  0
    4.0305   -1.0695   -1.0117 H   0  0  0  0  0  0  0  0  0  0  0  0
   -3.1533   -0.3442   -1.9574 H   0  0  0  0  0  0  0  0  0  0  0  0
   -1.8504    0.9152   -1.6906 H   0  0  0  0  0  0  0  0  0  0  0  0
  1  2  1  0
  2  3  1  0
  2  4  1  0
  4  5  1  0
  5  6  1  0
  6  7  1  0
  7  8  1  0
  8  9  1  0
  9 10  1  6
 10 11  1  0
 11 12  1  0
 12 13  2  0
 13 14  1  0
 14 15  1  0
 14 16  2  0
 16 17  1  0
 17 18  2  0
 17 19  2  0
 17 20  1  0
 20 21  1  0
 21 22  2  0
 22 23  1  0
 23 24  2  0
 24 25  1  0
 16 26  1  0
 26 27  2  0
 27 28  1  0
  9 29  1  0
 29  2  1  0
  9  5  1  0
 27 12  1  0
 25 21  1  0
  1 30  1  0
  1 31  1  0
  1 32  1  0
  3 33  1  0
  3 34  1  0
  3 35  1  0
  4 36  1  0
  4 37  1  0
  6 38  1  0
  6 39  1  0
  7 40  1  0
  7 41  1  0
  8 42  1  0
  8 43  1  0
 10 44  1  0
 10 45  1  0
 11 46  1  0
 13 47  1  0
 20 48  1  0
 23 49  1  0
 24 50  1  0
 26 51  1  0
 29 52  1  0
 29 53  1  0
M  END
$$$$
