@<TRIPOS>MOLECULE
*****
 53 56 0 0 0
SMALL
GASTEIGER

@<TRIPOS>ATOM
      1 C          -4.9694    1.2782   -1.8793 C.3     1  UNL1       -0.0586
      2 C          -3.8245    1.3506   -0.8660 C.3     1  UNL1       -0.0204
      3 C          -3.3289    2.7635   -0.8651 C.3     1  UNL1       -0.0586
      4 C          -4.2883    0.8681    0.4647 C.3     1  UNL1        0.0047
      5 N          -3.7222   -0.4771    0.6453 N.3     1  UNL1       -0.2947
      6 C          -3.4486   -0.6865    2.0599 C.3     1  UNL1       -0.0005
      7 C          -2.1548    0.0141    2.3473 C.3     1  UNL1       -0.0385
      8 C          -1.6901    0.5262    1.0084 C.3     1  UNL1       -0.0318
      9 C          -2.4158   -0.3111    0.0287 C.3     1  UNL1        0.0379
     10 C          -1.7309   -1.6048   -0.2315 C.3     1  UNL1        0.0276
     11 N          -0.4472   -1.3722   -0.8453 N.pl3   1  UNL1       -0.3409
     12 C           0.8134   -1.4689   -0.2137 C.ar    1  UNL1        0.0486
     13 C           0.9820   -1.8534    1.0955 C.ar    1  UNL1       -0.0022
     14 C           2.2068   -1.9617    1.6661 C.ar    1  UNL1        0.1517
     15 F           2.3116   -2.3444    2.9595 F       1  UNL1       -0.2034
     16 C           3.3320   -1.6814    0.9248 C.ar    1  UNL1        0.1450
     17 S           4.8993   -1.8298    1.6576 S.O2    1  UNL1        0.0766
     18 O           5.0804   -3.2349    2.0972 O.2     1  UNL1       -0.1498
     19 O           4.9680   -0.8861    2.8463 O.2     1  UNL1       -0.1498
     20 N           6.0949   -1.3752    0.5018 N.pl3   1  UNL1       -0.1937
     21 C           6.0910   -0.0302   -0.0213 C.ar    1  UNL1        0.1774
     22 N           5.5617    1.0040    0.0092 N.ar    1  UNL1       -0.2321
     23 C           5.8263    2.1099   -0.6412 C.ar    1  UNL1        0.0369
     24 C           6.8766    2.0760   -1.4916 C.ar    1  UNL1       -0.0030
     25 S           7.4501    0.3381   -1.2830 S.2     1  UNL1       -0.0594
     26 C           3.1797   -1.2947   -0.3907 C.ar    1  UNL1       -0.0121
     27 C           1.9355   -1.1865   -0.9638 C.ar    1  UNL1        0.0638
     28 CL          1.7853   -0.6932   -2.6326 Cl      1  UNL1       -0.0816
     29 C          -2.7261    0.4204   -1.2647 C.3     1  UNL1       -0.0267
     30 H          -5.2842    0.2235   -2.0175 H       1  UNL1        0.0235
     31 H          -4.6059    1.7469   -2.8041 H       1  UNL1        0.0235
     32 H          -5.8189    1.8904   -1.5093 H       1  UNL1        0.0235
     33 H          -3.4665    3.2899    0.0893 H       1  UNL1        0.0235
     34 H          -2.2352    2.8252   -1.1212 H       1  UNL1        0.0235
     35 H          -3.8289    3.3996   -1.6452 H       1  UNL1        0.0235
     36 H          -4.0454    1.5263    1.3050 H       1  UNL1        0.0432
     37 H          -5.3966    0.7522    0.4438 H       1  UNL1        0.0432
     38 H          -4.2551   -0.2256    2.6919 H       1  UNL1        0.0427
     39 H          -3.4006   -1.7727    2.2790 H       1  UNL1        0.0427
     40 H          -1.4526   -0.7203    2.8111 H       1  UNL1        0.0278
     41 H          -2.2957    0.8517    3.0759 H       1  UNL1        0.0278
     42 H          -2.0078    1.6034    0.9828 H       1  UNL1        0.0284
     43 H          -0.5916    0.4880    0.8637 H       1  UNL1        0.0284
     44 H          -1.6313   -2.2430    0.6722 H       1  UNL1        0.0479
     45 H          -2.3631   -2.1603   -0.9831 H       1  UNL1        0.0479
     46 H          -0.4860   -1.1020   -1.8766 H       1  UNL1        0.1462
     47 H           0.1098   -2.0866    1.7001 H       1  UNL1        0.0666
     48 H           6.7857   -2.0786    0.2120 H       1  UNL1        0.1758
     49 H           5.2319    3.0503   -0.5204 H       1  UNL1        0.0835
     50 H           7.3632    2.7834   -2.1686 H       1  UNL1        0.0710
     51 H           4.0305   -1.0695   -1.0117 H       1  UNL1        0.0653
     52 H          -3.1533   -0.3442   -1.9574 H       1  UNL1        0.0289
     53 H          -1.8504    0.9152   -1.6906 H       1  UNL1        0.0289
@<TRIPOS>BOND
     1     1     2    1
     2     2     3    1
     3     2     4    1
     4     4     5    1
     5     5     6    1
     6     6     7    1
     7     7     8    1
     8     8     9    1
     9     9    10    1
    10    10    11    1
    11    11    12    1
    12    12    13   ar
    13    13    14   ar
    14    14    15    1
    15    14    16   ar
    16    16    17    1
    17    17    18    2
    18    17    19    2
    19    17    20    1
    20    20    21    1
    21    21    22   ar
    22    22    23   ar
    23    23    24   ar
    24    24    25   ar
    25    16    26   ar
    26    26    27   ar
    27    27    28    1
    28     9    29    1
    29    29     2    1
    30     9     5    1
    31    27    12   ar
    32    25    21   ar
    33     1    30    1
    34     1    31    1
    35     1    32    1
    36     3    33    1
    37     3    34    1
    38     3    35    1
    39     4    36    1
    40     4    37    1
    41     6    38    1
    42     6    39    1
    43     7    40    1
    44     7    41    1
    45     8    42    1
    46     8    43    1
    47    10    44    1
    48    10    45    1
    49    11    46    1
    50    13    47    1
    51    20    48    1
    52    23    49    1
    53    24    50    1
    54    26    51    1
    55    29    52    1
    56    29    53    1
