
     RDKit          3D

 42 45  0  0  0  0  0  0  0  0999 V2000
   -5.4221   -0.8573   -2.2127 N   0  0  0  0  0  0  0  0  0  0  0  0
   -4.5931   -1.5810   -1.8623 C   0  0  0  0  0  0  0  0  0  0  0  0
   -3.5292   -2.4843   -1.4351 C   0  0  0  0  0  0  0  0  0  0  0  0
   -3.4400   -3.8409   -1.6644 C   0  0  0  0  0  0  0  0  0  0  0  0
   -2.3017   -4.2636   -1.0939 N   0  0  0  0  0  0  0  0  0  0  0  0
   -1.7226   -3.1879   -0.5362 C   0  0  0  0  0  0  0  0  0  0  0  0
   -0.5415   -3.0006    0.1857 C   0  0  0  0  0  0  0  0  0  0  0  0
   -0.1348   -1.7826    0.6735 C   0  0  0  0  0  0  0  0  0  0  0  0
   -0.9539   -0.6750    0.4292 C   0  0  0  0  0  0  0  0  0  0  0  0
   -0.5669    0.6325    0.9175 C   0  0  0  0  0  0  0  0  0  0  0  0
    0.5432    1.3334    0.5131 C   0  0  0  0  0  0  0  0  0  0  0  0
    1.5556    0.9418   -0.4706 C   0  0  0  0  0  0  0  0  0  0  0  0
    1.2561    0.6850   -1.7817 C   0  0  0  0  0  0  0  0  0  0  0  0
    2.2688    0.3179   -2.6465 C   0  0  0  0  0  0  0  0  0  0  0  0
    3.5682    0.2089   -2.2012 C   0  0  0  0  0  0  0  0  0  0  0  0
    3.8694    0.4698   -0.8704 C   0  0  0  0  0  0  0  0  0  0  0  0
    5.1805    0.3522   -0.4517 O   0  0  0  0  0  0  0  0  0  0  0  0
    5.9985    1.4956   -0.5344 C   0  0  0  0  0  0  0  0  0  0  0  0
    7.2737    1.2426   -0.0747 F   0  0  0  0  0  0  0  0  0  0  0  0
    5.4224    2.5545    0.1222 F   0  0  0  0  0  0  0  0  0  0  0  0
    6.1138    1.8529   -1.8862 F   0  0  0  0  0  0  0  0  0  0  0  0
    2.8532    0.8352   -0.0167 C   0  0  0  0  0  0  0  0  0  0  0  0
    0.6000    2.4955    1.1873 N   0  0  0  0  0  0  0  0  0  0  0  0
   -0.4371    2.5535    2.0062 C   0  0  0  0  0  0  0  0  0  0  0  0
   -1.1553    1.3989    1.8347 N   0  0  0  0  0  0  0  0  0  0  0  0
   -2.3613    1.1440    2.5616 C   0  0  0  0  0  0  0  0  0  0  0  0
   -3.5810    1.7325    1.9490 C   0  0  0  0  0  0  0  0  0  0  0  0
   -3.8843    1.3168    0.6953 F   0  0  0  0  0  0  0  0  0  0  0  0
   -4.6672    1.3591    2.7583 F   0  0  0  0  0  0  0  0  0  0  0  0
   -2.0797   -0.9076   -0.2700 N   0  0  0  0  0  0  0  0  0  0  0  0
   -2.4519   -2.0826   -0.7290 N   0  0  0  0  0  0  0  0  0  0  0  0
   -4.1882   -4.4146   -2.2150 H   0  0  0  0  0  0  0  0  0  0  0  0
    0.0973   -3.8552    0.3784 H   0  0  0  0  0  0  0  0  0  0  0  0
    0.7758   -1.6481    1.2282 H   0  0  0  0  0  0  0  0  0  0  0  0
    0.2224    0.7834   -2.0875 H   0  0  0  0  0  0  0  0  0  0  0  0
    1.9888    0.1213   -3.6901 H   0  0  0  0  0  0  0  0  0  0  0  0
    4.3411   -0.0839   -2.9121 H   0  0  0  0  0  0  0  0  0  0  0  0
    3.1253    1.0337    1.0255 H   0  0  0  0  0  0  0  0  0  0  0  0
   -0.7028    3.3541    2.7015 H   0  0  0  0  0  0  0  0  0  0  0  0
   -2.2588    1.5538    3.5857 H   0  0  0  0  0  0  0  0  0  0  0  0
   -2.5488    0.0434    2.6455 H   0  0  0  0  0  0  0  0  0  0  0  0
   -3.5318    2.8527    2.0106 H   0  0  0  0  0  0  0  0  0  0  0  0
  1  2  3  0
  2  3  1  0
  3  4  2  0
  4  5  1  0
  5  6  2  0
  6  7  1  0
  7  8  2  0
  8  9  1  0
  9 10  1  0
 10 11  2  0
 11 12  1  0
 12 13  2  0
 13 14  1  0
 14 15  2  0
 15 16  1  0
 16 17  1  0
 17 18  1  0
 18 19  1  0
 18 20  1  0
 18 21  1  0
 16 22  2  0
 11 23  1  0
 23 24  2  0
 24 25  1  0
 25 26  1  0
 26 27  1  0
 27 28  1  0
 27 29  1  0
  9 30  2  0
 30 31  1  0
 31  3  1  0
 31  6  1  0
 25 10  1  0
 22 12  1  0
  4 32  1  0
  7 33  1  0
  8 34  1  0
 13 35  1  0
 14 36  1  0
 15 37  1  0
 22 38  1  0
 24 39  1  0
 26 40  1  0
 26 41  1  0
 27 42  1  0
M  END
$$$$
