@<TRIPOS>MOLECULE
*****
 42 45 0 0 0
SMALL
GASTEIGER

@<TRIPOS>ATOM
      1 N          -5.4221   -0.8573   -2.2127 N.1     1  UNL1       -0.1892
      2 C          -4.5931   -1.5810   -1.8623 C.1     1  UNL1        0.1208
      3 C          -3.5292   -2.4843   -1.4351 C.ar    1  UNL1        0.1618
      4 C          -3.4400   -3.8409   -1.6644 C.ar    1  UNL1        0.0659
      5 N          -2.3017   -4.2636   -1.0939 N.ar    1  UNL1       -0.2333
      6 C          -1.7226   -3.1879   -0.5362 C.ar    1  UNL1        0.1555
      7 C          -0.5415   -3.0006    0.1857 C.ar    1  UNL1       -0.0153
      8 C          -0.1348   -1.7826    0.6735 C.ar    1  UNL1       -0.0290
      9 C          -0.9539   -0.6750    0.4292 C.ar    1  UNL1        0.1103
     10 C          -0.5669    0.6325    0.9175 C.ar    1  UNL1        0.0968
     11 C           0.5432    1.3334    0.5131 C.ar    1  UNL1        0.0983
     12 C           1.5556    0.9418   -0.4706 C.ar    1  UNL1        0.0059
     13 C           1.2561    0.6850   -1.7817 C.ar    1  UNL1       -0.0523
     14 C           2.2688    0.3179   -2.6465 C.ar    1  UNL1       -0.0577
     15 C           3.5682    0.2089   -2.2012 C.ar    1  UNL1       -0.0196
     16 C           3.8694    0.4698   -0.8704 C.ar    1  UNL1        0.1306
     17 O           5.1805    0.3522   -0.4517 O.3     1  UNL1       -0.4057
     18 C           5.9985    1.4956   -0.5344 C.3     1  UNL1        0.5752
     19 F           7.2737    1.2426   -0.0747 F       1  UNL1       -0.1328
     20 F           5.4224    2.5545    0.1222 F       1  UNL1       -0.1328
     21 F           6.1138    1.8529   -1.8862 F       1  UNL1       -0.1328
     22 C           2.8532    0.8352   -0.0167 C.ar    1  UNL1       -0.0104
     23 N           0.6000    2.4955    1.1873 N.ar    1  UNL1       -0.2351
     24 C          -0.4371    2.5535    2.0062 C.ar    1  UNL1        0.0973
     25 N          -1.1553    1.3989    1.8347 N.ar    1  UNL1       -0.3229
     26 C          -2.3613    1.1440    2.5616 C.3     1  UNL1        0.0852
     27 C          -3.5810    1.7325    1.9490 C.3     1  UNL1        0.2569
     28 F          -3.8843    1.3168    0.6953 F       1  UNL1       -0.2073
     29 F          -4.6672    1.3591    2.7583 F       1  UNL1       -0.2073
     30 N          -2.0797   -0.9076   -0.2700 N.ar    1  UNL1       -0.1623
     31 N          -2.4519   -2.0826   -0.7290 N.ar    1  UNL1       -0.2023
     32 H          -4.1882   -4.4146   -2.2150 H       1  UNL1        0.0859
     33 H           0.0973   -3.8552    0.3784 H       1  UNL1        0.0655
     34 H           0.7758   -1.6481    1.2282 H       1  UNL1        0.0641
     35 H           0.2224    0.7834   -2.0875 H       1  UNL1        0.0624
     36 H           1.9888    0.1213   -3.6901 H       1  UNL1        0.0619
     37 H           4.3411   -0.0839   -2.9121 H       1  UNL1        0.0654
     38 H           3.1253    1.0337    1.0255 H       1  UNL1        0.0661
     39 H          -0.7028    3.3541    2.7015 H       1  UNL1        0.1029
     40 H          -2.2588    1.5538    3.5857 H       1  UNL1        0.0548
     41 H          -2.5488    0.0434    2.6455 H       1  UNL1        0.0548
     42 H          -3.5318    2.8527    2.0106 H       1  UNL1        0.1037
@<TRIPOS>BOND
     1     1     2    3
     2     2     3    1
     3     3     4   ar
     4     4     5   ar
     5     5     6   ar
     6     6     7   ar
     7     7     8   ar
     8     8     9   ar
     9     9    10    1
    10    10    11   ar
    11    11    12    1
    12    12    13   ar
    13    13    14   ar
    14    14    15   ar
    15    15    16   ar
    16    16    17    1
    17    17    18    1
    18    18    19    1
    19    18    20    1
    20    18    21    1
    21    16    22   ar
    22    11    23   ar
    23    23    24   ar
    24    24    25   ar
    25    25    26    1
    26    26    27    1
    27    27    28    1
    28    27    29    1
    29     9    30   ar
    30    30    31   ar
    31    31     3   ar
    32    31     6   ar
    33    25    10   ar
    34    22    12   ar
    35     4    32    1
    36     7    33    1
    37     8    34    1
    38    13    35    1
    39    14    36    1
    40    15    37    1
    41    22    38    1
    42    24    39    1
    43    26    40    1
    44    26    41    1
    45    27    42    1
