@<TRIPOS>MOLECULE
*****
 39 41 0 0 0
SMALL
GASTEIGER

@<TRIPOS>ATOM
      1 C          -3.9719    1.6789    0.0786 C.3     1  UNL1       -0.0621
      2 C          -4.0264    0.4048    0.8519 C.3     1  UNL1       -0.0387
      3 C          -5.0399   -0.5652    0.3193 C.3     1  UNL1       -0.0498
      4 C          -4.7807   -1.0301   -1.0700 C.3     1  UNL1       -0.0476
      5 C          -3.3451   -1.3930   -1.3629 C.3     1  UNL1       -0.0128
      6 C          -2.3772   -0.5505   -0.6173 C.2     1  UNL1        0.0371
      7 N          -1.3156   -0.0394   -1.1230 N.2     1  UNL1       -0.1898
      8 N          -0.4869    0.7290   -0.3306 N.pl3   1  UNL1       -0.2153
      9 C           0.7388    0.3155    0.1836 C.ar    1  UNL1        0.1783
     10 N           1.9777    0.3805   -0.1374 N.ar    1  UNL1       -0.2235
     11 C           2.9793   -0.0995    0.5253 C.ar    1  UNL1        0.0830
     12 C           4.3898    0.0659    0.0248 C.ar    1  UNL1        0.0363
     13 C           4.6096    0.7320   -1.1584 C.ar    1  UNL1       -0.0471
     14 C           5.8881    0.9024   -1.6222 C.ar    1  UNL1       -0.0257
     15 C           6.9934    0.4312   -0.9521 C.ar    1  UNL1        0.1262
     16 F           8.2600    0.6104   -1.4240 F       1  UNL1       -0.2054
     17 C           6.7376   -0.2304    0.2270 C.ar    1  UNL1        0.0095
     18 C           5.4433   -0.4209    0.7278 C.ar    1  UNL1        0.1353
     19 F           5.3202   -1.0865    1.8943 F       1  UNL1       -0.2047
     20 C           2.7067   -0.7472    1.6918 C.ar    1  UNL1        0.0050
     21 S           0.9073   -0.6259    1.7850 S.2     1  UNL1       -0.0586
     22 C          -2.6812   -0.2934    0.8129 C.3     1  UNL1       -0.0102
     23 H          -3.2288    2.3722    0.5378 H       1  UNL1        0.0233
     24 H          -4.9555    2.1889    0.1547 H       1  UNL1        0.0233
     25 H          -3.7006    1.5586   -0.9747 H       1  UNL1        0.0233
     26 H          -4.3234    0.6567    1.8968 H       1  UNL1        0.0302
     27 H          -6.0414   -0.0976    0.3386 H       1  UNL1        0.0268
     28 H          -5.0313   -1.4509    1.0077 H       1  UNL1        0.0268
     29 H          -5.3883   -1.9574   -1.2342 H       1  UNL1        0.0269
     30 H          -5.1355   -0.2440   -1.7737 H       1  UNL1        0.0269
     31 H          -3.1098   -2.4406   -1.1278 H       1  UNL1        0.0325
     32 H          -3.1989   -1.1998   -2.4568 H       1  UNL1        0.0325
     33 H          -0.8130    1.7037   -0.1025 H       1  UNL1        0.1765
     34 H           3.7613    1.1358   -1.7466 H       1  UNL1        0.0626
     35 H           6.0810    1.4329   -2.5680 H       1  UNL1        0.0646
     36 H           7.5453   -0.6271    0.8046 H       1  UNL1        0.0675
     37 H           3.2964   -1.2478    2.4563 H       1  UNL1        0.0716
     38 H          -2.7912   -1.2825    1.3144 H       1  UNL1        0.0328
     39 H          -1.8932    0.3302    1.2951 H       1  UNL1        0.0328
@<TRIPOS>BOND
     1     1     2    1
     2     2     3    1
     3     3     4    1
     4     4     5    1
     5     5     6    1
     6     6     7    2
     7     7     8    1
     8     8     9    1
     9     9    10   ar
    10    10    11   ar
    11    11    12    1
    12    12    13   ar
    13    13    14   ar
    14    14    15   ar
    15    15    16    1
    16    15    17   ar
    17    17    18   ar
    18    18    19    1
    19    11    20   ar
    20    20    21   ar
    21     6    22    1
    22    22     2    1
    23    21     9   ar
    24    18    12   ar
    25     1    23    1
    26     1    24    1
    27     1    25    1
    28     2    26    1
    29     3    27    1
    30     3    28    1
    31     4    29    1
    32     4    30    1
    33     5    31    1
    34     5    32    1
    35     8    33    1
    36    13    34    1
    37    14    35    1
    38    17    36    1
    39    20    37    1
    40    22    38    1
    41    22    39    1
