
     RDKit          3D

 39 41  0  0  0  0  0  0  0  0999 V2000
   -3.9719    1.6789    0.0786 C   0  0  0  0  0  0  0  0  0  0  0  0
   -4.0264    0.4048    0.8519 C   0  0  0  0  0  0  0  0  0  0  0  0
   -5.0399   -0.5652    0.3193 C   0  0  0  0  0  0  0  0  0  0  0  0
   -4.7807   -1.0301   -1.0700 C   0  0  0  0  0  0  0  0  0  0  0  0
   -3.3451   -1.3930   -1.3629 C   0  0  0  0  0  0  0  0  0  0  0  0
   -2.3772   -0.5505   -0.6173 C   0  0  0  0  0  0  0  0  0  0  0  0
   -1.3156   -0.0394   -1.1230 N   0  0  0  0  0  0  0  0  0  0  0  0
   -0.4869    0.7290   -0.3306 N   0  0  0  0  0  0  0  0  0  0  0  0
    0.7388    0.3155    0.1836 C   0  0  0  0  0  0  0  0  0  0  0  0
    1.9777    0.3805   -0.1374 N   0  0  0  0  0  0  0  0  0  0  0  0
    2.9793   -0.0995    0.5253 C   0  0  0  0  0  0  0  0  0  0  0  0
    4.3898    0.0659    0.0248 C   0  0  0  0  0  0  0  0  0  0  0  0
    4.6096    0.7320   -1.1584 C   0  0  0  0  0  0  0  0  0  0  0  0
    5.8881    0.9024   -1.6222 C   0  0  0  0  0  0  0  0  0  0  0  0
    6.9934    0.4312   -0.9521 C   0  0  0  0  0  0  0  0  0  0  0  0
    8.2600    0.6104   -1.4240 F   0  0  0  0  0  0  0  0  0  0  0  0
    6.7376   -0.2304    0.2270 C   0  0  0  0  0  0  0  0  0  0  0  0
    5.4433   -0.4209    0.7278 C   0  0  0  0  0  0  0  0  0  0  0  0
    5.3202   -1.0865    1.8943 F   0  0  0  0  0  0  0  0  0  0  0  0
    2.7067   -0.7472    1.6918 C   0  0  0  0  0  0  0  0  0  0  0  0
    0.9073   -0.6259    1.7850 S   0  0  0  0  0  0  0  0  0  0  0  0
   -2.6812   -0.2934    0.8129 C   0  0  0  0  0  0  0  0  0  0  0  0
   -3.2288    2.3722    0.5378 H   0  0  0  0  0  0  0  0  0  0  0  0
   -4.9555    2.1889    0.1547 H   0  0  0  0  0  0  0  0  0  0  0  0
   -3.7006    1.5586   -0.9747 H   0  0  0  0  0  0  0  0  0  0  0  0
   -4.3234    0.6567    1.8968 H   0  0  0  0  0  0  0  0  0  0  0  0
   -6.0414   -0.0976    0.3386 H   0  0  0  0  0  0  0  0  0  0  0  0
   -5.0313   -1.4509    1.0077 H   0  0  0  0  0  0  0  0  0  0  0  0
   -5.3883   -1.9574   -1.2342 H   0  0  0  0  0  0  0  0  0  0  0  0
   -5.1355   -0.2440   -1.7737 H   0  0  0  0  0  0  0  0  0  0  0  0
   -3.1098   -2.4406   -1.1278 H   0  0  0  0  0  0  0  0  0  0  0  0
   -3.1989   -1.1998   -2.4568 H   0  0  0  0  0  0  0  0  0  0  0  0
   -0.8130    1.7037   -0.1025 H   0  0  0  0  0  0  0  0  0  0  0  0
    3.7613    1.1358   -1.7466 H   0  0  0  0  0  0  0  0  0  0  0  0
    6.0810    1.4329   -2.5680 H   0  0  0  0  0  0  0  0  0  0  0  0
    7.5453   -0.6271    0.8046 H   0  0  0  0  0  0  0  0  0  0  0  0
    3.2964   -1.2478    2.4563 H   0  0  0  0  0  0  0  0  0  0  0  0
   -2.7912   -1.2825    1.3144 H   0  0  0  0  0  0  0  0  0  0  0  0
   -1.8932    0.3302    1.2951 H   0  0  0  0  0  0  0  0  0  0  0  0
  1  2  1  0
  2  3  1  0
  3  4  1  0
  4  5  1  0
  5  6  1  0
  6  7  2  3
  7  8  1  0
  8  9  1  0
  9 10  2  0
 10 11  1  0
 11 12  1  0
 12 13  2  0
 13 14  1  0
 14 15  2  0
 15 16  1  0
 15 17  1  0
 17 18  2  0
 18 19  1  0
 11 20  2  0
 20 21  1  0
  6 22  1  0
 22  2  1  0
 21  9  1  0
 18 12  1  0
  1 23  1  0
  1 24  1  0
  1 25  1  0
  2 26  1  0
  3 27  1  0
  3 28  1  0
  4 29  1  0
  4 30  1  0
  5 31  1  0
  5 32  1  0
  8 33  1  0
 13 34  1  0
 14 35  1  0
 17 36  1  0
 20 37  1  0
 22 38  1  0
 22 39  1  0
M  END
$$$$
