
     RDKit          3D

 56 60  0  0  0  0  0  0  0  0999 V2000
    4.8707   -1.9200    1.2117 O   0  0  0  0  0  0  0  0  0  0  0  0
    3.8329   -2.0351    0.1301 S   0  0  0  0  0  6  0  0  0  0  0  0
    4.1573   -3.2727   -0.6778 O   0  0  0  0  0  0  0  0  0  0  0  0
    2.2268   -2.2636    0.8936 C   0  0  0  0  0  0  0  0  0  0  0  0
    1.2770   -1.7432   -0.1410 C   0  0  0  0  0  0  0  0  0  0  0  0
    1.3590   -0.2170   -0.3136 C   0  0  0  0  0  0  0  0  0  0  0  0
    1.8725    0.4905    0.9003 C   0  0  0  0  0  0  0  0  0  0  0  0
    0.9341    0.7516    2.0015 C   0  0  0  0  0  0  0  0  0  0  0  0
   -0.4750    0.5523    1.5750 C   0  0  0  0  0  0  0  0  0  0  0  0
   -0.8256    1.0144    0.2012 C   0  0  1  0  0  0  0  0  0  0  0  0
   -2.5015    0.3256   -0.0225 S   0  0  0  0  0  6  0  0  0  0  0  0
   -3.3939    0.9157    1.0633 O   0  0  0  0  0  0  0  0  0  0  0  0
   -3.0439    0.8508   -1.3210 O   0  0  0  0  0  0  0  0  0  0  0  0
   -2.5410   -1.3811    0.0918 C   0  0  0  0  0  0  0  0  0  0  0  0
   -2.4613   -2.1644   -1.0302 C   0  0  0  0  0  0  0  0  0  0  0  0
   -2.4874   -3.5600   -0.9617 C   0  0  0  0  0  0  0  0  0  0  0  0
   -2.5967   -4.1607    0.2721 C   0  0  0  0  0  0  0  0  0  0  0  0
   -2.6328   -5.9245    0.3965 Cl  0  0  0  0  0  0  0  0  0  0  0  0
   -2.6757   -3.3759    1.3833 C   0  0  0  0  0  0  0  0  0  0  0  0
   -2.6497   -1.9920    1.3149 C   0  0  0  0  0  0  0  0  0  0  0  0
   -1.0391    2.4477    0.0254 C   0  0  0  0  0  0  0  0  0  0  0  0
   -1.2329    3.3547    1.0423 C   0  0  0  0  0  0  0  0  0  0  0  0
   -1.2014    2.9707    2.3082 F   0  0  0  0  0  0  0  0  0  0  0  0
   -1.4729    4.6958    0.8024 C   0  0  0  0  0  0  0  0  0  0  0  0
   -1.5289    5.1856   -0.4831 C   0  0  0  0  0  0  0  0  0  0  0  0
   -1.3401    4.3115   -1.5152 C   0  0  0  0  0  0  0  0  0  0  0  0
   -1.3919    4.7601   -2.7765 F   0  0  0  0  0  0  0  0  0  0  0  0
   -1.0957    2.9495   -1.2597 C   0  0  0  0  0  0  0  0  0  0  0  0
   -0.8955    2.0225   -2.2695 O   0  0  0  0  0  0  0  0  0  0  0  0
    0.1942    1.0999   -2.0893 C   0  0  0  0  0  0  0  0  0  0  0  0
    0.0548    0.3290   -0.8009 C   0  0  1  0  0  0  0  0  0  0  0  0
    2.4991   -0.0621   -1.3026 C   0  0  0  0  0  0  0  0  0  0  0  0
    3.8162   -0.5972   -0.8286 C   0  0  0  0  0  0  0  0  0  0  0  0
    2.1545   -1.8467    1.8858 H   0  0  0  0  0  0  0  0  0  0  0  0
    2.0489   -3.3530    0.9664 H   0  0  0  0  0  0  0  0  0  0  0  0
    1.6102   -2.2656   -1.0981 H   0  0  0  0  0  0  0  0  0  0  0  0
    0.2549   -2.1225   -0.0455 H   0  0  0  0  0  0  0  0  0  0  0  0
    2.7777   -0.0024    1.2921 H   0  0  0  0  0  0  0  0  0  0  0  0
    2.2440    1.4925    0.5201 H   0  0  0  0  0  0  0  0  0  0  0  0
    1.1567    1.7447    2.4665 H   0  0  0  0  0  0  0  0  0  0  0  0
    1.0959    0.0488    2.8771 H   0  0  0  0  0  0  0  0  0  0  0  0
   -1.2437    0.7437    2.3553 H   0  0  0  0  0  0  0  0  0  0  0  0
   -0.5910   -0.5823    1.5258 H   0  0  0  0  0  0  0  0  0  0  0  0
   -2.3766   -1.7756   -2.0438 H   0  0  0  0  0  0  0  0  0  0  0  0
   -2.4251   -4.1791   -1.8391 H   0  0  0  0  0  0  0  0  0  0  0  0
   -2.7614   -3.8434    2.3511 H   0  0  0  0  0  0  0  0  0  0  0  0
   -2.7179   -1.4212    2.2549 H   0  0  0  0  0  0  0  0  0  0  0  0
   -1.6244    5.4045    1.6047 H   0  0  0  0  0  0  0  0  0  0  0  0
   -1.7171    6.2374   -0.6969 H   0  0  0  0  0  0  0  0  0  0  0  0
    0.1598    0.3933   -2.9753 H   0  0  0  0  0  0  0  0  0  0  0  0
    1.1085    1.7248   -2.1494 H   0  0  0  0  0  0  0  0  0  0  0  0
   -0.4920   -0.6281   -1.1526 H   0  0  0  0  0  0  0  0  0  0  0  0
    2.7333    0.9844   -1.5744 H   0  0  0  0  0  0  0  0  0  0  0  0
    2.1750   -0.5549   -2.2523 H   0  0  0  0  0  0  0  0  0  0  0  0
    4.3956    0.2340   -0.3279 H   0  0  0  0  0  0  0  0  0  0  0  0
    4.4227   -0.7919   -1.7648 H   0  0  0  0  0  0  0  0  0  0  0  0
  1  2  2  0
  2  3  2  0
  2  4  1  0
  4  5  1  0
  5  6  1  0
  6  7  1  0
  7  8  1  0
  8  9  1  0
  9 10  1  0
 10 11  1  6
 11 12  2  0
 11 13  2  0
 11 14  1  0
 14 15  2  0
 15 16  1  0
 16 17  2  0
 17 18  1  0
 17 19  1  0
 19 20  2  0
 10 21  1  0
 21 22  2  0
 22 23  1  0
 22 24  1  0
 24 25  2  0
 25 26  1  0
 26 27  1  0
 26 28  2  0
 28 29  1  0
 29 30  1  0
 30 31  1  0
  6 32  1  0
 32 33  1  0
 33  2  1  0
 31  6  1  0
 31 10  1  0
 20 14  1  0
 28 21  1  0
  4 34  1  0
  4 35  1  0
  5 36  1  0
  5 37  1  0
  7 38  1  0
  7 39  1  0
  8 40  1  0
  8 41  1  0
  9 42  1  0
  9 43  1  0
 15 44  1  0
 16 45  1  0
 19 46  1  0
 20 47  1  0
 24 48  1  0
 25 49  1  0
 30 50  1  0
 30 51  1  0
 31 52  1  6
 32 53  1  0
 32 54  1  0
 33 55  1  0
 33 56  1  0
M  END
$$$$
