@<TRIPOS>MOLECULE
*****
 56 60 0 0 0
SMALL
GASTEIGER

@<TRIPOS>ATOM
      1 O           4.8707   -1.9200    1.2117 O.2     1  UNL1       -0.1744
      2 S           3.8329   -2.0351    0.1301 S.O2    1  UNL1       -0.0310
      3 O           4.1573   -3.2727   -0.6778 O.2     1  UNL1       -0.1744
      4 C           2.2268   -2.2636    0.8936 C.3     1  UNL1        0.0663
      5 C           1.2770   -1.7432   -0.1410 C.3     1  UNL1       -0.0274
      6 C           1.3590   -0.2170   -0.3136 C.3     1  UNL1       -0.0180
      7 C           1.8725    0.4905    0.9003 C.3     1  UNL1       -0.0468
      8 C           0.9341    0.7516    2.0015 C.3     1  UNL1       -0.0502
      9 C          -0.4750    0.5523    1.5750 C.3     1  UNL1       -0.0227
     10 C          -0.8256    1.0144    0.2012 C.3     1  UNL1        0.1301
     11 S          -2.5015    0.3256   -0.0225 S.O2    1  UNL1        0.0072
     12 O          -3.3939    0.9157    1.0633 O.2     1  UNL1       -0.1685
     13 O          -3.0439    0.8508   -1.3210 O.2     1  UNL1       -0.1685
     14 C          -2.5410   -1.3811    0.0918 C.ar    1  UNL1        0.0893
     15 C          -2.4613   -2.1644   -1.0302 C.ar    1  UNL1       -0.0355
     16 C          -2.4874   -3.5600   -0.9617 C.ar    1  UNL1       -0.0416
     17 C          -2.5967   -4.1607    0.2721 C.ar    1  UNL1        0.0411
     18 CL         -2.6328   -5.9245    0.3965 Cl      1  UNL1       -0.0835
     19 C          -2.6757   -3.3759    1.3833 C.ar    1  UNL1       -0.0416
     20 C          -2.6497   -1.9920    1.3149 C.ar    1  UNL1       -0.0355
     21 C          -1.0391    2.4477    0.0254 C.ar    1  UNL1        0.0600
     22 C          -1.2329    3.3547    1.0423 C.ar    1  UNL1        0.1323
     23 F          -1.2014    2.9707    2.3082 F       1  UNL1       -0.2050
     24 C          -1.4729    4.6958    0.8024 C.ar    1  UNL1       -0.0232
     25 C          -1.5289    5.1856   -0.4831 C.ar    1  UNL1       -0.0201
     26 C          -1.3401    4.3115   -1.5152 C.ar    1  UNL1        0.1653
     27 F          -1.3919    4.7601   -2.7765 F       1  UNL1       -0.2016
     28 C          -1.0957    2.9495   -1.2597 C.ar    1  UNL1        0.1635
     29 O          -0.8955    2.0225   -2.2695 O.3     1  UNL1       -0.4883
     30 C           0.1942    1.0999   -2.0893 C.3     1  UNL1        0.0954
     31 C           0.0548    0.3290   -0.8009 C.3     1  UNL1        0.0287
     32 C           2.4991   -0.0621   -1.3026 C.3     1  UNL1       -0.0274
     33 C           3.8162   -0.5972   -0.8286 C.3     1  UNL1        0.0663
     34 H           2.1545   -1.8467    1.8858 H       1  UNL1        0.0500
     35 H           2.0489   -3.3530    0.9664 H       1  UNL1        0.0500
     36 H           1.6102   -2.2656   -1.0981 H       1  UNL1        0.0286
     37 H           0.2549   -2.1225   -0.0455 H       1  UNL1        0.0286
     38 H           2.7777   -0.0024    1.2921 H       1  UNL1        0.0271
     39 H           2.2440    1.4925    0.5201 H       1  UNL1        0.0271
     40 H           1.1567    1.7447    2.4665 H       1  UNL1        0.0266
     41 H           1.0959    0.0488    2.8771 H       1  UNL1        0.0266
     42 H          -1.2437    0.7437    2.3553 H       1  UNL1        0.0290
     43 H          -0.5910   -0.5823    1.5258 H       1  UNL1        0.0290
     44 H          -2.3766   -1.7756   -2.0438 H       1  UNL1        0.0637
     45 H          -2.4251   -4.1791   -1.8391 H       1  UNL1        0.0633
     46 H          -2.7614   -3.8434    2.3511 H       1  UNL1        0.0633
     47 H          -2.7179   -1.4212    2.2549 H       1  UNL1        0.0637
     48 H          -1.6244    5.4045    1.6047 H       1  UNL1        0.0647
     49 H          -1.7171    6.2374   -0.6969 H       1  UNL1        0.0648
     50 H           0.1598    0.3933   -2.9753 H       1  UNL1        0.0700
     51 H           1.1085    1.7248   -2.1494 H       1  UNL1        0.0700
     52 H          -0.4920   -0.6281   -1.1526 H       1  UNL1        0.0364
     53 H           2.7333    0.9844   -1.5744 H       1  UNL1        0.0286
     54 H           2.1750   -0.5549   -2.2523 H       1  UNL1        0.0286
     55 H           4.3956    0.2340   -0.3279 H       1  UNL1        0.0500
     56 H           4.4227   -0.7919   -1.7648 H       1  UNL1        0.0500
@<TRIPOS>BOND
     1     1     2    2
     2     2     3    2
     3     2     4    1
     4     4     5    1
     5     5     6    1
     6     6     7    1
     7     7     8    1
     8     8     9    1
     9     9    10    1
    10    10    11    1
    11    11    12    2
    12    11    13    2
    13    11    14    1
    14    14    15   ar
    15    15    16   ar
    16    16    17   ar
    17    17    18    1
    18    17    19   ar
    19    19    20   ar
    20    10    21    1
    21    21    22   ar
    22    22    23    1
    23    22    24   ar
    24    24    25   ar
    25    25    26   ar
    26    26    27    1
    27    26    28   ar
    28    28    29    1
    29    29    30    1
    30    30    31    1
    31     6    32    1
    32    32    33    1
    33    33     2    1
    34    31     6    1
    35    31    10    1
    36    20    14   ar
    37    28    21   ar
    38     4    34    1
    39     4    35    1
    40     5    36    1
    41     5    37    1
    42     7    38    1
    43     7    39    1
    44     8    40    1
    45     8    41    1
    46     9    42    1
    47     9    43    1
    48    15    44    1
    49    16    45    1
    50    19    46    1
    51    20    47    1
    52    24    48    1
    53    25    49    1
    54    30    50    1
    55    30    51    1
    56    31    52    1
    57    32    53    1
    58    32    54    1
    59    33    55    1
    60    33    56    1
