
     RDKit          3D

 50 53  0  0  0  0  0  0  0  0999 V2000
   -5.8269    1.7252    0.0559 C   0  0  0  0  0  0  0  0  0  0  0  0
   -5.0395    2.2229   -1.0408 N   0  0  0  0  0  0  0  0  0  0  0  0
   -5.5563    3.2741   -1.8781 C   0  0  0  0  0  0  0  0  0  0  0  0
   -3.7489    1.6720   -1.2952 C   0  0  0  0  0  0  0  0  0  0  0  0
   -3.0620    2.1050   -2.2555 O   0  0  0  0  0  0  0  0  0  0  0  0
   -3.1859    0.5954   -0.4568 C   0  0  2  0  0  0  0  0  0  0  0  0
   -2.9846    0.9702    1.0251 C   0  0  0  0  0  0  0  0  0  0  0  0
   -1.8358    0.6452    0.1199 C   0  0  1  0  0  0  0  0  0  0  0  0
   -1.1062   -0.6457    0.1843 C   0  0  1  0  0  0  0  0  0  0  0  0
   -0.7503   -1.1791   -1.1980 C   0  0  0  0  0  0  0  0  0  0  0  0
    0.2218   -0.3495    0.8405 C   0  0  0  0  0  0  0  0  0  0  0  0
    1.4215   -0.4491    0.1701 C   0  0  0  0  0  0  0  0  0  0  0  0
    2.6457   -0.1723    0.7838 C   0  0  0  0  0  0  0  0  0  0  0  0
    3.8731   -0.2899    0.0177 C   0  0  0  0  0  0  0  0  0  0  0  0
    4.9893   -0.7838    0.5119 C   0  0  0  0  0  0  0  0  0  0  0  0
    4.9789   -1.1979    1.7929 F   0  0  0  0  0  0  0  0  0  0  0  0
    6.1763   -0.8540   -0.3563 C   0  0  0  0  0  0  0  0  0  0  0  0
    6.5965   -0.6309   -1.4156 N   0  0  0  0  0  0  0  0  0  0  0  0
    7.7873   -0.8315   -1.8928 C   0  0  0  0  0  0  0  0  0  0  0  0
    8.7220   -1.3812   -1.0791 C   0  0  0  0  0  0  0  0  0  0  0  0
   10.0756   -1.7491   -1.1874 C   0  0  0  0  0  0  0  0  0  0  0  0
   11.2031   -2.0350   -1.2723 N   0  0  0  0  0  0  0  0  0  0  0  0
    7.6968   -1.5817    0.4626 S   0  0  0  0  0  0  0  0  0  0  0  0
    2.6292    0.2108    2.1026 C   0  0  0  0  0  0  0  0  0  0  0  0
    1.4526    0.3280    2.8270 C   0  0  0  0  0  0  0  0  0  0  0  0
    0.2644    0.0396    2.1638 C   0  0  0  0  0  0  0  0  0  0  0  0
   -0.9077    0.1428    2.8454 F   0  0  0  0  0  0  0  0  0  0  0  0
   -1.7543   -1.7158    0.8893 N   0  0  0  0  0  0  0  0  0  0  0  0
   -2.9608   -2.0532    0.6393 C   0  0  0  0  0  0  0  0  0  0  0  0
   -3.6738   -3.0937    1.2832 N   0  0  0  0  0  0  0  0  0  0  0  0
   -3.8250   -1.0979   -0.6337 S   0  0  0  0  0  0  0  0  0  0  0  0
   -6.9083    2.0168   -0.0820 H   0  0  0  0  0  0  0  0  0  0  0  0
   -5.5400    2.0801    1.0443 H   0  0  0  0  0  0  0  0  0  0  0  0
   -5.8217    0.6076   -0.0389 H   0  0  0  0  0  0  0  0  0  0  0  0
   -5.5567    3.0063   -2.9634 H   0  0  0  0  0  0  0  0  0  0  0  0
   -4.9271    4.1822   -1.7855 H   0  0  0  0  0  0  0  0  0  0  0  0
   -6.5865    3.5814   -1.5529 H   0  0  0  0  0  0  0  0  0  0  0  0
   -3.3576    0.2922    1.7903 H   0  0  0  0  0  0  0  0  0  0  0  0
   -3.1613    2.0469    1.3025 H   0  0  0  0  0  0  0  0  0  0  0  0
   -1.2084    1.5347   -0.1261 H   0  0  0  0  0  0  0  0  0  0  0  0
   -0.3086   -0.3861   -1.8055 H   0  0  0  0  0  0  0  0  0  0  0  0
   -0.0853   -2.0584   -1.0255 H   0  0  0  0  0  0  0  0  0  0  0  0
   -1.6115   -1.5713   -1.7550 H   0  0  0  0  0  0  0  0  0  0  0  0
    1.4433   -0.7466   -0.8593 H   0  0  0  0  0  0  0  0  0  0  0  0
    3.8788    0.0430   -1.0115 H   0  0  0  0  0  0  0  0  0  0  0  0
    8.0711   -0.5690   -2.9443 H   0  0  0  0  0  0  0  0  0  0  0  0
    3.5963    0.4285    2.5726 H   0  0  0  0  0  0  0  0  0  0  0  0
    1.4378    0.6281    3.8593 H   0  0  0  0  0  0  0  0  0  0  0  0
   -3.6225   -3.1951    2.3262 H   0  0  0  0  0  0  0  0  0  0  0  0
   -4.2477   -3.7611    0.7522 H   0  0  0  0  0  0  0  0  0  0  0  0
  1  2  1  0
  2  3  1  0
  2  4  1  0
  4  5  2  0
  6  4  1  6
  6  7  1  0
  7  8  1  0
  8  9  1  0
  9 10  1  6
  9 11  1  0
 11 12  2  0
 12 13  1  0
 13 14  1  0
 14 15  2  0
 15 16  1  0
 15 17  1  0
 17 18  2  0
 18 19  1  0
 19 20  2  0
 20 21  1  0
 21 22  3  0
 20 23  1  0
 13 24  2  0
 24 25  1  0
 25 26  2  0
 26 27  1  0
  9 28  1  0
 28 29  2  0
 29 30  1  0
 29 31  1  0
  8  6  1  0
 26 11  1  0
 31  6  1  0
 23 17  1  0
  1 32  1  0
  1 33  1  0
  1 34  1  0
  3 35  1  0
  3 36  1  0
  3 37  1  0
  7 38  1  0
  7 39  1  0
  8 40  1  6
 10 41  1  0
 10 42  1  0
 10 43  1  0
 12 44  1  0
 14 45  1  0
 19 46  1  0
 24 47  1  0
 25 48  1  0
 30 49  1  0
 30 50  1  0
M  END
$$$$
