@<TRIPOS>MOLECULE
*****
 50 53 0 0 0
SMALL
GASTEIGER

@<TRIPOS>ATOM
      1 C          -5.8269    1.7252    0.0559 C.3     1  UNL1        0.0029
      2 N          -5.0395    2.2229   -1.0408 N.am    1  UNL1       -0.3064
      3 C          -5.5563    3.2741   -1.8781 C.3     1  UNL1        0.0029
      4 C          -3.7489    1.6720   -1.2952 C.2     1  UNL1        0.2319
      5 O          -3.0620    2.1050   -2.2555 O.2     1  UNL1       -0.2741
      6 C          -3.1859    0.5954   -0.4568 C.3     1  UNL1        0.1054
      7 C          -2.9846    0.9702    1.0251 C.3     1  UNL1       -0.0220
      8 C          -1.8358    0.6452    0.1199 C.3     1  UNL1        0.0134
      9 C          -1.1062   -0.6457    0.1843 C.3     1  UNL1        0.0935
     10 C          -0.7503   -1.1791   -1.1980 C.3     1  UNL1       -0.0351
     11 C           0.2218   -0.3495    0.8405 C.ar    1  UNL1        0.0158
     12 C           1.4215   -0.4491    0.1701 C.ar    1  UNL1       -0.0463
     13 C           2.6457   -0.1723    0.7838 C.ar    1  UNL1       -0.0217
     14 C           3.8731   -0.2899    0.0177 C.2     1  UNL1       -0.0166
     15 C           4.9893   -0.7838    0.5119 C.2     1  UNL1        0.1559
     16 F           4.9789   -1.1979    1.7929 F       1  UNL1       -0.2027
     17 C           6.1763   -0.8540   -0.3563 C.ar    1  UNL1        0.1374
     18 N           6.5965   -0.6309   -1.4156 N.ar    1  UNL1       -0.2437
     19 C           7.7873   -0.8315   -1.8928 C.ar    1  UNL1        0.0530
     20 C           8.7220   -1.3812   -1.0791 C.ar    1  UNL1        0.1088
     21 C          10.0756   -1.7491   -1.1874 C.1     1  UNL1        0.1079
     22 N          11.2031   -2.0350   -1.2723 N.1     1  UNL1       -0.1903
     23 S           7.6968   -1.5817    0.4626 S.2     1  UNL1       -0.0546
     24 C           2.6292    0.2108    2.1026 C.ar    1  UNL1       -0.0518
     25 C           1.4526    0.3280    2.8270 C.ar    1  UNL1       -0.0255
     26 C           0.2644    0.0396    2.1638 C.ar    1  UNL1        0.1289
     27 F          -0.9077    0.1428    2.8454 F       1  UNL1       -0.2051
     28 N          -1.7543   -1.7158    0.8893 N.2     1  UNL1       -0.2521
     29 C          -2.9608   -2.0532    0.6393 C.2     1  UNL1        0.1485
     30 N          -3.6738   -3.0937    1.2832 N.pl3   1  UNL1       -0.3380
     31 S          -3.8250   -1.0979   -0.6337 S.3     1  UNL1       -0.0746
     32 H          -6.9083    2.0168   -0.0820 H       1  UNL1        0.0428
     33 H          -5.5400    2.0801    1.0443 H       1  UNL1        0.0428
     34 H          -5.8217    0.6076   -0.0389 H       1  UNL1        0.0428
     35 H          -5.5567    3.0063   -2.9634 H       1  UNL1        0.0428
     36 H          -4.9271    4.1822   -1.7855 H       1  UNL1        0.0428
     37 H          -6.5865    3.5814   -1.5529 H       1  UNL1        0.0428
     38 H          -3.3576    0.2922    1.7903 H       1  UNL1        0.0287
     39 H          -3.1613    2.0469    1.3025 H       1  UNL1        0.0287
     40 H          -1.2084    1.5347   -0.1261 H       1  UNL1        0.0346
     41 H          -0.3086   -0.3861   -1.8055 H       1  UNL1        0.0256
     42 H          -0.0853   -2.0584   -1.0255 H       1  UNL1        0.0256
     43 H          -1.6115   -1.5713   -1.7550 H       1  UNL1        0.0256
     44 H           1.4433   -0.7466   -0.8593 H       1  UNL1        0.0628
     45 H           3.8788    0.0430   -1.0115 H       1  UNL1        0.0653
     46 H           8.0711   -0.5690   -2.9443 H       1  UNL1        0.0848
     47 H           3.5963    0.4285    2.5726 H       1  UNL1        0.0624
     48 H           1.4378    0.6281    3.8593 H       1  UNL1        0.0646
     49 H          -3.6225   -3.1951    2.3262 H       1  UNL1        0.1442
     50 H          -4.2477   -3.7611    0.7522 H       1  UNL1        0.1442
@<TRIPOS>BOND
     1     1     2    1
     2     2     3    1
     3     2     4   am
     4     4     5    2
     5     6     4    1
     6     6     7    1
     7     7     8    1
     8     8     9    1
     9     9    10    1
    10     9    11    1
    11    11    12   ar
    12    12    13   ar
    13    13    14    1
    14    14    15    2
    15    15    16    1
    16    15    17    1
    17    17    18   ar
    18    18    19   ar
    19    19    20   ar
    20    20    21    1
    21    21    22    3
    22    20    23   ar
    23    13    24   ar
    24    24    25   ar
    25    25    26   ar
    26    26    27    1
    27     9    28    1
    28    28    29    2
    29    29    30    1
    30    29    31    1
    31     8     6    1
    32    26    11   ar
    33    31     6    1
    34    23    17   ar
    35     1    32    1
    36     1    33    1
    37     1    34    1
    38     3    35    1
    39     3    36    1
    40     3    37    1
    41     7    38    1
    42     7    39    1
    43     8    40    1
    44    10    41    1
    45    10    42    1
    46    10    43    1
    47    12    44    1
    48    14    45    1
    49    19    46    1
    50    24    47    1
    51    25    48    1
    52    30    49    1
    53    30    50    1
