@<TRIPOS>MOLECULE
*****
 58 61 0 0 0
SMALL
GASTEIGER

@<TRIPOS>ATOM
      1 O           1.3052    1.2237   -1.1517 O.2     1  UNL1       -0.2727
      2 C           0.6250    0.9406   -0.1030 C.2     1  UNL1        0.2458
      3 C           1.2798    0.7402    1.1926 C.3     1  UNL1        0.1506
      4 O           2.6396    1.1140    1.0148 O.3     1  UNL1       -0.3809
      5 C           1.2209   -0.6868    1.6937 C.3     1  UNL1        0.1052
      6 S           1.9900   -1.8548    0.6324 S.O2    1  UNL1       -0.0002
      7 O           1.2922   -1.9737   -0.6916 O.2     1  UNL1       -0.1693
      8 O           1.8921   -3.2017    1.2965 O.2     1  UNL1       -0.1693
      9 C           3.6966   -1.5081    0.4172 C.ar    1  UNL1        0.0889
     10 C           4.6389   -2.0075    1.3272 C.ar    1  UNL1       -0.0363
     11 C           5.9863   -1.7538    1.1790 C.ar    1  UNL1       -0.0522
     12 C           6.4286   -0.9855    0.1043 C.ar    1  UNL1       -0.0164
     13 C           7.7647   -0.7067   -0.0830 C.ar    1  UNL1       -0.0357
     14 C           8.2120    0.0528   -1.1433 C.ar    1  UNL1        0.0416
     15 CL          9.9152    0.3954   -1.3630 Cl      1  UNL1       -0.0835
     16 C           7.3156    0.5621   -2.0603 C.ar    1  UNL1       -0.0428
     17 C           5.9830    0.2854   -1.8755 C.ar    1  UNL1       -0.0526
     18 C           5.5344   -0.4735   -0.8163 C.ar    1  UNL1       -0.0160
     19 C           4.1953   -0.7570   -0.6222 C.ar    1  UNL1       -0.0292
     20 N          -0.7668    0.8331   -0.2468 N.am    1  UNL1       -0.2992
     21 C          -1.3627    1.0130   -1.5594 C.3     1  UNL1        0.0164
     22 C          -2.7120    0.2835   -1.4905 C.3     1  UNL1       -0.0183
     23 C          -3.6169    1.1361   -0.6551 C.3     1  UNL1        0.0303
     24 N          -4.9093    0.5345   -0.4269 N.am    1  UNL1       -0.2824
     25 C          -5.1125   -0.7359    0.2010 C.3     1  UNL1        0.0178
     26 C          -6.1924   -0.5463    1.2720 C.3     1  UNL1       -0.0214
     27 C          -7.5105   -0.2215    0.6018 C.3     1  UNL1        0.0145
     28 N          -7.3535    0.7863   -0.4139 N.am    1  UNL1       -0.2992
     29 C          -6.0640    1.2492   -0.8536 C.2     1  UNL1        0.3025
     30 O          -5.9446    2.2638   -1.6003 O.2     1  UNL1       -0.2526
     31 C          -2.9651    1.3533    0.6915 C.3     1  UNL1       -0.0183
     32 C          -1.6648    0.5717    0.8429 C.3     1  UNL1        0.0164
     33 H           0.9035    1.3890    2.0061 H       1  UNL1        0.0707
     34 H           2.7886    2.0412    1.3266 H       1  UNL1        0.2105
     35 H           1.8147   -0.6784    2.6517 H       1  UNL1        0.0535
     36 H           0.1987   -0.9443    1.9736 H       1  UNL1        0.0535
     37 H           4.3197   -2.6073    2.1705 H       1  UNL1        0.0637
     38 H           6.7324   -2.1227    1.8596 H       1  UNL1        0.0624
     39 H           8.4523   -1.1147    0.6464 H       1  UNL1        0.0638
     40 H           7.6777    1.1652   -2.9012 H       1  UNL1        0.0632
     41 H           5.2639    0.6716   -2.5777 H       1  UNL1        0.0624
     42 H           3.5095   -0.3635   -1.3359 H       1  UNL1        0.0643
     43 H          -1.6151    2.0924   -1.6521 H       1  UNL1        0.0465
     44 H          -0.7472    0.6218   -2.3692 H       1  UNL1        0.0465
     45 H          -2.4870   -0.6975   -1.0066 H       1  UNL1        0.0298
     46 H          -3.0390    0.1489   -2.5277 H       1  UNL1        0.0298
     47 H          -3.7146    2.1194   -1.1554 H       1  UNL1        0.0502
     48 H          -4.2144   -1.2018    0.6056 H       1  UNL1        0.0466
     49 H          -5.5945   -1.4086   -0.5654 H       1  UNL1        0.0466
     50 H          -5.9062    0.3759    1.8423 H       1  UNL1        0.0295
     51 H          -6.2932   -1.4257    1.9128 H       1  UNL1        0.0295
     52 H          -8.2048    0.1319    1.3937 H       1  UNL1        0.0463
     53 H          -7.9038   -1.1432    0.1319 H       1  UNL1        0.0463
     54 H          -8.2127    1.1907   -0.8418 H       1  UNL1        0.1502
     55 H          -3.6169    1.0261    1.5373 H       1  UNL1        0.0298
     56 H          -2.7095    2.4365    0.8563 H       1  UNL1        0.0298
     57 H          -1.8738   -0.5195    0.9309 H       1  UNL1        0.0465
     58 H          -1.2688    0.8907    1.8393 H       1  UNL1        0.0465
@<TRIPOS>BOND
     1     1     2    2
     2     2     3    1
     3     3     4    1
     4     3     5    1
     5     5     6    1
     6     6     7    2
     7     6     8    2
     8     6     9    1
     9     9    10   ar
    10    10    11   ar
    11    11    12   ar
    12    12    13   ar
    13    13    14   ar
    14    14    15    1
    15    14    16   ar
    16    16    17   ar
    17    17    18   ar
    18    18    19   ar
    19     2    20   am
    20    20    21    1
    21    21    22    1
    22    22    23    1
    23    23    24    1
    24    24    25    1
    25    25    26    1
    26    26    27    1
    27    27    28    1
    28    28    29   am
    29    29    30    2
    30    23    31    1
    31    31    32    1
    32    19     9   ar
    33    32    20    1
    34    18    12   ar
    35    29    24   am
    36     3    33    1
    37     4    34    1
    38     5    35    1
    39     5    36    1
    40    10    37    1
    41    11    38    1
    42    13    39    1
    43    16    40    1
    44    17    41    1
    45    19    42    1
    46    21    43    1
    47    21    44    1
    48    22    45    1
    49    22    46    1
    50    23    47    1
    51    25    48    1
    52    25    49    1
    53    26    50    1
    54    26    51    1
    55    27    52    1
    56    27    53    1
    57    28    54    1
    58    31    55    1
    59    31    56    1
    60    32    57    1
    61    32    58    1
