
     RDKit          3D

 58 61  0  0  0  0  0  0  0  0999 V2000
    1.3052    1.2237   -1.1517 O   0  0  0  0  0  0  0  0  0  0  0  0
    0.6250    0.9406   -0.1030 C   0  0  0  0  0  0  0  0  0  0  0  0
    1.2798    0.7402    1.1926 C   0  0  2  0  0  0  0  0  0  0  0  0
    2.6396    1.1140    1.0148 O   0  0  0  0  0  0  0  0  0  0  0  0
    1.2209   -0.6868    1.6937 C   0  0  0  0  0  0  0  0  0  0  0  0
    1.9900   -1.8548    0.6324 S   0  0  0  0  0  6  0  0  0  0  0  0
    1.2922   -1.9737   -0.6916 O   0  0  0  0  0  0  0  0  0  0  0  0
    1.8921   -3.2017    1.2965 O   0  0  0  0  0  0  0  0  0  0  0  0
    3.6966   -1.5081    0.4172 C   0  0  0  0  0  0  0  0  0  0  0  0
    4.6389   -2.0075    1.3272 C   0  0  0  0  0  0  0  0  0  0  0  0
    5.9863   -1.7538    1.1790 C   0  0  0  0  0  0  0  0  0  0  0  0
    6.4286   -0.9855    0.1043 C   0  0  0  0  0  0  0  0  0  0  0  0
    7.7647   -0.7067   -0.0830 C   0  0  0  0  0  0  0  0  0  0  0  0
    8.2120    0.0528   -1.1433 C   0  0  0  0  0  0  0  0  0  0  0  0
    9.9152    0.3954   -1.3630 Cl  0  0  0  0  0  0  0  0  0  0  0  0
    7.3156    0.5621   -2.0603 C   0  0  0  0  0  0  0  0  0  0  0  0
    5.9830    0.2854   -1.8755 C   0  0  0  0  0  0  0  0  0  0  0  0
    5.5344   -0.4735   -0.8163 C   0  0  0  0  0  0  0  0  0  0  0  0
    4.1953   -0.7570   -0.6222 C   0  0  0  0  0  0  0  0  0  0  0  0
   -0.7668    0.8331   -0.2468 N   0  0  0  0  0  0  0  0  0  0  0  0
   -1.3627    1.0130   -1.5594 C   0  0  0  0  0  0  0  0  0  0  0  0
   -2.7120    0.2835   -1.4905 C   0  0  0  0  0  0  0  0  0  0  0  0
   -3.6169    1.1361   -0.6551 C   0  0  0  0  0  0  0  0  0  0  0  0
   -4.9093    0.5345   -0.4269 N   0  0  0  0  0  0  0  0  0  0  0  0
   -5.1125   -0.7359    0.2010 C   0  0  0  0  0  0  0  0  0  0  0  0
   -6.1924   -0.5463    1.2720 C   0  0  0  0  0  0  0  0  0  0  0  0
   -7.5105   -0.2215    0.6018 C   0  0  0  0  0  0  0  0  0  0  0  0
   -7.3535    0.7863   -0.4139 N   0  0  0  0  0  0  0  0  0  0  0  0
   -6.0640    1.2492   -0.8536 C   0  0  0  0  0  0  0  0  0  0  0  0
   -5.9446    2.2638   -1.6003 O   0  0  0  0  0  0  0  0  0  0  0  0
   -2.9651    1.3533    0.6915 C   0  0  0  0  0  0  0  0  0  0  0  0
   -1.6648    0.5717    0.8429 C   0  0  0  0  0  0  0  0  0  0  0  0
    0.9035    1.3890    2.0061 H   0  0  0  0  0  0  0  0  0  0  0  0
    2.7886    2.0412    1.3266 H   0  0  0  0  0  0  0  0  0  0  0  0
    1.8147   -0.6784    2.6517 H   0  0  0  0  0  0  0  0  0  0  0  0
    0.1987   -0.9443    1.9736 H   0  0  0  0  0  0  0  0  0  0  0  0
    4.3197   -2.6073    2.1705 H   0  0  0  0  0  0  0  0  0  0  0  0
    6.7324   -2.1227    1.8596 H   0  0  0  0  0  0  0  0  0  0  0  0
    8.4523   -1.1147    0.6464 H   0  0  0  0  0  0  0  0  0  0  0  0
    7.6777    1.1652   -2.9012 H   0  0  0  0  0  0  0  0  0  0  0  0
    5.2639    0.6716   -2.5777 H   0  0  0  0  0  0  0  0  0  0  0  0
    3.5095   -0.3635   -1.3359 H   0  0  0  0  0  0  0  0  0  0  0  0
   -1.6151    2.0924   -1.6521 H   0  0  0  0  0  0  0  0  0  0  0  0
   -0.7472    0.6218   -2.3692 H   0  0  0  0  0  0  0  0  0  0  0  0
   -2.4870   -0.6975   -1.0066 H   0  0  0  0  0  0  0  0  0  0  0  0
   -3.0390    0.1489   -2.5277 H   0  0  0  0  0  0  0  0  0  0  0  0
   -3.7146    2.1194   -1.1554 H   0  0  0  0  0  0  0  0  0  0  0  0
   -4.2144   -1.2018    0.6056 H   0  0  0  0  0  0  0  0  0  0  0  0
   -5.5945   -1.4086   -0.5654 H   0  0  0  0  0  0  0  0  0  0  0  0
   -5.9062    0.3759    1.8423 H   0  0  0  0  0  0  0  0  0  0  0  0
   -6.2932   -1.4257    1.9128 H   0  0  0  0  0  0  0  0  0  0  0  0
   -8.2048    0.1319    1.3937 H   0  0  0  0  0  0  0  0  0  0  0  0
   -7.9038   -1.1432    0.1319 H   0  0  0  0  0  0  0  0  0  0  0  0
   -8.2127    1.1907   -0.8418 H   0  0  0  0  0  0  0  0  0  0  0  0
   -3.6169    1.0261    1.5373 H   0  0  0  0  0  0  0  0  0  0  0  0
   -2.7095    2.4365    0.8563 H   0  0  0  0  0  0  0  0  0  0  0  0
   -1.8738   -0.5195    0.9309 H   0  0  0  0  0  0  0  0  0  0  0  0
   -1.2688    0.8907    1.8393 H   0  0  0  0  0  0  0  0  0  0  0  0
  1  2  2  0
  2  3  1  0
  3  4  1  0
  3  5  1  0
  5  6  1  0
  6  7  2  0
  6  8  2  0
  6  9  1  0
  9 10  2  0
 10 11  1  0
 11 12  2  0
 12 13  1  0
 13 14  2  0
 14 15  1  0
 14 16  1  0
 16 17  2  0
 17 18  1  0
 18 19  2  0
  2 20  1  0
 20 21  1  0
 21 22  1  0
 22 23  1  0
 23 24  1  0
 24 25  1  0
 25 26  1  0
 26 27  1  0
 27 28  1  0
 28 29  1  0
 29 30  2  0
 23 31  1  0
 31 32  1  0
 19  9  1  0
 32 20  1  0
 18 12  1  0
 29 24  1  0
  3 33  1  1
  4 34  1  0
  5 35  1  0
  5 36  1  0
 10 37  1  0
 11 38  1  0
 13 39  1  0
 16 40  1  0
 17 41  1  0
 19 42  1  0
 21 43  1  0
 21 44  1  0
 22 45  1  0
 22 46  1  0
 23 47  1  0
 25 48  1  0
 25 49  1  0
 26 50  1  0
 26 51  1  0
 27 52  1  0
 27 53  1  0
 28 54  1  0
 31 55  1  0
 31 56  1  0
 32 57  1  0
 32 58  1  0
M  END
$$$$
