@<TRIPOS>MOLECULE
*****
 31 33 0 0 0
SMALL
GASTEIGER

@<TRIPOS>ATOM
      1 C          -5.3316    1.4711    0.3734 C.3     1  UNL1       -0.0363
      2 C          -4.0749    0.6957    0.6047 C.ar    1  UNL1       -0.0090
      3 C          -3.8749   -0.0584    1.7445 C.ar    1  UNL1       -0.0547
      4 C          -2.7071   -0.7529    1.9146 C.ar    1  UNL1       -0.0504
      5 C          -1.7025   -0.7251    0.9676 C.ar    1  UNL1        0.0278
      6 C          -0.5216   -1.5161    1.2530 C.2     1  UNL1        0.2181
      7 O          -0.6372   -2.5762    1.9548 O.2     1  UNL1       -0.2844
      8 C           0.8313   -1.1632    0.7742 C.ar    1  UNL1        0.1495
      9 N           1.8931   -1.5914    0.7480 N.ar    1  UNL1       -0.2357
     10 C           3.0031   -1.0590    0.2666 C.ar    1  UNL1        0.0792
     11 C           4.2953   -1.5916    0.2399 C.ar    1  UNL1       -0.0317
     12 C           5.3176   -0.8707   -0.3102 C.ar    1  UNL1       -0.0181
     13 C           5.1813    0.3985   -0.8692 C.ar    1  UNL1        0.1180
     14 O           6.2304    1.1002   -1.4161 O.3     1  UNL1       -0.5067
     15 C           3.8918    0.9193   -0.8376 C.ar    1  UNL1       -0.0043
     16 C           2.8592    0.1576   -0.2664 C.ar    1  UNL1        0.0431
     17 S           1.1126    0.5108   -0.0606 S.2     1  UNL1       -0.0639
     18 C          -1.8921    0.0127   -0.1544 C.ar    1  UNL1       -0.0090
     19 C          -3.0801    0.7277   -0.3416 C.ar    1  UNL1        0.1204
     20 O          -3.2821    1.4922   -1.4978 O.3     1  UNL1       -0.5065
     21 H          -5.6569    1.9276    1.3431 H       1  UNL1        0.0279
     22 H          -5.1216    2.3283   -0.3023 H       1  UNL1        0.0279
     23 H          -6.1495    0.8380   -0.0129 H       1  UNL1        0.0279
     24 H          -4.6630   -0.0923    2.5088 H       1  UNL1        0.0622
     25 H          -2.5548   -1.3494    2.8217 H       1  UNL1        0.0625
     26 H           4.5515   -2.5647    0.6364 H       1  UNL1        0.0640
     27 H           6.3388   -1.2673   -0.3425 H       1  UNL1        0.0655
     28 H           6.8366    1.6804   -0.8380 H       1  UNL1        0.2921
     29 H           3.7083    1.8921   -1.2493 H       1  UNL1        0.0666
     30 H          -1.1481    0.0560   -0.9223 H       1  UNL1        0.0661
     31 H          -3.6532    0.9699   -2.2979 H       1  UNL1        0.2921
@<TRIPOS>BOND
     1     1     2    1
     2     2     3   ar
     3     3     4   ar
     4     4     5   ar
     5     5     6    1
     6     6     7    2
     7     6     8    1
     8     8     9   ar
     9     9    10   ar
    10    10    11   ar
    11    11    12   ar
    12    12    13   ar
    13    13    14    1
    14    13    15   ar
    15    15    16   ar
    16    16    17   ar
    17     5    18   ar
    18    18    19   ar
    19    19    20    1
    20    19     2   ar
    21    17     8   ar
    22    16    10   ar
    23     1    21    1
    24     1    22    1
    25     1    23    1
    26     3    24    1
    27     4    25    1
    28    11    26    1
    29    12    27    1
    30    14    28    1
    31    15    29    1
    32    18    30    1
    33    20    31    1
