
     RDKit          3D

 31 33  0  0  0  0  0  0  0  0999 V2000
   -5.3316    1.4711    0.3734 C   0  0  0  0  0  0  0  0  0  0  0  0
   -4.0749    0.6957    0.6047 C   0  0  0  0  0  0  0  0  0  0  0  0
   -3.8749   -0.0584    1.7445 C   0  0  0  0  0  0  0  0  0  0  0  0
   -2.7071   -0.7529    1.9146 C   0  0  0  0  0  0  0  0  0  0  0  0
   -1.7025   -0.7251    0.9676 C   0  0  0  0  0  0  0  0  0  0  0  0
   -0.5216   -1.5161    1.2530 C   0  0  0  0  0  0  0  0  0  0  0  0
   -0.6372   -2.5762    1.9548 O   0  0  0  0  0  0  0  0  0  0  0  0
    0.8313   -1.1632    0.7742 C   0  0  0  0  0  0  0  0  0  0  0  0
    1.8931   -1.5914    0.7480 N   0  0  0  0  0  0  0  0  0  0  0  0
    3.0031   -1.0590    0.2666 C   0  0  0  0  0  0  0  0  0  0  0  0
    4.2953   -1.5916    0.2399 C   0  0  0  0  0  0  0  0  0  0  0  0
    5.3176   -0.8707   -0.3102 C   0  0  0  0  0  0  0  0  0  0  0  0
    5.1813    0.3985   -0.8692 C   0  0  0  0  0  0  0  0  0  0  0  0
    6.2304    1.1002   -1.4161 O   0  0  0  0  0  0  0  0  0  0  0  0
    3.8918    0.9193   -0.8376 C   0  0  0  0  0  0  0  0  0  0  0  0
    2.8592    0.1576   -0.2664 C   0  0  0  0  0  0  0  0  0  0  0  0
    1.1126    0.5108   -0.0606 S   0  0  0  0  0  0  0  0  0  0  0  0
   -1.8921    0.0127   -0.1544 C   0  0  0  0  0  0  0  0  0  0  0  0
   -3.0801    0.7277   -0.3416 C   0  0  0  0  0  0  0  0  0  0  0  0
   -3.2821    1.4922   -1.4978 O   0  0  0  0  0  0  0  0  0  0  0  0
   -5.6569    1.9276    1.3431 H   0  0  0  0  0  0  0  0  0  0  0  0
   -5.1216    2.3283   -0.3023 H   0  0  0  0  0  0  0  0  0  0  0  0
   -6.1495    0.8380   -0.0129 H   0  0  0  0  0  0  0  0  0  0  0  0
   -4.6630   -0.0923    2.5088 H   0  0  0  0  0  0  0  0  0  0  0  0
   -2.5548   -1.3494    2.8217 H   0  0  0  0  0  0  0  0  0  0  0  0
    4.5515   -2.5647    0.6364 H   0  0  0  0  0  0  0  0  0  0  0  0
    6.3388   -1.2673   -0.3425 H   0  0  0  0  0  0  0  0  0  0  0  0
    6.8366    1.6804   -0.8380 H   0  0  0  0  0  0  0  0  0  0  0  0
    3.7083    1.8921   -1.2493 H   0  0  0  0  0  0  0  0  0  0  0  0
   -1.1481    0.0560   -0.9223 H   0  0  0  0  0  0  0  0  0  0  0  0
   -3.6532    0.9699   -2.2979 H   0  0  0  0  0  0  0  0  0  0  0  0
  1  2  1  0
  2  3  2  0
  3  4  1  0
  4  5  2  0
  5  6  1  0
  6  7  2  0
  6  8  1  0
  8  9  2  0
  9 10  1  0
 10 11  2  0
 11 12  1  0
 12 13  2  0
 13 14  1  0
 13 15  1  0
 15 16  2  0
 16 17  1  0
  5 18  1  0
 18 19  2  0
 19 20  1  0
 19  2  1  0
 17  8  1  0
 16 10  1  0
  1 21  1  0
  1 22  1  0
  1 23  1  0
  3 24  1  0
  4 25  1  0
 11 26  1  0
 12 27  1  0
 14 28  1  0
 15 29  1  0
 18 30  1  0
 20 31  1  0
M  END
$$$$
