@<TRIPOS>MOLECULE
*****
 61 64 0 0 0
SMALL
GASTEIGER

@<TRIPOS>ATOM
      1 C           2.0202   -0.8883   -0.9888 C.3     1  UNL1       -0.0452
      2 C           2.2786    0.6114   -1.1325 C.3     1  UNL1        0.0365
      3 C           1.0638    1.3365   -1.5629 C.3     1  UNL1        0.0385
      4 N           0.3286    2.0138   -0.5615 N.3     1  UNL1       -0.1779
      5 S          -1.3979    1.6787   -0.6702 S.O2    1  UNL1        0.0326
      6 O          -1.9553    2.5191    0.4819 O.2     1  UNL1       -0.1580
      7 O          -1.8584    2.3122   -1.9145 O.2     1  UNL1       -0.1580
      8 C          -1.7405    0.0130   -0.4508 C.3     1  UNL1        0.0904
      9 C          -3.0580   -0.5555   -0.5185 C.3     1  UNL1        0.0228
     10 C          -2.9469   -2.0897   -0.2597 C.3     1  UNL1       -0.0427
     11 C          -4.2529   -2.4986    0.3748 C.3     1  UNL1       -0.0490
     12 C          -5.1068   -1.2920    0.0925 C.3     1  UNL1       -0.0329
     13 C          -5.1573   -1.1128   -1.3938 C.3     1  UNL1       -0.0229
     14 C          -3.8443   -0.4537   -1.7852 C.3     1  UNL1        0.0632
     15 O          -3.1986   -1.2324   -2.7432 O.3     1  UNL1       -0.3912
     16 C          -4.0891   -0.1995    0.5074 C.3     1  UNL1       -0.0224
     17 C          -4.7013    1.1527    0.3902 C.3     1  UNL1       -0.0589
     18 C          -3.6103   -0.4419    1.9213 C.3     1  UNL1       -0.0589
     19 C           0.7936    1.8878    0.7749 C.3     1  UNL1        0.0360
     20 C           2.2701    2.2260    0.7845 C.3     1  UNL1        0.0283
     21 N           2.9298    1.1536    0.0333 N.pl3   1  UNL1       -0.3076
     22 C           4.1843    0.6286    0.4088 C.ar    1  UNL1        0.1571
     23 N           4.3031   -0.6668    0.7124 N.ar    1  UNL1       -0.2368
     24 C           5.5009   -1.2082    1.0797 C.ar    1  UNL1        0.0415
     25 C           6.6393   -0.4302    1.1507 C.ar    1  UNL1        0.0757
     26 C           7.9561   -1.0034    1.5499 C.3     1  UNL1        0.4189
     27 F           8.6318   -0.1727    2.4296 F       1  UNL1       -0.1658
     28 F           7.7026   -2.1791    2.2602 F       1  UNL1       -0.1658
     29 F           8.6837   -1.3001    0.4363 F       1  UNL1       -0.1658
     30 C           6.5452    0.9081    0.8431 C.ar    1  UNL1       -0.0099
     31 C           5.3027    1.4242    0.4718 C.ar    1  UNL1        0.1636
     32 F           5.2161    2.7378    0.1710 F       1  UNL1       -0.2019
     33 H           2.9325   -1.4658   -1.2996 H       1  UNL1        0.0248
     34 H           1.1850   -1.2036   -1.6450 H       1  UNL1        0.0248
     35 H           1.7331   -1.1196    0.0531 H       1  UNL1        0.0248
     36 H           3.0342    0.6870   -1.9699 H       1  UNL1        0.0510
     37 H           1.2982    2.0647   -2.3939 H       1  UNL1        0.0462
     38 H           0.3737    0.5894   -2.0548 H       1  UNL1        0.0462
     39 H          -1.0787   -0.5530   -1.1864 H       1  UNL1        0.0522
     40 H          -1.2776   -0.3237    0.5342 H       1  UNL1        0.0522
     41 H          -2.1006   -2.2672    0.4241 H       1  UNL1        0.0272
     42 H          -2.8554   -2.5938   -1.2272 H       1  UNL1        0.0272
     43 H          -4.6732   -3.4114   -0.0982 H       1  UNL1        0.0268
     44 H          -4.1619   -2.6826    1.4645 H       1  UNL1        0.0268
     45 H          -6.0301   -1.2266    0.6227 H       1  UNL1        0.0307
     46 H          -5.2159   -2.1357   -1.8602 H       1  UNL1        0.0293
     47 H          -6.0354   -0.5559   -1.7470 H       1  UNL1        0.0293
     48 H          -4.1004    0.5414   -2.1316 H       1  UNL1        0.0599
     49 H          -2.5054   -0.6927   -3.1649 H       1  UNL1        0.2098
     50 H          -4.4264    1.7458    1.2840 H       1  UNL1        0.0235
     51 H          -5.8180    1.1297    0.4008 H       1  UNL1        0.0235
     52 H          -4.3064    1.6685   -0.4944 H       1  UNL1        0.0235
     53 H          -3.3424    0.5529    2.3445 H       1  UNL1        0.0235
     54 H          -2.7270   -1.0855    1.9655 H       1  UNL1        0.0235
     55 H          -4.4675   -0.8529    2.5009 H       1  UNL1        0.0235
     56 H           0.2966    2.6821    1.3869 H       1  UNL1        0.0459
     57 H           0.6824    0.8895    1.2197 H       1  UNL1        0.0459
     58 H           2.4606    3.1538    0.1713 H       1  UNL1        0.0477
     59 H           2.6867    2.3373    1.7875 H       1  UNL1        0.0477
     60 H           5.5752   -2.2583    1.3213 H       1  UNL1        0.0836
     61 H           7.4313    1.5078    0.8996 H       1  UNL1        0.0653
@<TRIPOS>BOND
     1     1     2    1
     2     2     3    1
     3     3     4    1
     4     4     5    1
     5     5     6    2
     6     5     7    2
     7     5     8    1
     8     9     8    1
     9     9    10    1
    10    10    11    1
    11    11    12    1
    12    12    13    1
    13    13    14    1
    14    14    15    1
    15    12    16    1
    16    16    17    1
    17    16    18    1
    18     4    19    1
    19    19    20    1
    20    20    21    1
    21    21    22    1
    22    22    23   ar
    23    23    24   ar
    24    24    25   ar
    25    25    26    1
    26    26    27    1
    27    26    28    1
    28    26    29    1
    29    25    30   ar
    30    30    31   ar
    31    31    32    1
    32    21     2    1
    33    31    22   ar
    34    14     9    1
    35    16     9    1
    36     1    33    1
    37     1    34    1
    38     1    35    1
    39     2    36    1
    40     3    37    1
    41     3    38    1
    42     8    39    1
    43     8    40    1
    44    10    41    1
    45    10    42    1
    46    11    43    1
    47    11    44    1
    48    12    45    1
    49    13    46    1
    50    13    47    1
    51    14    48    1
    52    15    49    1
    53    17    50    1
    54    17    51    1
    55    17    52    1
    56    18    53    1
    57    18    54    1
    58    18    55    1
    59    19    56    1
    60    19    57    1
    61    20    58    1
    62    20    59    1
    63    24    60    1
    64    30    61    1
