
     RDKit          3D

 61 64  0  0  0  0  0  0  0  0999 V2000
    2.0202   -0.8883   -0.9888 C   0  0  0  0  0  0  0  0  0  0  0  0
    2.2786    0.6114   -1.1325 C   0  0  1  0  0  0  0  0  0  0  0  0
    1.0638    1.3365   -1.5629 C   0  0  0  0  0  0  0  0  0  0  0  0
    0.3286    2.0138   -0.5615 N   0  0  0  0  0  0  0  0  0  0  0  0
   -1.3979    1.6787   -0.6702 S   0  0  0  0  0  6  0  0  0  0  0  0
   -1.9553    2.5191    0.4819 O   0  0  0  0  0  0  0  0  0  0  0  0
   -1.8584    2.3122   -1.9145 O   0  0  0  0  0  0  0  0  0  0  0  0
   -1.7405    0.0130   -0.4508 C   0  0  0  0  0  0  0  0  0  0  0  0
   -3.0580   -0.5555   -0.5185 C   0  0  2  0  0  0  0  0  0  0  0  0
   -2.9469   -2.0897   -0.2597 C   0  0  0  0  0  0  0  0  0  0  0  0
   -4.2529   -2.4986    0.3748 C   0  0  0  0  0  0  0  0  0  0  0  0
   -5.1068   -1.2920    0.0925 C   0  0  2  0  0  0  0  0  0  0  0  0
   -5.1573   -1.1128   -1.3938 C   0  0  0  0  0  0  0  0  0  0  0  0
   -3.8443   -0.4537   -1.7852 C   0  0  2  0  0  0  0  0  0  0  0  0
   -3.1986   -1.2324   -2.7432 O   0  0  0  0  0  0  0  0  0  0  0  0
   -4.0891   -0.1995    0.5074 C   0  0  0  0  0  0  0  0  0  0  0  0
   -4.7013    1.1527    0.3902 C   0  0  0  0  0  0  0  0  0  0  0  0
   -3.6103   -0.4419    1.9213 C   0  0  0  0  0  0  0  0  0  0  0  0
    0.7936    1.8878    0.7749 C   0  0  0  0  0  0  0  0  0  0  0  0
    2.2701    2.2260    0.7845 C   0  0  0  0  0  0  0  0  0  0  0  0
    2.9298    1.1536    0.0333 N   0  0  0  0  0  0  0  0  0  0  0  0
    4.1843    0.6286    0.4088 C   0  0  0  0  0  0  0  0  0  0  0  0
    4.3031   -0.6668    0.7124 N   0  0  0  0  0  0  0  0  0  0  0  0
    5.5009   -1.2082    1.0797 C   0  0  0  0  0  0  0  0  0  0  0  0
    6.6393   -0.4302    1.1507 C   0  0  0  0  0  0  0  0  0  0  0  0
    7.9561   -1.0034    1.5499 C   0  0  0  0  0  0  0  0  0  0  0  0
    8.6318   -0.1727    2.4296 F   0  0  0  0  0  0  0  0  0  0  0  0
    7.7026   -2.1791    2.2602 F   0  0  0  0  0  0  0  0  0  0  0  0
    8.6837   -1.3001    0.4363 F   0  0  0  0  0  0  0  0  0  0  0  0
    6.5452    0.9081    0.8431 C   0  0  0  0  0  0  0  0  0  0  0  0
    5.3027    1.4242    0.4718 C   0  0  0  0  0  0  0  0  0  0  0  0
    5.2161    2.7378    0.1710 F   0  0  0  0  0  0  0  0  0  0  0  0
    2.9325   -1.4658   -1.2996 H   0  0  0  0  0  0  0  0  0  0  0  0
    1.1850   -1.2036   -1.6450 H   0  0  0  0  0  0  0  0  0  0  0  0
    1.7331   -1.1196    0.0531 H   0  0  0  0  0  0  0  0  0  0  0  0
    3.0342    0.6870   -1.9699 H   0  0  0  0  0  0  0  0  0  0  0  0
    1.2982    2.0647   -2.3939 H   0  0  0  0  0  0  0  0  0  0  0  0
    0.3737    0.5894   -2.0548 H   0  0  0  0  0  0  0  0  0  0  0  0
   -1.0787   -0.5530   -1.1864 H   0  0  0  0  0  0  0  0  0  0  0  0
   -1.2776   -0.3237    0.5342 H   0  0  0  0  0  0  0  0  0  0  0  0
   -2.1006   -2.2672    0.4241 H   0  0  0  0  0  0  0  0  0  0  0  0
   -2.8554   -2.5938   -1.2272 H   0  0  0  0  0  0  0  0  0  0  0  0
   -4.6732   -3.4114   -0.0982 H   0  0  0  0  0  0  0  0  0  0  0  0
   -4.1619   -2.6826    1.4645 H   0  0  0  0  0  0  0  0  0  0  0  0
   -6.0301   -1.2266    0.6227 H   0  0  0  0  0  0  0  0  0  0  0  0
   -5.2159   -2.1357   -1.8602 H   0  0  0  0  0  0  0  0  0  0  0  0
   -6.0354   -0.5559   -1.7470 H   0  0  0  0  0  0  0  0  0  0  0  0
   -4.1004    0.5414   -2.1316 H   0  0  0  0  0  0  0  0  0  0  0  0
   -2.5054   -0.6927   -3.1649 H   0  0  0  0  0  0  0  0  0  0  0  0
   -4.4264    1.7458    1.2840 H   0  0  0  0  0  0  0  0  0  0  0  0
   -5.8180    1.1297    0.4008 H   0  0  0  0  0  0  0  0  0  0  0  0
   -4.3064    1.6685   -0.4944 H   0  0  0  0  0  0  0  0  0  0  0  0
   -3.3424    0.5529    2.3445 H   0  0  0  0  0  0  0  0  0  0  0  0
   -2.7270   -1.0855    1.9655 H   0  0  0  0  0  0  0  0  0  0  0  0
   -4.4675   -0.8529    2.5009 H   0  0  0  0  0  0  0  0  0  0  0  0
    0.2966    2.6821    1.3869 H   0  0  0  0  0  0  0  0  0  0  0  0
    0.6824    0.8895    1.2197 H   0  0  0  0  0  0  0  0  0  0  0  0
    2.4606    3.1538    0.1713 H   0  0  0  0  0  0  0  0  0  0  0  0
    2.6867    2.3373    1.7875 H   0  0  0  0  0  0  0  0  0  0  0  0
    5.5752   -2.2583    1.3213 H   0  0  0  0  0  0  0  0  0  0  0  0
    7.4313    1.5078    0.8996 H   0  0  0  0  0  0  0  0  0  0  0  0
  1  2  1  0
  2  3  1  0
  3  4  1  0
  4  5  1  0
  5  6  2  0
  5  7  2  0
  5  8  1  0
  9  8  1  6
  9 10  1  0
 10 11  1  0
 11 12  1  0
 12 13  1  0
 13 14  1  0
 14 15  1  0
 12 16  1  0
 16 17  1  0
 16 18  1  0
  4 19  1  0
 19 20  1  0
 20 21  1  0
 21 22  1  0
 22 23  2  0
 23 24  1  0
 24 25  2  0
 25 26  1  0
 26 27  1  0
 26 28  1  0
 26 29  1  0
 25 30  1  0
 30 31  2  0
 31 32  1  0
 21  2  1  0
 31 22  1  0
 14  9  1  0
 16  9  1  0
  1 33  1  0
  1 34  1  0
  1 35  1  0
  2 36  1  6
  3 37  1  0
  3 38  1  0
  8 39  1  0
  8 40  1  0
 10 41  1  0
 10 42  1  0
 11 43  1  0
 11 44  1  0
 12 45  1  1
 13 46  1  0
 13 47  1  0
 14 48  1  6
 15 49  1  0
 17 50  1  0
 17 51  1  0
 17 52  1  0
 18 53  1  0
 18 54  1  0
 18 55  1  0
 19 56  1  0
 19 57  1  0
 20 58  1  0
 20 59  1  0
 24 60  1  0
 30 61  1  0
M  END
$$$$
