@<TRIPOS>MOLECULE
*****
 178 179 0 0 0
SMALL
GASTEIGER

@<TRIPOS>ATOM
      1 C         -16.5176    5.2384   -1.4041 C.3     1  UNL1        0.0817
      2 O         -16.7355    3.8603   -1.5366 O.3     1  UNL1       -0.4666
      3 C         -15.7389    2.9562   -1.2480 C.2     1  UNL1        0.3276
      4 O         -14.6234    3.3733   -0.8594 O.2     1  UNL1       -0.2487
      5 C         -15.9164    1.4736   -1.3736 C.3     1  UNL1        0.1230
      6 C         -16.9929    1.0859   -0.4173 C.3     1  UNL1       -0.0225
      7 C         -16.4030    0.0038    0.4517 C.3     1  UNL1       -0.0349
      8 C         -14.9002    0.1835    0.3095 C.3     1  UNL1        0.0157
      9 N         -14.7423    0.7527   -0.9848 N.am    1  UNL1       -0.2865
     10 C         -13.5835    0.6385   -1.8185 C.2     1  UNL1        0.2371
     11 O         -13.4936    1.2145   -2.9120 O.2     1  UNL1       -0.2735
     12 C         -12.4387   -0.2112   -1.3358 C.3     1  UNL1        0.1061
     13 C         -12.7585   -1.6554   -1.7583 C.3     1  UNL1       -0.0005
     14 C         -11.7573   -2.6273   -1.3205 C.ar    1  UNL1       -0.0451
     15 C         -11.9528   -3.2457   -0.0794 C.ar    1  UNL1       -0.0585
     16 C         -11.1030   -4.1853    0.4327 C.ar    1  UNL1       -0.0615
     17 C          -9.9949   -4.5528   -0.2945 C.ar    1  UNL1       -0.0617
     18 C          -9.7632   -3.9653   -1.5266 C.ar    1  UNL1       -0.0615
     19 C         -10.6347   -3.0164   -2.0285 C.ar    1  UNL1       -0.0585
     20 N         -11.2698    0.2869   -2.0150 N.am    1  UNL1       -0.2911
     21 C         -11.2843    0.3170   -3.4806 C.3     1  UNL1        0.0040
     22 C         -10.0850    0.7545   -1.4030 C.2     1  UNL1        0.2360
     23 O          -9.1745    1.2233   -2.1694 O.2     1  UNL1       -0.2736
     24 C          -9.8094    0.7429    0.0767 C.3     1  UNL1        0.0968
     25 C         -10.8983    1.3413    0.9002 C.3     1  UNL1       -0.0381
     26 N          -8.5848    1.4379    0.3513 N.am    1  UNL1       -0.3027
     27 C          -7.2705    0.9313    0.3653 C.2     1  UNL1        0.2365
     28 O          -7.1003   -0.2757    0.0949 O.2     1  UNL1       -0.2737
     29 C          -6.1114    1.7891    0.6863 C.3     1  UNL1        0.1252
     30 N          -4.8620    1.1189    0.4488 N.am    1  UNL1       -0.3018
     31 C          -4.0465    0.5196    1.4506 C.2     1  UNL1        0.2162
     32 O          -4.4289    0.5383    2.6483 O.2     1  UNL1       -0.2757
     33 C          -2.7537   -0.1060    1.0249 C.3     1  UNL1        0.0517
     34 C          -2.2101   -0.8337    2.1991 C.3     1  UNL1        0.0817
     35 O          -2.0128    0.0161    3.3064 O.3     1  UNL1       -0.3895
     36 C          -0.8312   -1.4546    1.9699 C.3     1  UNL1        0.0498
     37 C          -0.5424   -2.1655    3.3141 C.3     1  UNL1       -0.0297
     38 C           0.7920   -2.8381    3.2876 C.3     1  UNL1       -0.0450
     39 C           0.9510   -3.8835    2.2291 C.3     1  UNL1       -0.0626
     40 C           0.9688   -3.5246    4.6393 C.3     1  UNL1       -0.0626
     41 N           0.1376   -0.4295    1.7520 N.am    1  UNL1       -0.3084
     42 C           1.1332   -0.3772    0.7416 C.2     1  UNL1        0.2341
     43 O           1.2067   -1.2915   -0.0790 O.2     1  UNL1       -0.2738
     44 C           2.0869    0.7595    0.6680 C.3     1  UNL1        0.1076
     45 C           1.2695    1.9957    0.2573 C.3     1  UNL1        0.0506
     46 C           0.6491    1.7388   -1.0881 C.2     1  UNL1        0.2127
     47 N           0.9093    2.5642   -2.2031 N.am    1  UNL1       -0.3293
     48 O          -0.1226    0.7379   -1.1782 O.2     1  UNL1       -0.2760
     49 N           3.1137    0.6335   -0.3144 N.am    1  UNL1       -0.3020
     50 C           4.4606    0.3714    0.1121 C.2     1  UNL1        0.2340
     51 O           4.6740    0.2275    1.3709 O.2     1  UNL1       -0.2738
     52 C           5.5323    0.2826   -0.9068 C.3     1  UNL1        0.0997
     53 C           5.0746   -0.0808   -2.2424 C.3     1  UNL1       -0.0236
     54 C           6.1619   -0.1620   -3.3157 C.3     1  UNL1       -0.0446
     55 C           6.8931    1.1335   -3.4856 C.3     1  UNL1       -0.0626
     56 C           7.0308   -1.3592   -3.1671 C.3     1  UNL1       -0.0626
     57 N           6.7344   -0.3657   -0.4924 N.am    1  UNL1       -0.3009
     58 C           6.8554   -1.3834    0.4690 C.2     1  UNL1        0.2547
     59 O           5.8512   -1.8329    1.0541 O.2     1  UNL1       -0.2717
     60 C           8.2106   -1.9568    0.8228 C.3     1  UNL1        0.1807
     61 O           9.1861   -1.3935    0.0040 O.3     1  UNL1       -0.4491
     62 C          10.2770   -0.7007    0.5117 C.2     1  UNL1        0.3494
     63 O          10.3666   -0.6029    1.7389 O.2     1  UNL1       -0.2466
     64 C          11.2366   -0.1395   -0.4682 C.3     1  UNL1        0.2012
     65 O          12.2859    0.4506    0.1883 O.3     1  UNL1       -0.4485
     66 C          12.6003    1.7707    0.2556 C.2     1  UNL1        0.3255
     67 O          11.8150    2.5173   -0.3741 O.2     1  UNL1       -0.2490
     68 C          13.7902    2.2853    1.0195 C.3     1  UNL1        0.1102
     69 C          14.6380    3.0023    0.0177 C.3     1  UNL1       -0.0207
     70 C          15.8854    3.6409    0.4888 C.3     1  UNL1       -0.0607
     71 C          14.8924    2.1306   -1.2158 C.3     1  UNL1       -0.0607
     72 N          14.4746    1.1678    1.6335 N.3     1  UNL1       -0.2959
     73 C          13.5190    0.3372    2.3787 C.3     1  UNL1       -0.0123
     74 C          15.4379    1.6332    2.6324 C.3     1  UNL1       -0.0123
     75 C          11.4732   -1.1127   -1.5383 C.3     1  UNL1        0.0011
     76 C          12.0473   -2.4390   -1.1411 C.3     1  UNL1       -0.0588
     77 C          12.1717   -0.5289   -2.7607 C.3     1  UNL1       -0.0588
     78 C           8.1984   -3.4453    0.6724 C.3     1  UNL1       -0.0008
     79 C           7.8917   -3.9210   -0.7076 C.3     1  UNL1       -0.0588
     80 C           9.5305   -4.0087    1.1377 C.3     1  UNL1       -0.0588
     81 C          -6.1663    3.1434    0.0332 C.3     1  UNL1        0.0792
     82 C          -5.0210    3.9665    0.5775 C.3     1  UNL1       -0.0367
     83 O          -6.0092    2.9373   -1.3538 O.3     1  UNL1       -0.3897
     84 H         -15.6945    5.4791   -0.7266 H       1  UNL1        0.0661
     85 H         -17.4493    5.6721   -0.9546 H       1  UNL1        0.0661
     86 H         -16.4139    5.7351   -2.4089 H       1  UNL1        0.0661
     87 H         -16.2236    1.2239   -2.4235 H       1  UNL1        0.0616
     88 H         -17.3058    1.9304    0.2566 H       1  UNL1        0.0289
     89 H         -17.8779    0.7316   -0.9911 H       1  UNL1        0.0289
     90 H         -16.6977    0.1361    1.5202 H       1  UNL1        0.0281
     91 H         -16.7139   -0.9701    0.0613 H       1  UNL1        0.0281
     92 H         -14.3621   -0.7658    0.4870 H       1  UNL1        0.0465
     93 H         -14.5407    0.9486    1.0586 H       1  UNL1        0.0465
     94 H         -12.3954   -0.2266   -0.2502 H       1  UNL1        0.0600
     95 H         -12.8415   -1.6772   -2.8661 H       1  UNL1        0.0336
     96 H         -13.7497   -1.9829   -1.3675 H       1  UNL1        0.0336
     97 H         -12.8329   -2.9609    0.5111 H       1  UNL1        0.0620
     98 H         -11.2912   -4.6383    1.3912 H       1  UNL1        0.0618
     99 H          -9.2950   -5.2995    0.0753 H       1  UNL1        0.0618
    100 H          -8.8787   -4.2760   -2.0809 H       1  UNL1        0.0618
    101 H         -10.4372   -2.5769   -2.9810 H       1  UNL1        0.0620
    102 H         -10.3444   -0.1369   -3.8823 H       1  UNL1        0.0429
    103 H         -11.3731    1.3807   -3.8129 H       1  UNL1        0.0429
    104 H         -12.1123   -0.2431   -3.9128 H       1  UNL1        0.0429
    105 H          -9.7137   -0.3445    0.3127 H       1  UNL1        0.0592
    106 H         -11.6597    1.9087    0.3100 H       1  UNL1        0.0252
    107 H         -10.4269    2.1488    1.5582 H       1  UNL1        0.0252
    108 H         -11.3473    0.6487    1.6469 H       1  UNL1        0.0252
    109 H          -8.6623    2.4774    0.5791 H       1  UNL1        0.1495
    110 H          -6.1742    1.9182    1.8175 H       1  UNL1        0.0621
    111 H          -4.5140    1.0630   -0.5576 H       1  UNL1        0.1495
    112 H          -2.9639   -0.7532    0.1756 H       1  UNL1        0.0384
    113 H          -2.0599    0.7391    0.7572 H       1  UNL1        0.0384
    114 H          -2.8803   -1.6925    2.4510 H       1  UNL1        0.0616
    115 H          -2.3936   -0.4305    4.1003 H       1  UNL1        0.2099
    116 H          -0.9283   -2.1962    1.1735 H       1  UNL1        0.0524
    117 H          -1.3221   -2.9322    3.4792 H       1  UNL1        0.0286
    118 H          -0.5442   -1.4193    4.1115 H       1  UNL1        0.0286
    119 H           1.5806   -2.0529    3.2299 H       1  UNL1        0.0296
    120 H           0.1764   -3.8883    1.4624 H       1  UNL1        0.0232
    121 H           1.0490   -4.9137    2.6737 H       1  UNL1        0.0232
    122 H           1.9236   -3.6839    1.7059 H       1  UNL1        0.0232
    123 H           1.1883   -2.7351    5.4104 H       1  UNL1        0.0232
    124 H          -0.0041   -3.9566    4.9288 H       1  UNL1        0.0232
    125 H           1.7382   -4.3187    4.6181 H       1  UNL1        0.0232
    126 H           0.1299    0.3959    2.4104 H       1  UNL1        0.1491
    127 H           2.5424    0.9142    1.6729 H       1  UNL1        0.0599
    128 H           1.9465    2.8577    0.1328 H       1  UNL1        0.0381
    129 H           0.4907    2.2481    0.9772 H       1  UNL1        0.0381
    130 H           0.8501    2.1853   -3.1587 H       1  UNL1        0.1449
    131 H           1.1634    3.5590   -2.0654 H       1  UNL1        0.1449
    132 H           2.9128    0.7240   -1.3163 H       1  UNL1        0.1495
    133 H           5.8806    1.4207   -1.0206 H       1  UNL1        0.0594
    134 H           4.3487    0.6844   -2.6148 H       1  UNL1        0.0290
    135 H           4.5823   -1.0874   -2.2266 H       1  UNL1        0.0290
    136 H           5.5675   -0.3057   -4.2723 H       1  UNL1        0.0296
    137 H           7.8902    1.1166   -2.9875 H       1  UNL1        0.0232
    138 H           7.1073    1.2972   -4.5623 H       1  UNL1        0.0232
    139 H           6.2690    1.9866   -3.1355 H       1  UNL1        0.0232
    140 H           8.1050   -1.1383   -2.9517 H       1  UNL1        0.0232
    141 H           6.9603   -1.9809   -4.1018 H       1  UNL1        0.0232
    142 H           6.6259   -1.9939   -2.3500 H       1  UNL1        0.0232
    143 H           7.6571   -0.0569   -0.9350 H       1  UNL1        0.1496
    144 H           8.4380   -1.7388    1.8990 H       1  UNL1        0.0835
    145 H          10.6642    0.7156   -0.9496 H       1  UNL1        0.0855
    146 H          13.4592    2.9851    1.7969 H       1  UNL1        0.0581
    147 H          13.9908    3.8446   -0.3905 H       1  UNL1        0.0316
    148 H          15.8327    3.9747    1.5279 H       1  UNL1        0.0233
    149 H          16.8148    3.0424    0.2850 H       1  UNL1        0.0233
    150 H          16.1030    4.6041   -0.0916 H       1  UNL1        0.0233
    151 H          13.9033    2.0460   -1.7314 H       1  UNL1        0.0233
    152 H          15.6267    2.6312   -1.8505 H       1  UNL1        0.0233
    153 H          15.1879    1.1134   -0.9110 H       1  UNL1        0.0233
    154 H          12.5523    0.8299    2.5064 H       1  UNL1        0.0391
    155 H          13.4759   -0.6389    1.8418 H       1  UNL1        0.0391
    156 H          13.9325    0.1112    3.3791 H       1  UNL1        0.0391
    157 H          16.4413    1.8044    2.2358 H       1  UNL1        0.0391
    158 H          15.1001    2.5101    3.1932 H       1  UNL1        0.0391
    159 H          15.5547    0.7509    3.3444 H       1  UNL1        0.0391
    160 H          10.4282   -1.3633   -1.9244 H       1  UNL1        0.0337
    161 H          11.9697   -2.6642   -0.0604 H       1  UNL1        0.0234
    162 H          11.5317   -3.3006   -1.6529 H       1  UNL1        0.0234
    163 H          13.1112   -2.5516   -1.5050 H       1  UNL1        0.0234
    164 H          12.1060    0.5790   -2.7682 H       1  UNL1        0.0234
    165 H          11.6935   -0.8590   -3.7141 H       1  UNL1        0.0234
    166 H          13.2176   -0.8877   -2.8351 H       1  UNL1        0.0234
    167 H           7.3960   -3.8273    1.3462 H       1  UNL1        0.0336
    168 H           8.1570   -5.0025   -0.8220 H       1  UNL1        0.0234
    169 H           6.7885   -3.8943   -0.9323 H       1  UNL1        0.0234
    170 H           8.4265   -3.3320   -1.4574 H       1  UNL1        0.0234
    171 H           9.3021   -4.9520    1.7008 H       1  UNL1        0.0234
    172 H          10.0252   -3.3177    1.8149 H       1  UNL1        0.0234
    173 H          10.1657   -4.1944    0.2697 H       1  UNL1        0.0234
    174 H          -7.0964    3.6872    0.1900 H       1  UNL1        0.0614
    175 H          -5.4071    4.7479    1.2571 H       1  UNL1        0.0255
    176 H          -4.3270    3.3366    1.1949 H       1  UNL1        0.0255
    177 H          -4.4143    4.3908   -0.2435 H       1  UNL1        0.0255
    178 H          -6.1816    3.7695   -1.8562 H       1  UNL1        0.2099
@<TRIPOS>BOND
     1     1     2    1
     2     2     3    1
     3     3     4    2
     4     3     5    1
     5     5     6    1
     6     6     7    1
     7     7     8    1
     8     8     9    1
     9     9    10   am
    10    10    11    2
    11    10    12    1
    12    12    13    1
    13    13    14    1
    14    14    15   ar
    15    15    16   ar
    16    16    17   ar
    17    17    18   ar
    18    18    19   ar
    19    12    20    1
    20    20    21    1
    21    20    22   am
    22    22    23    2
    23    22    24    1
    24    24    25    1
    25    24    26    1
    26    26    27   am
    27    27    28    2
    28    27    29    1
    29    29    30    1
    30    30    31   am
    31    31    32    2
    32    31    33    1
    33    33    34    1
    34    34    35    1
    35    34    36    1
    36    36    37    1
    37    37    38    1
    38    38    39    1
    39    38    40    1
    40    36    41    1
    41    41    42   am
    42    42    43    2
    43    42    44    1
    44    44    45    1
    45    45    46    1
    46    46    47   am
    47    46    48    2
    48    44    49    1
    49    49    50   am
    50    50    51    2
    51    50    52    1
    52    52    53    1
    53    53    54    1
    54    54    55    1
    55    54    56    1
    56    52    57    1
    57    57    58   am
    58    58    59    2
    59    58    60    1
    60    60    61    1
    61    61    62    1
    62    62    63    2
    63    62    64    1
    64    64    65    1
    65    65    66    1
    66    66    67    2
    67    66    68    1
    68    68    69    1
    69    69    70    1
    70    69    71    1
    71    68    72    1
    72    72    73    1
    73    72    74    1
    74    64    75    1
    75    75    76    1
    76    75    77    1
    77    60    78    1
    78    78    79    1
    79    78    80    1
    80    29    81    1
    81    81    82    1
    82    81    83    1
    83     9     5    1
    84    19    14   ar
    85     1    84    1
    86     1    85    1
    87     1    86    1
    88     5    87    1
    89     6    88    1
    90     6    89    1
    91     7    90    1
    92     7    91    1
    93     8    92    1
    94     8    93    1
    95    12    94    1
    96    13    95    1
    97    13    96    1
    98    15    97    1
    99    16    98    1
   100    17    99    1
   101    18   100    1
   102    19   101    1
   103    21   102    1
   104    21   103    1
   105    21   104    1
   106    24   105    1
   107    25   106    1
   108    25   107    1
   109    25   108    1
   110    26   109    1
   111    29   110    1
   112    30   111    1
   113    33   112    1
   114    33   113    1
   115    34   114    1
   116    35   115    1
   117    36   116    1
   118    37   117    1
   119    37   118    1
   120    38   119    1
   121    39   120    1
   122    39   121    1
   123    39   122    1
   124    40   123    1
   125    40   124    1
   126    40   125    1
   127    41   126    1
   128    44   127    1
   129    45   128    1
   130    45   129    1
   131    47   130    1
   132    47   131    1
   133    49   132    1
   134    52   133    1
   135    53   134    1
   136    53   135    1
   137    54   136    1
   138    55   137    1
   139    55   138    1
   140    55   139    1
   141    56   140    1
   142    56   141    1
   143    56   142    1
   144    57   143    1
   145    60   144    1
   146    64   145    1
   147    68   146    1
   148    69   147    1
   149    70   148    1
   150    70   149    1
   151    70   150    1
   152    71   151    1
   153    71   152    1
   154    71   153    1
   155    73   154    1
   156    73   155    1
   157    73   156    1
   158    74   157    1
   159    74   158    1
   160    74   159    1
   161    75   160    1
   162    76   161    1
   163    76   162    1
   164    76   163    1
   165    77   164    1
   166    77   165    1
   167    77   166    1
   168    78   167    1
   169    79   168    1
   170    79   169    1
   171    79   170    1
   172    80   171    1
   173    80   172    1
   174    80   173    1
   175    81   174    1
   176    82   175    1
   177    82   176    1
   178    82   177    1
   179    83   178    1
