
     RDKit          3D

 49 51  0  0  0  0  0  0  0  0999 V2000
    3.1012    0.9618   -0.7942 O   0  0  0  0  0  0  0  0  0  0  0  0
    3.7276    0.5469    0.2106 C   0  0  0  0  0  0  0  0  0  0  0  0
    2.9775    0.1469    1.4054 C   0  0  0  0  0  0  0  0  0  0  0  0
    1.5005    0.2383    1.2739 C   0  0  0  0  0  0  0  0  0  0  0  0
    0.9022   -0.6357    0.1990 C   0  0  0  0  0  0  0  0  0  0  0  0
   -0.5311   -0.4117    0.2230 N   0  0  0  0  0  0  0  0  0  0  0  0
   -1.2220   -1.2224   -0.7552 C   0  0  0  0  0  0  0  0  0  0  0  0
   -2.6901   -1.2617   -0.3973 C   0  0  0  0  0  0  0  0  0  0  0  0
   -3.1353    0.1011    0.0629 C   0  0  0  0  0  0  0  0  0  0  0  0
   -2.9888    0.1571    1.4446 O   0  0  0  0  0  0  0  0  0  0  0  0
   -4.5577    0.3402   -0.2754 C   0  0  0  0  0  0  0  0  0  0  0  0
   -4.8864    0.9183   -1.4984 C   0  0  0  0  0  0  0  0  0  0  0  0
   -6.2219    1.1416   -1.8108 C   0  0  0  0  0  0  0  0  0  0  0  0
   -7.2401    0.8066   -0.9423 C   0  0  0  0  0  0  0  0  0  0  0  0
   -8.9045    1.1140   -1.3952 Cl  0  0  0  0  0  0  0  0  0  0  0  0
   -6.9222    0.2363    0.2647 C   0  0  0  0  0  0  0  0  0  0  0  0
   -5.5886    0.0155    0.5722 C   0  0  0  0  0  0  0  0  0  0  0  0
   -2.2294    1.1390   -0.5373 C   0  0  0  0  0  0  0  0  0  0  0  0
   -0.8647    0.9883    0.1078 C   0  0  0  0  0  0  0  0  0  0  0  0
    5.1983    0.4788    0.1472 C   0  0  0  0  0  0  0  0  0  0  0  0
    5.8620    0.8635   -0.9968 C   0  0  0  0  0  0  0  0  0  0  0  0
    7.2386    0.7893   -1.0269 C   0  0  0  0  0  0  0  0  0  0  0  0
    7.9970    0.3457    0.0385 C   0  0  0  0  0  0  0  0  0  0  0  0
    9.3535    0.2826   -0.0188 F   0  0  0  0  0  0  0  0  0  0  0  0
    7.3115   -0.0353    1.1764 C   0  0  0  0  0  0  0  0  0  0  0  0
    5.9413    0.0357    1.2141 C   0  0  0  0  0  0  0  0  0  0  0  0
    3.2072   -0.9215    1.6985 H   0  0  0  0  0  0  0  0  0  0  0  0
    3.2549    0.7712    2.3041 H   0  0  0  0  0  0  0  0  0  0  0  0
    1.1273    1.2773    1.1515 H   0  0  0  0  0  0  0  0  0  0  0  0
    1.0697   -0.1539    2.2463 H   0  0  0  0  0  0  0  0  0  0  0  0
    1.2853   -0.4280   -0.8151 H   0  0  0  0  0  0  0  0  0  0  0  0
    1.0342   -1.7225    0.4483 H   0  0  0  0  0  0  0  0  0  0  0  0
   -0.8398   -2.2591   -0.6469 H   0  0  0  0  0  0  0  0  0  0  0  0
   -1.0270   -0.9153   -1.7890 H   0  0  0  0  0  0  0  0  0  0  0  0
   -3.2351   -1.5774   -1.3131 H   0  0  0  0  0  0  0  0  0  0  0  0
   -2.8142   -2.0265    0.4140 H   0  0  0  0  0  0  0  0  0  0  0  0
   -3.2321   -0.7308    1.8071 H   0  0  0  0  0  0  0  0  0  0  0  0
   -4.0812    1.1803   -2.1788 H   0  0  0  0  0  0  0  0  0  0  0  0
   -6.4667    1.5901   -2.7611 H   0  0  0  0  0  0  0  0  0  0  0  0
   -7.7310   -0.0281    0.9512 H   0  0  0  0  0  0  0  0  0  0  0  0
   -5.3302   -0.4332    1.5208 H   0  0  0  0  0  0  0  0  0  0  0  0
   -2.0694    0.9916   -1.6262 H   0  0  0  0  0  0  0  0  0  0  0  0
   -2.6263    2.1555   -0.3891 H   0  0  0  0  0  0  0  0  0  0  0  0
   -0.0935    1.5759   -0.4336 H   0  0  0  0  0  0  0  0  0  0  0  0
   -0.9447    1.4041    1.1318 H   0  0  0  0  0  0  0  0  0  0  0  0
    5.2738    1.2088   -1.8271 H   0  0  0  0  0  0  0  0  0  0  0  0
    7.7623    1.0924   -1.9280 H   0  0  0  0  0  0  0  0  0  0  0  0
    7.9050   -0.3795    2.0026 H   0  0  0  0  0  0  0  0  0  0  0  0
    5.4431   -0.2781    2.1400 H   0  0  0  0  0  0  0  0  0  0  0  0
  1  2  2  0
  2  3  1  0
  3  4  1  0
  4  5  1  0
  5  6  1  0
  6  7  1  0
  7  8  1  0
  8  9  1  0
  9 10  1  0
  9 11  1  0
 11 12  2  0
 12 13  1  0
 13 14  2  0
 14 15  1  0
 14 16  1  0
 16 17  2  0
  9 18  1  0
 18 19  1  0
  2 20  1  0
 20 21  2  0
 21 22  1  0
 22 23  2  0
 23 24  1  0
 23 25  1  0
 25 26  2  0
 19  6  1  0
 26 20  1  0
 17 11  1  0
  3 27  1  0
  3 28  1  0
  4 29  1  0
  4 30  1  0
  5 31  1  0
  5 32  1  0
  7 33  1  0
  7 34  1  0
  8 35  1  0
  8 36  1  0
 10 37  1  0
 12 38  1  0
 13 39  1  0
 16 40  1  0
 17 41  1  0
 18 42  1  0
 18 43  1  0
 19 44  1  0
 19 45  1  0
 21 46  1  0
 22 47  1  0
 25 48  1  0
 26 49  1  0
M  END
$$$$
