@<TRIPOS>MOLECULE
*****
 49 51 0 0 0
SMALL
GASTEIGER

@<TRIPOS>ATOM
      1 O           3.1012    0.9618   -0.7942 O.2     1  UNL1       -0.2921
      2 C           3.7276    0.5469    0.2106 C.2     1  UNL1        0.1632
      3 C           2.9775    0.1469    1.4054 C.3     1  UNL1        0.0116
      4 C           1.5005    0.2383    1.2739 C.3     1  UNL1       -0.0332
      5 C           0.9022   -0.6357    0.1990 C.3     1  UNL1       -0.0007
      6 N          -0.5311   -0.4117    0.2230 N.3     1  UNL1       -0.3021
      7 C          -1.2220   -1.2224   -0.7552 C.3     1  UNL1        0.0018
      8 C          -2.6901   -1.2617   -0.3973 C.3     1  UNL1       -0.0070
      9 C          -3.1353    0.1011    0.0629 C.3     1  UNL1        0.0933
     10 O          -2.9888    0.1571    1.4446 O.3     1  UNL1       -0.3839
     11 C          -4.5577    0.3402   -0.2754 C.ar    1  UNL1       -0.0160
     12 C          -4.8864    0.9183   -1.4984 C.ar    1  UNL1       -0.0545
     13 C          -6.2219    1.1416   -1.8108 C.ar    1  UNL1       -0.0430
     14 C          -7.2401    0.8066   -0.9423 C.ar    1  UNL1        0.0410
     15 CL         -8.9045    1.1140   -1.3952 Cl      1  UNL1       -0.0835
     16 C          -6.9222    0.2363    0.2647 C.ar    1  UNL1       -0.0430
     17 C          -5.5886    0.0155    0.5722 C.ar    1  UNL1       -0.0545
     18 C          -2.2294    1.1390   -0.5373 C.3     1  UNL1       -0.0070
     19 C          -0.8647    0.9883    0.1078 C.3     1  UNL1        0.0018
     20 C           5.1983    0.4788    0.1472 C.ar    1  UNL1        0.0176
     21 C           5.8620    0.8635   -0.9968 C.ar    1  UNL1       -0.0486
     22 C           7.2386    0.7893   -1.0269 C.ar    1  UNL1       -0.0258
     23 C           7.9970    0.3457    0.0385 C.ar    1  UNL1        0.1234
     24 F           9.3535    0.2826   -0.0188 F       1  UNL1       -0.2055
     25 C           7.3115   -0.0353    1.1764 C.ar    1  UNL1       -0.0258
     26 C           5.9413    0.0357    1.2141 C.ar    1  UNL1       -0.0486
     27 H           3.2072   -0.9215    1.6985 H       1  UNL1        0.0345
     28 H           3.2549    0.7712    2.3041 H       1  UNL1        0.0345
     29 H           1.1273    1.2773    1.1515 H       1  UNL1        0.0282
     30 H           1.0697   -0.1539    2.2463 H       1  UNL1        0.0282
     31 H           1.2853   -0.4280   -0.8151 H       1  UNL1        0.0427
     32 H           1.0342   -1.7225    0.4483 H       1  UNL1        0.0427
     33 H          -0.8398   -2.2591   -0.6469 H       1  UNL1        0.0427
     34 H          -1.0270   -0.9153   -1.7890 H       1  UNL1        0.0427
     35 H          -3.2351   -1.5774   -1.3131 H       1  UNL1        0.0309
     36 H          -2.8142   -2.0265    0.4140 H       1  UNL1        0.0309
     37 H          -3.2321   -0.7308    1.8071 H       1  UNL1        0.2106
     38 H          -4.0812    1.1803   -2.1788 H       1  UNL1        0.0622
     39 H          -6.4667    1.5901   -2.7611 H       1  UNL1        0.0632
     40 H          -7.7310   -0.0281    0.9512 H       1  UNL1        0.0632
     41 H          -5.3302   -0.4332    1.5208 H       1  UNL1        0.0622
     42 H          -2.0694    0.9916   -1.6262 H       1  UNL1        0.0309
     43 H          -2.6263    2.1555   -0.3891 H       1  UNL1        0.0309
     44 H          -0.0935    1.5759   -0.4336 H       1  UNL1        0.0427
     45 H          -0.9447    1.4041    1.1318 H       1  UNL1        0.0427
     46 H           5.2738    1.2088   -1.8271 H       1  UNL1        0.0625
     47 H           7.7623    1.0924   -1.9280 H       1  UNL1        0.0646
     48 H           7.9050   -0.3795    2.0026 H       1  UNL1        0.0646
     49 H           5.4431   -0.2781    2.1400 H       1  UNL1        0.0625
@<TRIPOS>BOND
     1     1     2    2
     2     2     3    1
     3     3     4    1
     4     4     5    1
     5     5     6    1
     6     6     7    1
     7     7     8    1
     8     8     9    1
     9     9    10    1
    10     9    11    1
    11    11    12   ar
    12    12    13   ar
    13    13    14   ar
    14    14    15    1
    15    14    16   ar
    16    16    17   ar
    17     9    18    1
    18    18    19    1
    19     2    20    1
    20    20    21   ar
    21    21    22   ar
    22    22    23   ar
    23    23    24    1
    24    23    25   ar
    25    25    26   ar
    26    19     6    1
    27    26    20   ar
    28    17    11   ar
    29     3    27    1
    30     3    28    1
    31     4    29    1
    32     4    30    1
    33     5    31    1
    34     5    32    1
    35     7    33    1
    36     7    34    1
    37     8    35    1
    38     8    36    1
    39    10    37    1
    40    12    38    1
    41    13    39    1
    42    16    40    1
    43    17    41    1
    44    18    42    1
    45    18    43    1
    46    19    44    1
    47    19    45    1
    48    21    46    1
    49    22    47    1
    50    25    48    1
    51    26    49    1
