
     RDKit          3D

 60 63  0  0  0  0  0  0  0  0999 V2000
    3.4940   -3.5449   -0.8490 C   0  0  0  0  0  0  0  0  0  0  0  0
    4.5280   -2.6354   -1.2036 O   0  0  0  0  0  0  0  0  0  0  0  0
    4.3775   -1.3093   -0.8227 C   0  0  0  0  0  0  0  0  0  0  0  0
    3.2695   -0.8496   -0.1194 C   0  0  0  0  0  0  0  0  0  0  0  0
    3.1168    0.4612    0.2595 C   0  0  0  0  0  0  0  0  0  0  0  0
    1.9366    0.8935    0.9887 C   0  0  0  0  0  0  0  0  0  0  0  0
    0.6686    0.5039    0.5482 C   0  0  0  0  0  0  0  0  0  0  0  0
   -0.4524    0.9160    1.2312 C   0  0  0  0  0  0  0  0  0  0  0  0
   -1.7946    0.5513    0.8293 C   0  0  0  0  0  0  0  0  0  0  0  0
   -2.1091    0.3617   -0.4996 C   0  0  0  0  0  0  0  0  0  0  0  0
   -3.3804    0.0153   -0.9030 C   0  0  0  0  0  0  0  0  0  0  0  0
   -4.3994   -0.1574    0.0165 C   0  0  0  0  0  0  0  0  0  0  0  0
   -5.7120   -0.5121   -0.3598 N   0  0  0  0  0  0  0  0  0  0  0  0
   -6.7222   -0.6718    0.6407 C   0  0  0  0  0  0  0  0  0  0  0  0
   -8.1096   -0.8739    0.1373 C   0  0  0  0  0  0  0  0  0  0  0  0
   -8.1491   -1.6710   -1.0633 N   0  0  0  0  0  0  0  0  0  0  0  0
   -7.4448   -0.9114   -2.0794 C   0  0  0  0  0  0  0  0  0  0  0  0
   -6.0053   -0.7066   -1.7533 C   0  0  0  0  0  0  0  0  0  0  0  0
   -4.0953    0.0292    1.3404 C   0  0  0  0  0  0  0  0  0  0  0  0
   -2.8075    0.3786    1.7309 C   0  0  0  0  0  0  0  0  0  0  0  0
   -0.2496    1.7108    2.3403 C   0  0  0  0  0  0  0  0  0  0  0  0
    0.9773    2.0770    2.7515 N   0  0  0  0  0  0  0  0  0  0  0  0
    2.1030    1.6880    2.1009 C   0  0  0  0  0  0  0  0  0  0  0  0
    3.4146    2.1308    2.6199 C   0  0  0  0  0  0  0  0  0  0  0  0
    4.0995    1.3606   -0.0689 C   0  0  0  0  0  0  0  0  0  0  0  0
    5.2035    0.9311   -0.7633 C   0  0  0  0  0  0  0  0  0  0  0  0
    6.2286    1.8007   -1.1217 O   0  0  0  0  0  0  0  0  0  0  0  0
    6.2148    3.1698   -0.8052 C   0  0  0  0  0  0  0  0  0  0  0  0
    5.3470   -0.3801   -1.1373 C   0  0  0  0  0  0  0  0  0  0  0  0
    6.4653   -0.8355   -1.8453 O   0  0  0  0  0  0  0  0  0  0  0  0
    7.6308   -1.3132   -1.2437 C   0  0  0  0  0  0  0  0  0  0  0  0
    3.8005   -4.5815   -1.1314 H   0  0  0  0  0  0  0  0  0  0  0  0
    3.4166   -3.5069    0.2766 H   0  0  0  0  0  0  0  0  0  0  0  0
    2.5298   -3.2917   -1.3104 H   0  0  0  0  0  0  0  0  0  0  0  0
    2.5234   -1.6216    0.1098 H   0  0  0  0  0  0  0  0  0  0  0  0
    0.5581   -0.1178   -0.3232 H   0  0  0  0  0  0  0  0  0  0  0  0
   -1.3601    0.4813   -1.2601 H   0  0  0  0  0  0  0  0  0  0  0  0
   -3.6312   -0.1344   -1.9436 H   0  0  0  0  0  0  0  0  0  0  0  0
   -6.6902    0.2719    1.2661 H   0  0  0  0  0  0  0  0  0  0  0  0
   -6.4531   -1.4774    1.3809 H   0  0  0  0  0  0  0  0  0  0  0  0
   -8.5611    0.1274   -0.0445 H   0  0  0  0  0  0  0  0  0  0  0  0
   -8.7683   -1.3889    0.8824 H   0  0  0  0  0  0  0  0  0  0  0  0
   -7.6673   -2.5647   -0.9315 H   0  0  0  0  0  0  0  0  0  0  0  0
   -7.9555    0.0886   -2.1204 H   0  0  0  0  0  0  0  0  0  0  0  0
   -7.5278   -1.3644   -3.0875 H   0  0  0  0  0  0  0  0  0  0  0  0
   -5.3724   -1.5397   -2.1325 H   0  0  0  0  0  0  0  0  0  0  0  0
   -5.6131    0.2073   -2.2795 H   0  0  0  0  0  0  0  0  0  0  0  0
   -4.8718   -0.0966    2.1094 H   0  0  0  0  0  0  0  0  0  0  0  0
   -2.6510    0.5067    2.7917 H   0  0  0  0  0  0  0  0  0  0  0  0
   -1.1477    2.0403    2.8865 H   0  0  0  0  0  0  0  0  0  0  0  0
    4.2450    1.4237    2.3828 H   0  0  0  0  0  0  0  0  0  0  0  0
    3.3217    2.0564    3.7462 H   0  0  0  0  0  0  0  0  0  0  0  0
    3.6456    3.1826    2.4317 H   0  0  0  0  0  0  0  0  0  0  0  0
    4.0409    2.4151    0.1997 H   0  0  0  0  0  0  0  0  0  0  0  0
    5.4866    3.7077   -1.4376 H   0  0  0  0  0  0  0  0  0  0  0  0
    5.9808    3.2744    0.2624 H   0  0  0  0  0  0  0  0  0  0  0  0
    7.1984    3.5976   -0.9953 H   0  0  0  0  0  0  0  0  0  0  0  0
    7.5191   -1.3965   -0.1423 H   0  0  0  0  0  0  0  0  0  0  0  0
    7.9060   -2.2917   -1.7066 H   0  0  0  0  0  0  0  0  0  0  0  0
    8.4540   -0.6144   -1.5111 H   0  0  0  0  0  0  0  0  0  0  0  0
  1  2  1  0
  2  3  1  0
  3  4  2  0
  4  5  1  0
  5  6  1  0
  6  7  2  0
  7  8  1  0
  8  9  1  0
  9 10  2  0
 10 11  1  0
 11 12  2  0
 12 13  1  0
 13 14  1  0
 14 15  1  0
 15 16  1  0
 16 17  1  0
 17 18  1  0
 12 19  1  0
 19 20  2  0
  8 21  2  0
 21 22  1  0
 22 23  2  0
 23 24  1  0
  5 25  2  0
 25 26  1  0
 26 27  1  0
 27 28  1  0
 26 29  2  0
 29 30  1  0
 30 31  1  0
 29  3  1  0
 23  6  1  0
 20  9  1  0
 18 13  1  0
  1 32  1  0
  1 33  1  0
  1 34  1  0
  4 35  1  0
  7 36  1  0
 10 37  1  0
 11 38  1  0
 14 39  1  0
 14 40  1  0
 15 41  1  0
 15 42  1  0
 16 43  1  0
 17 44  1  0
 17 45  1  0
 18 46  1  0
 18 47  1  0
 19 48  1  0
 20 49  1  0
 21 50  1  0
 24 51  1  0
 24 52  1  0
 24 53  1  0
 25 54  1  0
 28 55  1  0
 28 56  1  0
 28 57  1  0
 31 58  1  0
 31 59  1  0
 31 60  1  0
M  END
$$$$
