@<TRIPOS>MOLECULE
*****
 60 63 0 0 0
SMALL
GASTEIGER

@<TRIPOS>ATOM
      1 C           3.4940   -3.5449   -0.8490 C.3     1  UNL1        0.0790
      2 O           4.5280   -2.6354   -1.2036 O.3     1  UNL1       -0.4913
      3 C           4.3775   -1.3093   -0.8227 C.ar    1  UNL1        0.1657
      4 C           3.2695   -0.8496   -0.1194 C.ar    1  UNL1       -0.0083
      5 C           3.1168    0.4612    0.2595 C.ar    1  UNL1       -0.0090
      6 C           1.9366    0.8935    0.9887 C.ar    1  UNL1        0.0039
      7 C           0.6686    0.5039    0.5482 C.ar    1  UNL1       -0.0431
      8 C          -0.4524    0.9160    1.2312 C.ar    1  UNL1        0.0008
      9 C          -1.7946    0.5513    0.8293 C.ar    1  UNL1       -0.0163
     10 C          -2.1091    0.3617   -0.4996 C.ar    1  UNL1       -0.0522
     11 C          -3.3804    0.0153   -0.9030 C.ar    1  UNL1       -0.0401
     12 C          -4.3994   -0.1574    0.0165 C.ar    1  UNL1        0.0298
     13 N          -5.7120   -0.5121   -0.3598 N.pl3   1  UNL1       -0.3275
     14 C          -6.7222   -0.6718    0.6407 C.3     1  UNL1        0.0248
     15 C          -8.1096   -0.8739    0.1373 C.3     1  UNL1        0.0117
     16 N          -8.1491   -1.6710   -1.0633 N.3     1  UNL1       -0.3130
     17 C          -7.4448   -0.9114   -2.0794 C.3     1  UNL1        0.0117
     18 C          -6.0053   -0.7066   -1.7533 C.3     1  UNL1        0.0248
     19 C          -4.0953    0.0292    1.3404 C.ar    1  UNL1       -0.0401
     20 C          -2.8075    0.3786    1.7309 C.ar    1  UNL1       -0.0522
     21 C          -0.2496    1.7108    2.3403 C.ar    1  UNL1        0.0356
     22 N           0.9773    2.0770    2.7515 N.ar    1  UNL1       -0.2590
     23 C           2.1030    1.6880    2.1009 C.ar    1  UNL1        0.0459
     24 C           3.4146    2.1308    2.6199 C.3     1  UNL1       -0.0218
     25 C           4.0995    1.3606   -0.0689 C.ar    1  UNL1       -0.0083
     26 C           5.2035    0.9311   -0.7633 C.ar    1  UNL1        0.1657
     27 O           6.2286    1.8007   -1.1217 O.3     1  UNL1       -0.4913
     28 C           6.2148    3.1698   -0.8052 C.3     1  UNL1        0.0790
     29 C           5.3470   -0.3801   -1.1373 C.ar    1  UNL1        0.2035
     30 O           6.4653   -0.8355   -1.8453 O.3     1  UNL1       -0.4885
     31 C           7.6308   -1.3132   -1.2437 C.3     1  UNL1        0.0791
     32 H           3.8005   -4.5815   -1.1314 H       1  UNL1        0.0660
     33 H           3.4166   -3.5069    0.2766 H       1  UNL1        0.0660
     34 H           2.5298   -3.2917   -1.3104 H       1  UNL1        0.0660
     35 H           2.5234   -1.6216    0.1098 H       1  UNL1        0.0661
     36 H           0.5581   -0.1178   -0.3232 H       1  UNL1        0.0631
     37 H          -1.3601    0.4813   -1.2601 H       1  UNL1        0.0624
     38 H          -3.6312   -0.1344   -1.9436 H       1  UNL1        0.0636
     39 H          -6.6902    0.2719    1.2661 H       1  UNL1        0.0476
     40 H          -6.4531   -1.4774    1.3809 H       1  UNL1        0.0476
     41 H          -8.5611    0.1274   -0.0445 H       1  UNL1        0.0439
     42 H          -8.7683   -1.3889    0.8824 H       1  UNL1        0.0439
     43 H          -7.6673   -2.5647   -0.9315 H       1  UNL1        0.1220
     44 H          -7.9555    0.0886   -2.1204 H       1  UNL1        0.0439
     45 H          -7.5278   -1.3644   -3.0875 H       1  UNL1        0.0439
     46 H          -5.3724   -1.5397   -2.1325 H       1  UNL1        0.0476
     47 H          -5.6131    0.2073   -2.2795 H       1  UNL1        0.0476
     48 H          -4.8718   -0.0966    2.1094 H       1  UNL1        0.0636
     49 H          -2.6510    0.5067    2.7917 H       1  UNL1        0.0624
     50 H          -1.1477    2.0403    2.8865 H       1  UNL1        0.0836
     51 H           4.2450    1.4237    2.3828 H       1  UNL1        0.0293
     52 H           3.3217    2.0564    3.7462 H       1  UNL1        0.0293
     53 H           3.6456    3.1826    2.4317 H       1  UNL1        0.0293
     54 H           4.0409    2.4151    0.1997 H       1  UNL1        0.0661
     55 H           5.4866    3.7077   -1.4376 H       1  UNL1        0.0660
     56 H           5.9808    3.2744    0.2624 H       1  UNL1        0.0660
     57 H           7.1984    3.5976   -0.9953 H       1  UNL1        0.0660
     58 H           7.5191   -1.3965   -0.1423 H       1  UNL1        0.0660
     59 H           7.9060   -2.2917   -1.7066 H       1  UNL1        0.0660
     60 H           8.4540   -0.6144   -1.5111 H       1  UNL1        0.0660
@<TRIPOS>BOND
     1     1     2    1
     2     2     3    1
     3     3     4   ar
     4     4     5   ar
     5     5     6    1
     6     6     7   ar
     7     7     8   ar
     8     8     9    1
     9     9    10   ar
    10    10    11   ar
    11    11    12   ar
    12    12    13    1
    13    13    14    1
    14    14    15    1
    15    15    16    1
    16    16    17    1
    17    17    18    1
    18    12    19   ar
    19    19    20   ar
    20     8    21   ar
    21    21    22   ar
    22    22    23   ar
    23    23    24    1
    24     5    25   ar
    25    25    26   ar
    26    26    27    1
    27    27    28    1
    28    26    29   ar
    29    29    30    1
    30    30    31    1
    31    29     3   ar
    32    23     6   ar
    33    20     9   ar
    34    18    13    1
    35     1    32    1
    36     1    33    1
    37     1    34    1
    38     4    35    1
    39     7    36    1
    40    10    37    1
    41    11    38    1
    42    14    39    1
    43    14    40    1
    44    15    41    1
    45    15    42    1
    46    16    43    1
    47    17    44    1
    48    17    45    1
    49    18    46    1
    50    18    47    1
    51    19    48    1
    52    20    49    1
    53    21    50    1
    54    24    51    1
    55    24    52    1
    56    24    53    1
    57    25    54    1
    58    28    55    1
    59    28    56    1
    60    28    57    1
    61    31    58    1
    62    31    59    1
    63    31    60    1
