@<TRIPOS>MOLECULE
*****
 56 58 0 0 0
SMALL
GASTEIGER

@<TRIPOS>ATOM
      1 C          -4.1239   -1.4023   -1.5963 C.3     1  UNL1       -0.0649
      2 C          -5.4118   -0.6279   -1.6141 C.3     1  UNL1       -0.0504
      3 C          -5.1971    0.7406   -1.0317 C.3     1  UNL1       -0.0068
      4 C          -4.7128    0.6611    0.3666 C.ar    1  UNL1        0.0891
      5 N          -5.5024    0.7043    1.4819 N.ar    1  UNL1       -0.1736
      6 N          -4.7747    0.5663    2.5620 N.ar    1  UNL1       -0.2598
      7 C          -5.2903    0.5615    3.9087 C.3     1  UNL1        0.0311
      8 C          -3.4623    0.4239    2.2445 C.ar    1  UNL1        0.1513
      9 C          -2.3118    0.2639    2.9657 C.ar    1  UNL1        0.2775
     10 O          -2.3383    0.2067    4.2195 O.2     1  UNL1       -0.2655
     11 N          -1.1379    0.1679    2.3225 N.ar    1  UNL1       -0.3051
     12 C          -1.1051    0.2292    0.9832 C.ar    1  UNL1        0.1452
     13 C           0.1945    0.1114    0.2801 C.ar    1  UNL1        0.0607
     14 C           1.3666   -0.1641    0.9428 C.ar    1  UNL1       -0.0267
     15 C           2.5833   -0.2548    0.2586 C.ar    1  UNL1        0.0280
     16 N           3.7868   -0.5353    0.9653 N.pl3   1  UNL1       -0.3434
     17 C           5.0522   -0.6392    0.2653 C.3     1  UNL1        0.0174
     18 C           6.1868   -0.9085    1.2570 C.3     1  UNL1        0.0414
     19 C           7.4295   -0.9999    0.4487 C.2     1  UNL1        0.2369
     20 O           7.4748   -0.9087   -0.7876 O.2     1  UNL1       -0.2737
     21 N           8.6568   -1.2080    1.1690 N.am    1  UNL1       -0.1975
     22 O           9.8019   -1.2945    0.4713 O.3     1  UNL1       -0.2952
     23 C           2.5429   -0.0556   -1.1010 C.ar    1  UNL1       -0.0374
     24 C           1.3702    0.2215   -1.7733 C.ar    1  UNL1       -0.0175
     25 C           0.1671    0.3123   -1.0989 C.ar    1  UNL1        0.1312
     26 O          -1.0216    0.5888   -1.7325 O.3     1  UNL1       -0.4915
     27 C          -1.1717    0.8091   -3.0995 C.3     1  UNL1        0.0868
     28 C          -0.3987    1.9667   -3.6436 C.3     1  UNL1       -0.0307
     29 N          -2.2306    0.3847    0.2687 N.ar    1  UNL1       -0.2254
     30 C          -3.4360    0.4864    0.8504 C.ar    1  UNL1        0.1192
     31 H          -3.3157   -0.7982   -2.0214 H       1  UNL1        0.0230
     32 H          -3.8711   -1.6653   -0.5641 H       1  UNL1        0.0230
     33 H          -4.2293   -2.3848   -2.1288 H       1  UNL1        0.0230
     34 H          -6.1526   -1.1470   -0.9420 H       1  UNL1        0.0266
     35 H          -5.8384   -0.5611   -2.6464 H       1  UNL1        0.0266
     36 H          -4.3817    1.2081   -1.6600 H       1  UNL1        0.0329
     37 H          -6.1201    1.3509   -1.1161 H       1  UNL1        0.0329
     38 H          -5.2092    1.5852    4.3283 H       1  UNL1        0.0473
     39 H          -4.7034   -0.0999    4.5801 H       1  UNL1        0.0473
     40 H          -6.3332    0.2157    3.9215 H       1  UNL1        0.0473
     41 H          -0.2426    0.0450    2.9043 H       1  UNL1        0.1704
     42 H           1.3874   -0.3226    2.0110 H       1  UNL1        0.0644
     43 H           3.7763   -0.6715    2.0070 H       1  UNL1        0.1461
     44 H           5.2703    0.2015   -0.3951 H       1  UNL1        0.0466
     45 H           5.0252   -1.5598   -0.3898 H       1  UNL1        0.0466
     46 H           6.2443   -0.0685    1.9814 H       1  UNL1        0.0374
     47 H           5.9641   -1.8766    1.7444 H       1  UNL1        0.0374
     48 H           8.6784   -1.2898    2.1875 H       1  UNL1        0.1822
     49 H           9.8955   -0.6463   -0.2469 H       1  UNL1        0.2414
     50 H           3.5046   -0.1295   -1.6349 H       1  UNL1        0.0637
     51 H           1.4015    0.3660   -2.8424 H       1  UNL1        0.0655
     52 H          -2.2634    1.0031   -3.3057 H       1  UNL1        0.0694
     53 H          -0.9229   -0.0875   -3.7198 H       1  UNL1        0.0694
     54 H           0.2810    1.6920   -4.4976 H       1  UNL1        0.0262
     55 H           0.2498    2.4637   -2.8931 H       1  UNL1        0.0262
     56 H          -1.0813    2.7697   -4.0463 H       1  UNL1        0.0262
@<TRIPOS>BOND
     1     1     2    1
     2     2     3    1
     3     3     4    1
     4     4     5   ar
     5     5     6   ar
     6     6     7    1
     7     6     8   ar
     8     8     9   ar
     9     9    10    2
    10     9    11   ar
    11    11    12   ar
    12    12    13    1
    13    13    14   ar
    14    14    15   ar
    15    15    16    1
    16    16    17    1
    17    17    18    1
    18    18    19    1
    19    19    20    2
    20    19    21   am
    21    21    22    1
    22    15    23   ar
    23    23    24   ar
    24    24    25   ar
    25    25    26    1
    26    26    27    1
    27    27    28    1
    28    12    29   ar
    29    29    30   ar
    30    30     4   ar
    31    30     8   ar
    32    25    13   ar
    33     1    31    1
    34     1    32    1
    35     1    33    1
    36     2    34    1
    37     2    35    1
    38     3    36    1
    39     3    37    1
    40     7    38    1
    41     7    39    1
    42     7    40    1
    43    11    41    1
    44    14    42    1
    45    16    43    1
    46    17    44    1
    47    17    45    1
    48    18    46    1
    49    18    47    1
    50    21    48    1
    51    22    49    1
    52    23    50    1
    53    24    51    1
    54    27    52    1
    55    27    53    1
    56    28    54    1
    57    28    55    1
    58    28    56    1
