
     RDKit          3D

 56 58  0  0  0  0  0  0  0  0999 V2000
   -4.1239   -1.4023   -1.5963 C   0  0  0  0  0  0  0  0  0  0  0  0
   -5.4118   -0.6279   -1.6141 C   0  0  0  0  0  0  0  0  0  0  0  0
   -5.1971    0.7406   -1.0317 C   0  0  0  0  0  0  0  0  0  0  0  0
   -4.7128    0.6611    0.3666 C   0  0  0  0  0  0  0  0  0  0  0  0
   -5.5024    0.7043    1.4819 N   0  0  0  0  0  0  0  0  0  0  0  0
   -4.7747    0.5663    2.5620 N   0  0  0  0  0  0  0  0  0  0  0  0
   -5.2903    0.5615    3.9087 C   0  0  0  0  0  0  0  0  0  0  0  0
   -3.4623    0.4239    2.2445 C   0  0  0  0  0  0  0  0  0  0  0  0
   -2.3118    0.2639    2.9657 C   0  0  0  0  0  0  0  0  0  0  0  0
   -2.3383    0.2067    4.2195 O   0  0  0  0  0  0  0  0  0  0  0  0
   -1.1379    0.1679    2.3225 N   0  0  0  0  0  0  0  0  0  0  0  0
   -1.1051    0.2292    0.9832 C   0  0  0  0  0  0  0  0  0  0  0  0
    0.1945    0.1114    0.2801 C   0  0  0  0  0  0  0  0  0  0  0  0
    1.3666   -0.1641    0.9428 C   0  0  0  0  0  0  0  0  0  0  0  0
    2.5833   -0.2548    0.2586 C   0  0  0  0  0  0  0  0  0  0  0  0
    3.7868   -0.5353    0.9653 N   0  0  0  0  0  0  0  0  0  0  0  0
    5.0522   -0.6392    0.2653 C   0  0  0  0  0  0  0  0  0  0  0  0
    6.1868   -0.9085    1.2570 C   0  0  0  0  0  0  0  0  0  0  0  0
    7.4295   -0.9999    0.4487 C   0  0  0  0  0  0  0  0  0  0  0  0
    7.4748   -0.9087   -0.7876 O   0  0  0  0  0  0  0  0  0  0  0  0
    8.6568   -1.2080    1.1690 N   0  0  0  0  0  0  0  0  0  0  0  0
    9.8019   -1.2945    0.4713 O   0  0  0  0  0  0  0  0  0  0  0  0
    2.5429   -0.0556   -1.1010 C   0  0  0  0  0  0  0  0  0  0  0  0
    1.3702    0.2215   -1.7733 C   0  0  0  0  0  0  0  0  0  0  0  0
    0.1671    0.3123   -1.0989 C   0  0  0  0  0  0  0  0  0  0  0  0
   -1.0216    0.5888   -1.7325 O   0  0  0  0  0  0  0  0  0  0  0  0
   -1.1717    0.8091   -3.0995 C   0  0  0  0  0  0  0  0  0  0  0  0
   -0.3987    1.9667   -3.6436 C   0  0  0  0  0  0  0  0  0  0  0  0
   -2.2306    0.3847    0.2687 N   0  0  0  0  0  0  0  0  0  0  0  0
   -3.4360    0.4864    0.8504 C   0  0  0  0  0  0  0  0  0  0  0  0
   -3.3157   -0.7982   -2.0214 H   0  0  0  0  0  0  0  0  0  0  0  0
   -3.8711   -1.6653   -0.5641 H   0  0  0  0  0  0  0  0  0  0  0  0
   -4.2293   -2.3848   -2.1288 H   0  0  0  0  0  0  0  0  0  0  0  0
   -6.1526   -1.1470   -0.9420 H   0  0  0  0  0  0  0  0  0  0  0  0
   -5.8384   -0.5611   -2.6464 H   0  0  0  0  0  0  0  0  0  0  0  0
   -4.3817    1.2081   -1.6600 H   0  0  0  0  0  0  0  0  0  0  0  0
   -6.1201    1.3509   -1.1161 H   0  0  0  0  0  0  0  0  0  0  0  0
   -5.2092    1.5852    4.3283 H   0  0  0  0  0  0  0  0  0  0  0  0
   -4.7034   -0.0999    4.5801 H   0  0  0  0  0  0  0  0  0  0  0  0
   -6.3332    0.2157    3.9215 H   0  0  0  0  0  0  0  0  0  0  0  0
   -0.2426    0.0450    2.9043 H   0  0  0  0  0  0  0  0  0  0  0  0
    1.3874   -0.3226    2.0110 H   0  0  0  0  0  0  0  0  0  0  0  0
    3.7763   -0.6715    2.0070 H   0  0  0  0  0  0  0  0  0  0  0  0
    5.2703    0.2015   -0.3951 H   0  0  0  0  0  0  0  0  0  0  0  0
    5.0252   -1.5598   -0.3898 H   0  0  0  0  0  0  0  0  0  0  0  0
    6.2443   -0.0685    1.9814 H   0  0  0  0  0  0  0  0  0  0  0  0
    5.9641   -1.8766    1.7444 H   0  0  0  0  0  0  0  0  0  0  0  0
    8.6784   -1.2898    2.1875 H   0  0  0  0  0  0  0  0  0  0  0  0
    9.8955   -0.6463   -0.2469 H   0  0  0  0  0  0  0  0  0  0  0  0
    3.5046   -0.1295   -1.6349 H   0  0  0  0  0  0  0  0  0  0  0  0
    1.4015    0.3660   -2.8424 H   0  0  0  0  0  0  0  0  0  0  0  0
   -2.2634    1.0031   -3.3057 H   0  0  0  0  0  0  0  0  0  0  0  0
   -0.9229   -0.0875   -3.7198 H   0  0  0  0  0  0  0  0  0  0  0  0
    0.2810    1.6920   -4.4976 H   0  0  0  0  0  0  0  0  0  0  0  0
    0.2498    2.4637   -2.8931 H   0  0  0  0  0  0  0  0  0  0  0  0
   -1.0813    2.7697   -4.0463 H   0  0  0  0  0  0  0  0  0  0  0  0
  1  2  1  0
  2  3  1  0
  3  4  1  0
  4  5  2  0
  5  6  1  0
  6  7  1  0
  6  8  1  0
  8  9  1  0
  9 10  2  0
  9 11  1  0
 11 12  1  0
 12 13  1  0
 13 14  2  0
 14 15  1  0
 15 16  1  0
 16 17  1  0
 17 18  1  0
 18 19  1  0
 19 20  2  0
 19 21  1  0
 21 22  1  0
 15 23  2  0
 23 24  1  0
 24 25  2  0
 25 26  1  0
 26 27  1  0
 27 28  1  0
 12 29  2  0
 29 30  1  0
 30  4  1  0
 30  8  2  0
 25 13  1  0
  1 31  1  0
  1 32  1  0
  1 33  1  0
  2 34  1  0
  2 35  1  0
  3 36  1  0
  3 37  1  0
  7 38  1  0
  7 39  1  0
  7 40  1  0
 11 41  1  0
 14 42  1  0
 16 43  1  0
 17 44  1  0
 17 45  1  0
 18 46  1  0
 18 47  1  0
 21 48  1  0
 22 49  1  0
 23 50  1  0
 24 51  1  0
 27 52  1  0
 27 53  1  0
 28 54  1  0
 28 55  1  0
 28 56  1  0
M  END
$$$$
