
     RDKit          3D

 35 37  0  0  0  0  0  0  0  0999 V2000
   -1.9302    2.3222    1.0549 C   0  0  0  0  0  0  0  0  0  0  0  0
   -1.6758    1.0083    0.3533 C   0  0  1  0  0  0  0  0  0  0  0  0
   -1.1462    1.3189   -0.9140 O   0  0  0  0  0  0  0  0  0  0  0  0
    0.1676    0.8942   -0.9636 C   0  0  0  0  0  0  0  0  0  0  0  0
    0.7344    1.1649   -2.0420 O   0  0  0  0  0  0  0  0  0  0  0  0
    0.6012    0.2385    0.2132 N   0  0  0  0  0  0  0  0  0  0  0  0
    1.7979   -0.2861    0.5735 N   0  0  0  0  0  0  0  0  0  0  0  0
    3.1189   -0.2542    0.1053 C   0  0  0  0  0  0  0  0  0  0  0  0
    3.7074    0.6201   -0.7762 C   0  0  0  0  0  0  0  0  0  0  0  0
    4.9962    0.5995   -1.2505 C   0  0  0  0  0  0  0  0  0  0  0  0
    5.7856   -0.4226   -0.7821 C   0  0  0  0  0  0  0  0  0  0  0  0
    5.2997   -1.3520    0.1026 C   0  0  0  0  0  0  0  0  0  0  0  0
    4.0004   -1.2603    0.5274 C   0  0  0  0  0  0  0  0  0  0  0  0
   -0.5708    0.2884    1.0109 C   0  0  0  0  0  0  0  0  0  0  0  0
   -0.8126   -0.1707    2.1573 O   0  0  0  0  0  0  0  0  0  0  0  0
   -2.9053    0.1811    0.2661 C   0  0  0  0  0  0  0  0  0  0  0  0
   -4.1711    0.4708    0.7285 C   0  0  0  0  0  0  0  0  0  0  0  0
   -5.1908   -0.4484    0.5487 C   0  0  0  0  0  0  0  0  0  0  0  0
   -4.9447   -1.6492   -0.0895 C   0  0  0  0  0  0  0  0  0  0  0  0
   -6.0087   -2.4978   -0.2227 F   0  0  0  0  0  0  0  0  0  0  0  0
   -3.6827   -1.9527   -0.5572 C   0  0  0  0  0  0  0  0  0  0  0  0
   -2.6501   -1.0291   -0.3790 C   0  0  0  0  0  0  0  0  0  0  0  0
   -1.4422   -1.4259   -0.8791 F   0  0  0  0  0  0  0  0  0  0  0  0
   -1.0699    3.0081    0.9139 H   0  0  0  0  0  0  0  0  0  0  0  0
   -2.8117    2.8510    0.6708 H   0  0  0  0  0  0  0  0  0  0  0  0
   -2.0630    2.1827    2.1461 H   0  0  0  0  0  0  0  0  0  0  0  0
    1.7016   -0.8868    1.4552 H   0  0  0  0  0  0  0  0  0  0  0  0
    3.1287    1.4391   -1.1426 H   0  0  0  0  0  0  0  0  0  0  0  0
    5.3728    1.3363   -1.9447 H   0  0  0  0  0  0  0  0  0  0  0  0
    6.8095   -0.5048   -1.1112 H   0  0  0  0  0  0  0  0  0  0  0  0
    5.9750   -2.1333    0.4332 H   0  0  0  0  0  0  0  0  0  0  0  0
    3.7153   -2.0487    1.2274 H   0  0  0  0  0  0  0  0  0  0  0  0
   -4.1939    1.4411    1.2012 H   0  0  0  0  0  0  0  0  0  0  0  0
   -6.1336   -0.1297    0.9416 H   0  0  0  0  0  0  0  0  0  0  0  0
   -3.5089   -2.9128   -1.0605 H   0  0  0  0  0  0  0  0  0  0  0  0
  2  1  1  1
  2  3  1  0
  3  4  1  0
  4  5  2  0
  4  6  1  0
  6  7  1  0
  7  8  1  0
  8  9  2  0
  9 10  1  0
 10 11  2  0
 11 12  1  0
 12 13  2  0
  6 14  1  0
 14 15  2  0
  2 16  1  0
 16 17  2  0
 17 18  1  0
 18 19  2  0
 19 20  1  0
 19 21  1  0
 21 22  2  0
 22 23  1  0
 14  2  1  0
 22 16  1  0
 13  8  1  0
  1 24  1  0
  1 25  1  0
  1 26  1  0
  7 27  1  0
  9 28  1  0
 10 29  1  0
 11 30  1  0
 12 31  1  0
 13 32  1  0
 17 33  1  0
 18 34  1  0
 21 35  1  0
M  END
$$$$
