@<TRIPOS>MOLECULE
*****
 35 37 0 0 0
SMALL
GASTEIGER

@<TRIPOS>ATOM
      1 C          -1.9302    2.3222    1.0549 C.3     1  UNL1       -0.0115
      2 C          -1.6758    1.0083    0.3533 C.3     1  UNL1        0.2169
      3 O          -1.1462    1.3189   -0.9140 O.3     1  UNL1       -0.4282
      4 C           0.1676    0.8942   -0.9636 C.2     1  UNL1        0.4277
      5 O           0.7344    1.1649   -2.0420 O.2     1  UNL1       -0.2241
      6 N           0.6012    0.2385    0.2132 N.am    1  UNL1       -0.1185
      7 N           1.7979   -0.2861    0.5735 N.pl3   1  UNL1       -0.2525
      8 C           3.1189   -0.2542    0.1053 C.ar    1  UNL1        0.0452
      9 C           3.7074    0.6201   -0.7762 C.ar    1  UNL1       -0.0394
     10 C           4.9962    0.5995   -1.2505 C.ar    1  UNL1       -0.0600
     11 C           5.7856   -0.4226   -0.7821 C.ar    1  UNL1       -0.0616
     12 C           5.2997   -1.3520    0.1026 C.ar    1  UNL1       -0.0600
     13 C           4.0004   -1.2603    0.5274 C.ar    1  UNL1       -0.0394
     14 C          -0.5708    0.2884    1.0109 C.2     1  UNL1        0.2894
     15 O          -0.8126   -0.1707    2.1573 O.2     1  UNL1       -0.2687
     16 C          -2.9053    0.1811    0.2661 C.ar    1  UNL1        0.0399
     17 C          -4.1711    0.4708    0.7285 C.ar    1  UNL1       -0.0489
     18 C          -5.1908   -0.4484    0.5487 C.ar    1  UNL1       -0.0259
     19 C          -4.9447   -1.6492   -0.0895 C.ar    1  UNL1        0.1261
     20 F          -6.0087   -2.4978   -0.2227 F       1  UNL1       -0.2054
     21 C          -3.6827   -1.9527   -0.5572 C.ar    1  UNL1        0.0092
     22 C          -2.6501   -1.0291   -0.3790 C.ar    1  UNL1        0.1335
     23 F          -1.4422   -1.4259   -0.8791 F       1  UNL1       -0.2050
     24 H          -1.0699    3.0081    0.9139 H       1  UNL1        0.0276
     25 H          -2.8117    2.8510    0.6708 H       1  UNL1        0.0276
     26 H          -2.0630    2.1827    2.1461 H       1  UNL1        0.0276
     27 H           1.7016   -0.8868    1.4552 H       1  UNL1        0.1708
     28 H           3.1287    1.4391   -1.1426 H       1  UNL1        0.0636
     29 H           5.3728    1.3363   -1.9447 H       1  UNL1        0.0618
     30 H           6.8095   -0.5048   -1.1112 H       1  UNL1        0.0618
     31 H           5.9750   -2.1333    0.4332 H       1  UNL1        0.0618
     32 H           3.7153   -2.0487    1.2274 H       1  UNL1        0.0636
     33 H          -4.1939    1.4411    1.2012 H       1  UNL1        0.0623
     34 H          -6.1336   -0.1297    0.9416 H       1  UNL1        0.0646
     35 H          -3.5089   -2.9128   -1.0605 H       1  UNL1        0.0675
@<TRIPOS>BOND
     1     2     1    1
     2     2     3    1
     3     3     4    1
     4     4     5    2
     5     4     6   am
     6     6     7    1
     7     7     8    1
     8     8     9   ar
     9     9    10   ar
    10    10    11   ar
    11    11    12   ar
    12    12    13   ar
    13     6    14   am
    14    14    15    2
    15     2    16    1
    16    16    17   ar
    17    17    18   ar
    18    18    19   ar
    19    19    20    1
    20    19    21   ar
    21    21    22   ar
    22    22    23    1
    23    14     2    1
    24    22    16   ar
    25    13     8   ar
    26     1    24    1
    27     1    25    1
    28     1    26    1
    29     7    27    1
    30     9    28    1
    31    10    29    1
    32    11    30    1
    33    12    31    1
    34    13    32    1
    35    17    33    1
    36    18    34    1
    37    21    35    1
