
     RDKit          3D

 38 40  0  0  0  0  0  0  0  0999 V2000
   -2.7553   -0.9814    0.2722 C   0  0  1  0  0  0  0  0  0  0  0  0
   -3.2283   -2.2134   -0.5094 C   0  0  0  0  0  0  0  0  0  0  0  0
   -4.5170   -2.5925   -0.1239 O   0  0  0  0  0  0  0  0  0  0  0  0
   -1.4905   -0.6905   -0.1748 O   0  0  0  0  0  0  0  0  0  0  0  0
   -1.0523    0.4509    0.5181 C   0  0  1  0  0  0  0  0  0  0  0  0
    0.4115    0.4757    0.3413 C   0  0  0  0  0  0  0  0  0  0  0  0
    1.2894   -0.4343    0.4308 N   0  0  0  0  0  0  0  0  0  0  0  0
    2.5678   -0.1466    0.2200 C   0  0  0  0  0  0  0  0  0  0  0  0
    3.6281   -1.0265    0.2817 C   0  0  0  0  0  0  0  0  0  0  0  0
    4.8940   -0.5848    0.0398 C   0  0  0  0  0  0  0  0  0  0  0  0
    6.0471   -1.5537    0.1092 C   0  0  0  0  0  0  0  0  0  0  0  0
    5.2526    0.7039   -0.2748 C   0  0  0  0  0  0  0  0  0  0  0  0
    4.2517    1.6418   -0.3558 C   0  0  0  0  0  0  0  0  0  0  0  0
    2.9523    1.2349   -0.1173 C   0  0  0  0  0  0  0  0  0  0  0  0
    1.2568    2.0206   -0.0847 S   0  0  0  0  0  0  0  0  0  0  0  0
   -1.7237    1.5999   -0.2310 C   0  0  2  0  0  0  0  0  0  0  0  0
   -1.2369    2.8289    0.1991 O   0  0  0  0  0  0  0  0  0  0  0  0
   -3.1869    1.4985    0.0553 C   0  0  1  0  0  0  0  0  0  0  0  0
   -3.9220    2.1759   -0.9436 O   0  0  0  0  0  0  0  0  0  0  0  0
   -3.7360    0.1271    0.1617 C   0  0  2  0  0  0  0  0  0  0  0  0
   -4.5518    0.0953    1.3165 O   0  0  0  0  0  0  0  0  0  0  0  0
   -2.6587   -1.3323    1.3277 H   0  0  0  0  0  0  0  0  0  0  0  0
   -3.1222   -2.0277   -1.5888 H   0  0  0  0  0  0  0  0  0  0  0  0
   -2.5677   -3.0702   -0.2557 H   0  0  0  0  0  0  0  0  0  0  0  0
   -4.4002   -2.9916    0.7893 H   0  0  0  0  0  0  0  0  0  0  0  0
   -1.4061    0.4738    1.5483 H   0  0  0  0  0  0  0  0  0  0  0  0
    3.5068   -2.0731    0.5173 H   0  0  0  0  0  0  0  0  0  0  0  0
    5.7428   -2.3110    0.8819 H   0  0  0  0  0  0  0  0  0  0  0  0
    6.0731   -2.0915   -0.8716 H   0  0  0  0  0  0  0  0  0  0  0  0
    6.9779   -1.0512    0.3740 H   0  0  0  0  0  0  0  0  0  0  0  0
    6.2124    1.1234   -0.4762 H   0  0  0  0  0  0  0  0  0  0  0  0
    4.2719    2.6808   -0.5780 H   0  0  0  0  0  0  0  0  0  0  0  0
   -1.5504    1.4207   -1.3122 H   0  0  0  0  0  0  0  0  0  0  0  0
   -1.3654    3.4716   -0.5418 H   0  0  0  0  0  0  0  0  0  0  0  0
   -3.3619    2.1137    0.9746 H   0  0  0  0  0  0  0  0  0  0  0  0
   -4.8176    1.7490   -1.0398 H   0  0  0  0  0  0  0  0  0  0  0  0
   -4.4331   -0.1171   -0.6691 H   0  0  0  0  0  0  0  0  0  0  0  0
   -4.2522   -0.5969    1.9570 H   0  0  0  0  0  0  0  0  0  0  0  0
  1  2  1  0
  2  3  1  0
  1  4  1  0
  4  5  1  0
  5  6  1  0
  6  7  2  0
  7  8  1  0
  8  9  2  0
  9 10  1  0
 10 11  1  0
 10 12  2  0
 12 13  1  0
 13 14  2  0
 14 15  1  0
  5 16  1  0
 16 17  1  0
 16 18  1  0
 18 19  1  0
 18 20  1  0
 20 21  1  0
 20  1  1  0
 15  6  1  0
 14  8  1  0
  1 22  1  1
  2 23  1  0
  2 24  1  0
  3 25  1  0
  5 26  1  1
  9 27  1  0
 11 28  1  0
 11 29  1  0
 11 30  1  0
 12 31  1  0
 13 32  1  0
 16 33  1  6
 17 34  1  0
 18 35  1  1
 19 36  1  0
 20 37  1  6
 21 38  1  0
M  END
$$$$
