@<TRIPOS>MOLECULE
*****
 38 40 0 0 0
SMALL
GASTEIGER

@<TRIPOS>ATOM
      1 C          -2.7553   -0.9814    0.2722 C.3     1  UNL1        0.1109
      2 C          -3.2283   -2.2134   -0.5094 C.3     1  UNL1        0.0729
      3 O          -4.5170   -2.5925   -0.1239 O.3     1  UNL1       -0.3924
      4 O          -1.4905   -0.6905   -0.1748 O.3     1  UNL1       -0.3591
      5 C          -1.0523    0.4509    0.5181 C.3     1  UNL1        0.1355
      6 C           0.4115    0.4757    0.3413 C.ar    1  UNL1        0.1108
      7 N           1.2894   -0.4343    0.4308 N.ar    1  UNL1       -0.2413
      8 C           2.5678   -0.1466    0.2200 C.ar    1  UNL1        0.0788
      9 C           3.6281   -1.0265    0.2817 C.ar    1  UNL1       -0.0323
     10 C           4.8940   -0.5848    0.0398 C.ar    1  UNL1       -0.0484
     11 C           6.0471   -1.5537    0.1092 C.3     1  UNL1       -0.0396
     12 C           5.2526    0.7039   -0.2748 C.ar    1  UNL1       -0.0577
     13 C           4.2517    1.6418   -0.3558 C.ar    1  UNL1       -0.0456
     14 C           2.9523    1.2349   -0.1173 C.ar    1  UNL1        0.0393
     15 S           1.2568    2.0206   -0.0847 S.2     1  UNL1       -0.0694
     16 C          -1.7237    1.5999   -0.2310 C.3     1  UNL1        0.1156
     17 O          -1.2369    2.8289    0.1991 O.3     1  UNL1       -0.3862
     18 C          -3.1869    1.4985    0.0553 C.3     1  UNL1        0.1121
     19 O          -3.9220    2.1759   -0.9436 O.3     1  UNL1       -0.3865
     20 C          -3.7360    0.1271    0.1617 C.3     1  UNL1        0.1117
     21 O          -4.5518    0.0953    1.3165 O.3     1  UNL1       -0.3865
     22 H          -2.6587   -1.3323    1.3277 H       1  UNL1        0.0646
     23 H          -3.1222   -2.0277   -1.5888 H       1  UNL1        0.0584
     24 H          -2.5677   -3.0702   -0.2557 H       1  UNL1        0.0584
     25 H          -4.4002   -2.9916    0.7893 H       1  UNL1        0.2095
     26 H          -1.4061    0.4738    1.5483 H       1  UNL1        0.0694
     27 H           3.5068   -2.0731    0.5173 H       1  UNL1        0.0642
     28 H           5.7428   -2.3110    0.8819 H       1  UNL1        0.0278
     29 H           6.0731   -2.0915   -0.8716 H       1  UNL1        0.0278
     30 H           6.9779   -1.0512    0.3740 H       1  UNL1        0.0278
     31 H           6.2124    1.1234   -0.4762 H       1  UNL1        0.0621
     32 H           4.2719    2.6808   -0.5780 H       1  UNL1        0.0629
     33 H          -1.5504    1.4207   -1.3122 H       1  UNL1        0.0650
     34 H          -1.3654    3.4716   -0.5418 H       1  UNL1        0.2100
     35 H          -3.3619    2.1137    0.9746 H       1  UNL1        0.0647
     36 H          -4.8176    1.7490   -1.0398 H       1  UNL1        0.2100
     37 H          -4.4331   -0.1171   -0.6691 H       1  UNL1        0.0647
     38 H          -4.2522   -0.5969    1.9570 H       1  UNL1        0.2100
@<TRIPOS>BOND
     1     1     2    1
     2     2     3    1
     3     1     4    1
     4     4     5    1
     5     5     6    1
     6     6     7   ar
     7     7     8   ar
     8     8     9   ar
     9     9    10   ar
    10    10    11    1
    11    10    12   ar
    12    12    13   ar
    13    13    14   ar
    14    14    15   ar
    15     5    16    1
    16    16    17    1
    17    16    18    1
    18    18    19    1
    19    18    20    1
    20    20    21    1
    21    20     1    1
    22    15     6   ar
    23    14     8   ar
    24     1    22    1
    25     2    23    1
    26     2    24    1
    27     3    25    1
    28     5    26    1
    29     9    27    1
    30    11    28    1
    31    11    29    1
    32    11    30    1
    33    12    31    1
    34    13    32    1
    35    16    33    1
    36    17    34    1
    37    18    35    1
    38    19    36    1
    39    20    37    1
    40    21    38    1
