@<TRIPOS>MOLECULE
*****
 47 50 0 0 0
SMALL
GASTEIGER

@<TRIPOS>ATOM
      1 BR          6.7161    1.7103   -2.9267 Br      1  UNL1       -0.0503
      2 C           6.1183    1.1210   -1.2056 C.ar    1  UNL1        0.0185
      3 C           6.8695    1.4571   -0.0782 C.ar    1  UNL1       -0.0470
      4 C           6.4565    1.0426    1.1705 C.ar    1  UNL1       -0.0480
      5 C           5.3014    0.2916    1.3421 C.ar    1  UNL1        0.0451
      6 C           4.8831   -0.1359    2.6706 C.2     1  UNL1        0.2511
      7 O           5.6144    0.2057    3.6508 O.2     1  UNL1       -0.2698
      8 N           3.7164   -0.9021    2.9064 N.am    1  UNL1       -0.2483
      9 C           2.9745   -1.2260    1.7286 C.2     1  UNL1        0.2523
     10 O           1.9140   -1.9169    1.8981 O.2     1  UNL1       -0.2697
     11 C           3.3811   -0.8052    0.3949 C.2     1  UNL1        0.0587
     12 C           2.6413   -1.1455   -0.6399 C.2     1  UNL1        0.0065
     13 N           1.4465   -1.9122   -0.5440 N.pl3   1  UNL1       -0.3198
     14 C           0.1748   -1.3173   -0.7618 C.ar    1  UNL1        0.0309
     15 C           0.1001    0.0204   -1.0697 C.ar    1  UNL1       -0.0403
     16 C          -1.1591    0.5460   -1.2710 C.ar    1  UNL1       -0.0556
     17 C          -2.3571   -0.1746   -1.1858 C.ar    1  UNL1       -0.0332
     18 C          -3.6074    0.5407   -1.4352 C.3     1  UNL1        0.0240
     19 N          -4.2116    1.1717   -0.3077 N.3     1  UNL1       -0.2982
     20 C          -4.5786    0.3209    0.7753 C.3     1  UNL1       -0.0007
     21 C          -6.1141    0.2541    0.7599 C.3     1  UNL1       -0.0390
     22 C          -6.3861    1.7219    0.4019 C.3     1  UNL1       -0.0390
     23 C          -5.3751    1.9161   -0.7076 C.3     1  UNL1       -0.0007
     24 C          -2.1885   -1.5004   -0.8746 C.ar    1  UNL1       -0.0556
     25 C          -0.9535   -2.0819   -0.6622 C.ar    1  UNL1       -0.0403
     26 C           4.5814   -0.0240    0.2093 C.ar    1  UNL1        0.0014
     27 C           4.9675    0.3747   -1.0495 C.ar    1  UNL1       -0.0391
     28 H           7.7680    2.0424   -0.2221 H       1  UNL1        0.0629
     29 H           7.0562    1.3184    2.0096 H       1  UNL1        0.0626
     30 H           3.3992   -1.2173    3.8410 H       1  UNL1        0.1581
     31 H           2.8361   -0.8960   -1.6680 H       1  UNL1        0.0789
     32 H           1.5310   -2.9309   -0.3076 H       1  UNL1        0.1516
     33 H           0.9720    0.6453   -1.1544 H       1  UNL1        0.0636
     34 H          -1.1936    1.6171   -1.5159 H       1  UNL1        0.0621
     35 H          -3.3932    1.3581   -2.1824 H       1  UNL1        0.0476
     36 H          -4.3637   -0.1000   -1.9695 H       1  UNL1        0.0476
     37 H          -4.1520   -0.6844    0.7804 H       1  UNL1        0.0427
     38 H          -4.3601    0.8568    1.7477 H       1  UNL1        0.0427
     39 H          -6.5093    0.0201    1.7605 H       1  UNL1        0.0278
     40 H          -6.4778   -0.4238   -0.0211 H       1  UNL1        0.0278
     41 H          -7.4334    1.8690    0.0805 H       1  UNL1        0.0278
     42 H          -6.0908    2.3268    1.2662 H       1  UNL1        0.0278
     43 H          -5.1906    3.0012   -0.7962 H       1  UNL1        0.0427
     44 H          -5.8187    1.5327   -1.6620 H       1  UNL1        0.0427
     45 H          -3.0776   -2.0970   -0.8015 H       1  UNL1        0.0621
     46 H          -0.8844   -3.1315   -0.4199 H       1  UNL1        0.0636
     47 H           4.4568    0.1632   -1.9542 H       1  UNL1        0.0635
@<TRIPOS>BOND
     1     1     2    1
     2     2     3   ar
     3     3     4   ar
     4     4     5   ar
     5     5     6    1
     6     6     7    2
     7     6     8   am
     8     8     9   am
     9     9    10    2
    10     9    11    1
    11    11    12    2
    12    12    13    1
    13    13    14    1
    14    14    15   ar
    15    15    16   ar
    16    16    17   ar
    17    17    18    1
    18    18    19    1
    19    19    20    1
    20    20    21    1
    21    21    22    1
    22    22    23    1
    23    17    24   ar
    24    24    25   ar
    25    11    26    1
    26    26    27   ar
    27    27     2   ar
    28    26     5   ar
    29    25    14   ar
    30    23    19    1
    31     3    28    1
    32     4    29    1
    33     8    30    1
    34    12    31    1
    35    13    32    1
    36    15    33    1
    37    16    34    1
    38    18    35    1
    39    18    36    1
    40    20    37    1
    41    20    38    1
    42    21    39    1
    43    21    40    1
    44    22    41    1
    45    22    42    1
    46    23    43    1
    47    23    44    1
    48    24    45    1
    49    25    46    1
    50    27    47    1
