@<TRIPOS>MOLECULE
*****
 76 78 0 0 0
SMALL
GASTEIGER

@<TRIPOS>ATOM
      1 C          -5.6846   -3.5858    1.0749 C.3     1  UNL1       -0.0416
      2 C          -4.3541   -3.1460    0.5095 C.3     1  UNL1        0.0449
      3 O          -3.6159   -2.3881    1.3901 O.3     1  UNL1       -0.3782
      4 C          -4.2207   -1.2234    1.7993 C.3     1  UNL1        0.0660
      5 C          -4.5413   -0.2709    0.6825 C.3     1  UNL1        0.0467
      6 C          -5.3495    0.8814    1.2759 C.3     1  UNL1       -0.0300
      7 C          -5.7364    1.8792    0.2366 C.3     1  UNL1       -0.0450
      8 C          -6.5377    3.0253    0.8631 C.3     1  UNL1       -0.0626
      9 C          -6.7133    1.1866   -0.7130 C.3     1  UNL1       -0.0626
     10 N          -3.3749    0.1427   -0.0457 N.am    1  UNL1       -0.3099
     11 C          -2.5508    1.2380    0.2790 C.2     1  UNL1        0.2201
     12 O          -2.8155    1.9329    1.2882 O.2     1  UNL1       -0.2754
     13 C          -1.3613    1.6016   -0.5475 C.3     1  UNL1        0.0746
     14 C          -1.7242    1.9128   -1.9853 C.3     1  UNL1        0.0094
     15 N          -1.2011    0.8969   -2.8804 N.3     1  UNL1       -0.3144
     16 C           0.2266    0.7930   -2.8825 C.3     1  UNL1        0.0095
     17 C           0.7812    1.0567   -1.4877 C.3     1  UNL1        0.0752
     18 C           2.0795    0.4127   -1.2845 C.2     1  UNL1        0.2279
     19 O           2.4889   -0.3858   -2.1541 O.2     1  UNL1       -0.2748
     20 N           2.8574    0.6712   -0.1519 N.am    1  UNL1       -0.2527
     21 C           4.0733   -0.0933    0.0237 C.ar    1  UNL1        0.1277
     22 C           5.2858    0.3279   -0.4808 C.ar    1  UNL1       -0.0210
     23 C           6.4475   -0.4021   -0.3128 C.ar    1  UNL1       -0.0536
     24 C           6.4150   -1.5955    0.3798 C.ar    1  UNL1       -0.0266
     25 C           7.6479   -2.4151    0.5837 C.3     1  UNL1       -0.0201
     26 C           8.6942   -1.6241    1.3469 C.3     1  UNL1       -0.0586
     27 C           8.2324   -2.8809   -0.7214 C.3     1  UNL1       -0.0586
     28 C           5.1871   -1.9903    0.8725 C.ar    1  UNL1        0.0331
     29 N           4.0704   -1.2599    0.6947 N.ar    1  UNL1       -0.2396
     30 C           2.4700    1.6858    0.7759 C.3     1  UNL1        0.0326
     31 C           3.5843    2.5973    1.3281 C.3     1  UNL1       -0.0322
     32 C           2.8163    1.6187    2.2108 C.3     1  UNL1       -0.0322
     33 C          -0.2834    0.5441   -0.5304 C.3     1  UNL1        0.0797
     34 O          -0.7678   -0.6986   -0.9339 O.3     1  UNL1       -0.3902
     35 H          -5.5991   -3.8013    2.1437 H       1  UNL1        0.0252
     36 H          -6.4698   -2.8090    0.8442 H       1  UNL1        0.0252
     37 H          -6.0100   -4.4920    0.5251 H       1  UNL1        0.0252
     38 H          -4.4816   -2.6142   -0.4342 H       1  UNL1        0.0557
     39 H          -3.7770   -4.0907    0.3240 H       1  UNL1        0.0557
     40 H          -3.5552   -0.7591    2.5558 H       1  UNL1        0.0578
     41 H          -5.1806   -1.4148    2.3561 H       1  UNL1        0.0578
     42 H          -5.2508   -0.7639   -0.0675 H       1  UNL1        0.0521
     43 H          -6.2772    0.4599    1.7680 H       1  UNL1        0.0286
     44 H          -4.7933    1.3599    2.0888 H       1  UNL1        0.0286
     45 H          -4.8980    2.3044   -0.3080 H       1  UNL1        0.0296
     46 H          -7.5509    2.6793    1.0974 H       1  UNL1        0.0232
     47 H          -5.9908    3.3140    1.7928 H       1  UNL1        0.0232
     48 H          -6.5007    3.8848    0.1749 H       1  UNL1        0.0232
     49 H          -7.3053    0.4853   -0.0941 H       1  UNL1        0.0232
     50 H          -6.1323    0.5606   -1.4182 H       1  UNL1        0.0232
     51 H          -7.3354    1.9270   -1.2339 H       1  UNL1        0.0232
     52 H          -3.0727   -0.4031   -0.9208 H       1  UNL1        0.1491
     53 H          -0.9118    2.5214   -0.1365 H       1  UNL1        0.0432
     54 H          -2.8171    1.8977   -2.0713 H       1  UNL1        0.0432
     55 H          -1.3681    2.9129   -2.3087 H       1  UNL1        0.0432
     56 H          -1.6142    1.0601   -3.8151 H       1  UNL1        0.1220
     57 H           0.7187    1.4984   -3.5899 H       1  UNL1        0.0432
     58 H           0.5163   -0.2227   -3.1670 H       1  UNL1        0.0432
     59 H           0.8398    2.1480   -1.3601 H       1  UNL1        0.0433
     60 H           5.3189    1.2626   -1.0250 H       1  UNL1        0.0652
     61 H           7.4026   -0.0797   -0.7045 H       1  UNL1        0.0622
     62 H           7.3637   -3.3125    1.1710 H       1  UNL1        0.0344
     63 H           9.5902   -2.2693    1.4055 H       1  UNL1        0.0235
     64 H           8.3136   -1.3274    2.3426 H       1  UNL1        0.0235
     65 H           8.8787   -0.6960    0.7647 H       1  UNL1        0.0235
     66 H           7.8127   -2.3057   -1.5656 H       1  UNL1        0.0235
     67 H           8.0513   -3.9724   -0.8710 H       1  UNL1        0.0235
     68 H           9.3403   -2.7703   -0.6849 H       1  UNL1        0.0235
     69 H           5.1635   -2.9242    1.4142 H       1  UNL1        0.0833
     70 H           1.5586    2.2463    0.5364 H       1  UNL1        0.0505
     71 H           3.3857    3.6680    1.4319 H       1  UNL1        0.0284
     72 H           4.6185    2.2858    1.0314 H       1  UNL1        0.0284
     73 H           3.4234    0.8046    2.6368 H       1  UNL1        0.0284
     74 H           2.1277    2.0763    2.9489 H       1  UNL1        0.0284
     75 H           0.1216    0.4243    0.4763 H       1  UNL1        0.0609
     76 H          -0.1791   -1.1983   -1.5199 H       1  UNL1        0.2098
@<TRIPOS>BOND
     1     1     2    1
     2     2     3    1
     3     3     4    1
     4     4     5    1
     5     5     6    1
     6     6     7    1
     7     7     8    1
     8     7     9    1
     9     5    10    1
    10    10    11   am
    11    11    12    2
    12    11    13    1
    13    13    14    1
    14    14    15    1
    15    15    16    1
    16    16    17    1
    17    17    18    1
    18    18    19    2
    19    18    20   am
    20    20    21    1
    21    21    22   ar
    22    22    23   ar
    23    23    24   ar
    24    24    25    1
    25    25    26    1
    26    25    27    1
    27    24    28   ar
    28    28    29   ar
    29    20    30    1
    30    30    31    1
    31    31    32    1
    32    17    33    1
    33    33    34    1
    34    33    13    1
    35    29    21   ar
    36    32    30    1
    37     1    35    1
    38     1    36    1
    39     1    37    1
    40     2    38    1
    41     2    39    1
    42     4    40    1
    43     4    41    1
    44     5    42    1
    45     6    43    1
    46     6    44    1
    47     7    45    1
    48     8    46    1
    49     8    47    1
    50     8    48    1
    51     9    49    1
    52     9    50    1
    53     9    51    1
    54    10    52    1
    55    13    53    1
    56    14    54    1
    57    14    55    1
    58    15    56    1
    59    16    57    1
    60    16    58    1
    61    17    59    1
    62    22    60    1
    63    23    61    1
    64    25    62    1
    65    26    63    1
    66    26    64    1
    67    26    65    1
    68    27    66    1
    69    27    67    1
    70    27    68    1
    71    28    69    1
    72    30    70    1
    73    31    71    1
    74    31    72    1
    75    32    73    1
    76    32    74    1
    77    33    75    1
    78    34    76    1
