
     RDKit          3D

 76 78  0  0  0  0  0  0  0  0999 V2000
   -5.6846   -3.5858    1.0749 C   0  0  0  0  0  0  0  0  0  0  0  0
   -4.3541   -3.1460    0.5095 C   0  0  0  0  0  0  0  0  0  0  0  0
   -3.6159   -2.3881    1.3901 O   0  0  0  0  0  0  0  0  0  0  0  0
   -4.2207   -1.2234    1.7993 C   0  0  0  0  0  0  0  0  0  0  0  0
   -4.5413   -0.2709    0.6825 C   0  0  1  0  0  0  0  0  0  0  0  0
   -5.3495    0.8814    1.2759 C   0  0  0  0  0  0  0  0  0  0  0  0
   -5.7364    1.8792    0.2366 C   0  0  0  0  0  0  0  0  0  0  0  0
   -6.5377    3.0253    0.8631 C   0  0  0  0  0  0  0  0  0  0  0  0
   -6.7133    1.1866   -0.7130 C   0  0  0  0  0  0  0  0  0  0  0  0
   -3.3749    0.1427   -0.0457 N   0  0  0  0  0  0  0  0  0  0  0  0
   -2.5508    1.2380    0.2790 C   0  0  0  0  0  0  0  0  0  0  0  0
   -2.8155    1.9329    1.2882 O   0  0  0  0  0  0  0  0  0  0  0  0
   -1.3613    1.6016   -0.5475 C   0  0  2  0  0  0  0  0  0  0  0  0
   -1.7242    1.9128   -1.9853 C   0  0  0  0  0  0  0  0  0  0  0  0
   -1.2011    0.8969   -2.8804 N   0  0  0  0  0  0  0  0  0  0  0  0
    0.2266    0.7930   -2.8825 C   0  0  0  0  0  0  0  0  0  0  0  0
    0.7812    1.0567   -1.4877 C   0  0  2  0  0  0  0  0  0  0  0  0
    2.0795    0.4127   -1.2845 C   0  0  0  0  0  0  0  0  0  0  0  0
    2.4889   -0.3858   -2.1541 O   0  0  0  0  0  0  0  0  0  0  0  0
    2.8574    0.6712   -0.1519 N   0  0  0  0  0  0  0  0  0  0  0  0
    4.0733   -0.0933    0.0237 C   0  0  0  0  0  0  0  0  0  0  0  0
    5.2858    0.3279   -0.4808 C   0  0  0  0  0  0  0  0  0  0  0  0
    6.4475   -0.4021   -0.3128 C   0  0  0  0  0  0  0  0  0  0  0  0
    6.4150   -1.5955    0.3798 C   0  0  0  0  0  0  0  0  0  0  0  0
    7.6479   -2.4151    0.5837 C   0  0  0  0  0  0  0  0  0  0  0  0
    8.6942   -1.6241    1.3469 C   0  0  0  0  0  0  0  0  0  0  0  0
    8.2324   -2.8809   -0.7214 C   0  0  0  0  0  0  0  0  0  0  0  0
    5.1871   -1.9903    0.8725 C   0  0  0  0  0  0  0  0  0  0  0  0
    4.0704   -1.2599    0.6947 N   0  0  0  0  0  0  0  0  0  0  0  0
    2.4700    1.6858    0.7759 C   0  0  0  0  0  0  0  0  0  0  0  0
    3.5843    2.5973    1.3281 C   0  0  0  0  0  0  0  0  0  0  0  0
    2.8163    1.6187    2.2108 C   0  0  0  0  0  0  0  0  0  0  0  0
   -0.2834    0.5441   -0.5304 C   0  0  2  0  0  0  0  0  0  0  0  0
   -0.7678   -0.6986   -0.9339 O   0  0  0  0  0  0  0  0  0  0  0  0
   -5.5991   -3.8013    2.1437 H   0  0  0  0  0  0  0  0  0  0  0  0
   -6.4698   -2.8090    0.8442 H   0  0  0  0  0  0  0  0  0  0  0  0
   -6.0100   -4.4920    0.5251 H   0  0  0  0  0  0  0  0  0  0  0  0
   -4.4816   -2.6142   -0.4342 H   0  0  0  0  0  0  0  0  0  0  0  0
   -3.7770   -4.0907    0.3240 H   0  0  0  0  0  0  0  0  0  0  0  0
   -3.5552   -0.7591    2.5558 H   0  0  0  0  0  0  0  0  0  0  0  0
   -5.1806   -1.4148    2.3561 H   0  0  0  0  0  0  0  0  0  0  0  0
   -5.2508   -0.7639   -0.0675 H   0  0  0  0  0  0  0  0  0  0  0  0
   -6.2772    0.4599    1.7680 H   0  0  0  0  0  0  0  0  0  0  0  0
   -4.7933    1.3599    2.0888 H   0  0  0  0  0  0  0  0  0  0  0  0
   -4.8980    2.3044   -0.3080 H   0  0  0  0  0  0  0  0  0  0  0  0
   -7.5509    2.6793    1.0974 H   0  0  0  0  0  0  0  0  0  0  0  0
   -5.9908    3.3140    1.7928 H   0  0  0  0  0  0  0  0  0  0  0  0
   -6.5007    3.8848    0.1749 H   0  0  0  0  0  0  0  0  0  0  0  0
   -7.3053    0.4853   -0.0941 H   0  0  0  0  0  0  0  0  0  0  0  0
   -6.1323    0.5606   -1.4182 H   0  0  0  0  0  0  0  0  0  0  0  0
   -7.3354    1.9270   -1.2339 H   0  0  0  0  0  0  0  0  0  0  0  0
   -3.0727   -0.4031   -0.9208 H   0  0  0  0  0  0  0  0  0  0  0  0
   -0.9118    2.5214   -0.1365 H   0  0  0  0  0  0  0  0  0  0  0  0
   -2.8171    1.8977   -2.0713 H   0  0  0  0  0  0  0  0  0  0  0  0
   -1.3681    2.9129   -2.3087 H   0  0  0  0  0  0  0  0  0  0  0  0
   -1.6142    1.0601   -3.8151 H   0  0  0  0  0  0  0  0  0  0  0  0
    0.7187    1.4984   -3.5899 H   0  0  0  0  0  0  0  0  0  0  0  0
    0.5163   -0.2227   -3.1670 H   0  0  0  0  0  0  0  0  0  0  0  0
    0.8398    2.1480   -1.3601 H   0  0  0  0  0  0  0  0  0  0  0  0
    5.3189    1.2626   -1.0250 H   0  0  0  0  0  0  0  0  0  0  0  0
    7.4026   -0.0797   -0.7045 H   0  0  0  0  0  0  0  0  0  0  0  0
    7.3637   -3.3125    1.1710 H   0  0  0  0  0  0  0  0  0  0  0  0
    9.5902   -2.2693    1.4055 H   0  0  0  0  0  0  0  0  0  0  0  0
    8.3136   -1.3274    2.3426 H   0  0  0  0  0  0  0  0  0  0  0  0
    8.8787   -0.6960    0.7647 H   0  0  0  0  0  0  0  0  0  0  0  0
    7.8127   -2.3057   -1.5656 H   0  0  0  0  0  0  0  0  0  0  0  0
    8.0513   -3.9724   -0.8710 H   0  0  0  0  0  0  0  0  0  0  0  0
    9.3403   -2.7703   -0.6849 H   0  0  0  0  0  0  0  0  0  0  0  0
    5.1635   -2.9242    1.4142 H   0  0  0  0  0  0  0  0  0  0  0  0
    1.5586    2.2463    0.5364 H   0  0  0  0  0  0  0  0  0  0  0  0
    3.3857    3.6680    1.4319 H   0  0  0  0  0  0  0  0  0  0  0  0
    4.6185    2.2858    1.0314 H   0  0  0  0  0  0  0  0  0  0  0  0
    3.4234    0.8046    2.6368 H   0  0  0  0  0  0  0  0  0  0  0  0
    2.1277    2.0763    2.9489 H   0  0  0  0  0  0  0  0  0  0  0  0
    0.1216    0.4243    0.4763 H   0  0  0  0  0  0  0  0  0  0  0  0
   -0.1791   -1.1983   -1.5199 H   0  0  0  0  0  0  0  0  0  0  0  0
  1  2  1  0
  2  3  1  0
  3  4  1  0
  4  5  1  0
  5  6  1  0
  6  7  1  0
  7  8  1  0
  7  9  1  0
  5 10  1  0
 10 11  1  0
 11 12  2  0
 11 13  1  0
 13 14  1  0
 14 15  1  0
 15 16  1  0
 16 17  1  0
 17 18  1  0
 18 19  2  0
 18 20  1  0
 20 21  1  0
 21 22  2  0
 22 23  1  0
 23 24  2  0
 24 25  1  0
 25 26  1  0
 25 27  1  0
 24 28  1  0
 28 29  2  0
 20 30  1  0
 30 31  1  0
 31 32  1  0
 17 33  1  0
 33 34  1  0
 33 13  1  0
 29 21  1  0
 32 30  1  0
  1 35  1  0
  1 36  1  0
  1 37  1  0
  2 38  1  0
  2 39  1  0
  4 40  1  0
  4 41  1  0
  5 42  1  6
  6 43  1  0
  6 44  1  0
  7 45  1  0
  8 46  1  0
  8 47  1  0
  8 48  1  0
  9 49  1  0
  9 50  1  0
  9 51  1  0
 10 52  1  0
 13 53  1  1
 14 54  1  0
 14 55  1  0
 15 56  1  0
 16 57  1  0
 16 58  1  0
 17 59  1  1
 22 60  1  0
 23 61  1  0
 25 62  1  0
 26 63  1  0
 26 64  1  0
 26 65  1  0
 27 66  1  0
 27 67  1  0
 27 68  1  0
 28 69  1  0
 30 70  1  0
 31 71  1  0
 31 72  1  0
 32 73  1  0
 32 74  1  0
 33 75  1  1
 34 76  1  0
M  END
$$$$
