
     RDKit          3D

 66 67  0  0  0  0  0  0  0  0999 V2000
   -0.8654    1.6751   -0.0552 C   0  0  1  0  0  0  0  0  0  0  0  0
   -2.3112    1.3568    0.2449 C   0  0  2  0  0  0  0  0  0  0  0  0
   -3.0171    2.4317    1.0151 C   0  0  0  0  0  0  0  0  0  0  0  0
   -3.0778    3.6371    0.0506 C   0  0  2  0  0  0  0  0  0  0  0  0
   -3.6043    3.1940   -1.1593 O   0  0  0  0  0  0  0  0  0  0  0  0
   -1.6638    4.1435   -0.1029 C   0  0  0  0  0  0  0  0  0  0  0  0
   -0.7547    3.1624   -0.1367 C   0  0  0  0  0  0  0  0  0  0  0  0
    0.6491    3.6361   -0.2693 C   0  0  0  0  0  0  0  0  0  0  0  0
    1.5995    3.0714    0.5008 C   0  0  0  0  0  0  0  0  0  0  0  0
    1.1249    1.9991    1.4375 C   0  0  2  0  0  0  0  0  0  0  0  0
    2.2770    1.3815    2.1545 C   0  0  0  0  0  0  0  0  0  0  0  0
    0.1261    1.0594    0.8646 C   0  0  2  0  0  0  0  0  0  0  0  0
    0.6819   -0.2270    0.3180 C   0  0  0  0  0  0  0  0  0  0  0  0
    1.4031   -0.1624   -0.9674 C   0  0  0  0  0  0  0  0  0  0  0  0
    1.8741   -1.5245   -1.4028 C   0  0  1  0  0  0  0  0  0  0  0  0
    2.5608   -1.4855   -2.6195 O   0  0  0  0  0  0  0  0  0  0  0  0
    2.6954   -2.2794   -0.4128 C   0  0  0  0  0  0  0  0  0  0  0  0
    3.9587   -1.6339    0.0338 C   0  0  1  0  0  0  0  0  0  0  0  0
    4.6326   -2.4506    0.9601 O   0  0  0  0  0  0  0  0  0  0  0  0
    4.9159   -1.3116   -1.0849 C   0  0  0  0  0  0  0  0  0  0  0  0
    6.1576   -0.6834   -0.5675 C   0  0  0  0  0  0  0  0  0  0  0  0
    7.2593    0.0828   -0.2368 O   0  0  0  0  0  0  0  0  0  0  0  0
    6.8914   -1.2212    0.3001 O   0  0  0  0  0  0  0  0  0  0  0  0
   -2.4546    0.0646    0.7313 O   0  0  0  0  0  0  0  0  0  0  0  0
   -3.0985   -0.9733    0.0924 C   0  0  0  0  0  0  0  0  0  0  0  0
   -3.5681   -0.6384   -1.0185 O   0  0  0  0  0  0  0  0  0  0  0  0
   -3.2352   -2.3469    0.6348 C   0  0  1  0  0  0  0  0  0  0  0  0
   -3.9991   -2.3865    1.9225 C   0  0  0  0  0  0  0  0  0  0  0  0
   -3.7866   -3.2318   -0.4252 C   0  0  0  0  0  0  0  0  0  0  0  0
   -5.1434   -2.7117   -0.8536 C   0  0  0  0  0  0  0  0  0  0  0  0
   -0.6647    1.2722   -1.0735 H   0  0  0  0  0  0  0  0  0  0  0  0
   -2.8333    1.3550   -0.7654 H   0  0  0  0  0  0  0  0  0  0  0  0
   -4.0792    2.1282    1.1042 H   0  0  0  0  0  0  0  0  0  0  0  0
   -2.5342    2.7266    1.9604 H   0  0  0  0  0  0  0  0  0  0  0  0
   -3.6807    4.4427    0.5138 H   0  0  0  0  0  0  0  0  0  0  0  0
   -4.5990    3.1263   -0.9777 H   0  0  0  0  0  0  0  0  0  0  0  0
   -1.4238    5.1704   -0.1834 H   0  0  0  0  0  0  0  0  0  0  0  0
    0.9044    4.4363   -0.9607 H   0  0  0  0  0  0  0  0  0  0  0  0
    2.6407    3.3721    0.4443 H   0  0  0  0  0  0  0  0  0  0  0  0
    0.5691    2.5827    2.2453 H   0  0  0  0  0  0  0  0  0  0  0  0
    2.1476    0.3668    2.5164 H   0  0  0  0  0  0  0  0  0  0  0  0
    2.5759    1.9844    3.0667 H   0  0  0  0  0  0  0  0  0  0  0  0
    3.1933    1.4351    1.5134 H   0  0  0  0  0  0  0  0  0  0  0  0
   -0.4991    0.7041    1.7609 H   0  0  0  0  0  0  0  0  0  0  0  0
   -0.2205   -0.8865    0.1502 H   0  0  0  0  0  0  0  0  0  0  0  0
    1.2440   -0.7874    1.1091 H   0  0  0  0  0  0  0  0  0  0  0  0
    0.7944    0.2229   -1.8272 H   0  0  0  0  0  0  0  0  0  0  0  0
    2.3102    0.4856   -0.9538 H   0  0  0  0  0  0  0  0  0  0  0  0
    0.9723   -2.1773   -1.6102 H   0  0  0  0  0  0  0  0  0  0  0  0
    2.0138   -1.0822   -3.3504 H   0  0  0  0  0  0  0  0  0  0  0  0
    2.9229   -3.3120   -0.7979 H   0  0  0  0  0  0  0  0  0  0  0  0
    2.0611   -2.4856    0.4941 H   0  0  0  0  0  0  0  0  0  0  0  0
    3.7022   -0.6990    0.6061 H   0  0  0  0  0  0  0  0  0  0  0  0
    5.3300   -2.9398    0.4585 H   0  0  0  0  0  0  0  0  0  0  0  0
    5.1630   -2.2421   -1.6229 H   0  0  0  0  0  0  0  0  0  0  0  0
    4.4932   -0.5691   -1.8052 H   0  0  0  0  0  0  0  0  0  0  0  0
    7.4066    0.9713   -0.6631 H   0  0  0  0  0  0  0  0  0  0  0  0
   -2.1875   -2.7110    0.8461 H   0  0  0  0  0  0  0  0  0  0  0  0
   -4.4511   -3.3964    2.0181 H   0  0  0  0  0  0  0  0  0  0  0  0
   -3.2946   -2.2680    2.7560 H   0  0  0  0  0  0  0  0  0  0  0  0
   -4.8382   -1.6684    1.9582 H   0  0  0  0  0  0  0  0  0  0  0  0
   -3.1111   -3.1310   -1.3203 H   0  0  0  0  0  0  0  0  0  0  0  0
   -3.8337   -4.2992   -0.1251 H   0  0  0  0  0  0  0  0  0  0  0  0
   -5.8383   -3.5800   -0.8683 H   0  0  0  0  0  0  0  0  0  0  0  0
   -5.4978   -1.9724   -0.1136 H   0  0  0  0  0  0  0  0  0  0  0  0
   -5.0854   -2.2027   -1.8231 H   0  0  0  0  0  0  0  0  0  0  0  0
  1  2  1  0
  2  3  1  0
  3  4  1  0
  4  5  1  0
  4  6  1  0
  6  7  2  0
  7  8  1  0
  8  9  2  0
  9 10  1  0
 10 11  1  0
 10 12  1  0
 12 13  1  0
 13 14  1  0
 14 15  1  0
 15 16  1  0
 15 17  1  0
 17 18  1  0
 18 19  1  0
 18 20  1  0
 20 21  1  0
 21 22  1  0
 21 23  2  0
  2 24  1  0
 24 25  1  0
 25 26  2  0
 25 27  1  0
 27 28  1  0
 27 29  1  0
 29 30  1  0
  7  1  1  0
 12  1  1  0
  1 31  1  6
  2 32  1  6
  3 33  1  0
  3 34  1  0
  4 35  1  1
  5 36  1  0
  6 37  1  0
  8 38  1  0
  9 39  1  0
 10 40  1  1
 11 41  1  0
 11 42  1  0
 11 43  1  0
 12 44  1  1
 13 45  1  0
 13 46  1  0
 14 47  1  0
 14 48  1  0
 15 49  1  6
 16 50  1  0
 17 51  1  0
 17 52  1  0
 18 53  1  1
 19 54  1  0
 20 55  1  0
 20 56  1  0
 22 57  1  0
 27 58  1  1
 28 59  1  0
 28 60  1  0
 28 61  1  0
 29 62  1  0
 29 63  1  0
 30 64  1  0
 30 65  1  0
 30 66  1  0
M  END
$$$$
