@<TRIPOS>MOLECULE
*****
 58 61 0 0 0
SMALL
GASTEIGER

@<TRIPOS>ATOM
      1 C           0.9202    2.1734    1.1085 C.3     1  UNL1        0.1419
      2 C          -0.4568    1.6139    1.1450 C.3     1  UNL1        0.0325
      3 C          -0.3058    0.3451    0.2889 C.3     1  UNL1        0.1357
      4 O          -1.2079   -0.5961    0.7682 O.3     1  UNL1       -0.4550
      5 C          -2.1213   -1.2000   -0.0507 C.2     1  UNL1        0.3413
      6 O          -1.9440   -0.7335   -1.1974 O.2     1  UNL1       -0.2449
      7 C          -3.0572   -2.1837    0.4738 C.ar    1  UNL1        0.0797
      8 C          -2.9849   -2.4795    1.8172 C.ar    1  UNL1       -0.0460
      9 C          -3.8199   -3.3883    2.3979 C.ar    1  UNL1       -0.0609
     10 C          -4.7752   -4.0509    1.6586 C.ar    1  UNL1       -0.0600
     11 C          -4.8393   -3.7481    0.3170 C.ar    1  UNL1       -0.0401
     12 C          -4.0041   -2.8343   -0.2815 C.ar    1  UNL1        0.0410
     13 N          -4.1279   -2.5714   -1.6703 N.pl3   1  UNL1       -0.3463
     14 C          -5.1366   -3.2764   -2.4340 C.3     1  UNL1       -0.0024
     15 C           1.1360    0.0222    0.7137 C.3     1  UNL1        0.1218
     16 C           1.7079   -1.0878   -0.1173 C.3     1  UNL1        0.0888
     17 O           3.0642   -1.1766    0.1554 O.3     1  UNL1       -0.2837
     18 P           3.8473   -2.3611   -0.7160 P.3     1  UNL1        0.4834
     19 O           3.0516   -2.5327   -2.2175 O.3     1  UNL1       -0.3022
     20 O           3.8710   -3.7107   -0.0872 O.2     1  UNL1       -0.2269
     21 O           5.4640   -1.8808   -0.9687 O.3     1  UNL1       -0.1862
     22 P           6.5342   -2.9624   -0.2343 P.3     1  UNL1        0.4808
     23 O           7.8602   -2.1290    0.3452 O.3     1  UNL1       -0.3023
     24 O           7.0038   -4.0693   -1.4069 O.3     1  UNL1       -0.3023
     25 O           5.8764   -3.6961    0.9137 O.2     1  UNL1       -0.2271
     26 O           1.7324    1.2583    0.4347 O.3     1  UNL1       -0.3472
     27 N           0.9618    3.4786    0.5361 N.ar    1  UNL1       -0.2878
     28 C           2.0662    3.8899   -0.1455 C.ar    1  UNL1        0.1003
     29 N           1.8737    5.1390   -0.5871 N.ar    1  UNL1       -0.2306
     30 C           0.6717    5.5711   -0.2187 C.ar    1  UNL1        0.1473
     31 C          -0.1187    6.6959   -0.3327 C.ar    1  UNL1        0.1472
     32 N           0.4284    7.7951   -1.0507 N.pl3   1  UNL1       -0.3413
     33 N          -1.3466    6.7322    0.2160 N.ar    1  UNL1       -0.2188
     34 C          -1.8774    5.6970    0.8990 C.ar    1  UNL1        0.1205
     35 N          -1.1030    4.6053    1.0063 N.ar    1  UNL1       -0.2159
     36 C           0.1275    4.5173    0.4783 C.ar    1  UNL1        0.1673
     37 H           1.3757    2.2414    2.1397 H       1  UNL1        0.0840
     38 H          -0.6667    1.2715    2.1900 H       1  UNL1        0.0346
     39 H          -1.2659    2.2438    0.7956 H       1  UNL1        0.0346
     40 H          -0.3505    0.5876   -0.7732 H       1  UNL1        0.0762
     41 H          -2.2556   -1.9962    2.4660 H       1  UNL1        0.0626
     42 H          -3.7431   -3.6022    3.4514 H       1  UNL1        0.0618
     43 H          -5.4373   -4.7715    2.1182 H       1  UNL1        0.0618
     44 H          -5.6076   -4.2939   -0.2275 H       1  UNL1        0.0636
     45 H          -3.5819   -1.9187   -2.2594 H       1  UNL1        0.1458
     46 H          -5.1153   -4.3781   -2.2012 H       1  UNL1        0.0425
     47 H          -6.1297   -2.9435   -2.0303 H       1  UNL1        0.0425
     48 H          -5.0574   -3.1681   -3.5190 H       1  UNL1        0.0425
     49 H           1.1641   -0.1235    1.7911 H       1  UNL1        0.0657
     50 H           1.1332   -1.9998    0.1369 H       1  UNL1        0.0593
     51 H           1.5896   -0.7948   -1.1811 H       1  UNL1        0.0593
     52 H           2.1497   -2.8613   -1.9927 H       1  UNL1        0.2220
     53 H           8.1460   -2.4269    1.2610 H       1  UNL1        0.2220
     54 H           7.1344   -3.6046   -2.2669 H       1  UNL1        0.2220
     55 H           2.9912    3.3624   -0.3461 H       1  UNL1        0.1030
     56 H           1.1577    7.6603   -1.7801 H       1  UNL1        0.1438
     57 H           0.2587    8.8152   -1.0217 H       1  UNL1        0.1438
     58 H          -2.8611    5.8351    1.2924 H       1  UNL1        0.1048
@<TRIPOS>BOND
     1     1     2    1
     2     2     3    1
     3     3     4    1
     4     4     5    1
     5     5     6    2
     6     5     7    1
     7     7     8   ar
     8     8     9   ar
     9     9    10   ar
    10    10    11   ar
    11    11    12   ar
    12    12    13    1
    13    13    14    1
    14     3    15    1
    15    15    16    1
    16    16    17    1
    17    17    18    1
    18    18    19    1
    19    18    20    2
    20    18    21    1
    21    21    22    1
    22    22    23    1
    23    22    24    1
    24    22    25    2
    25    15    26    1
    26     1    27    1
    27    27    28   ar
    28    28    29   ar
    29    29    30   ar
    30    30    31   ar
    31    31    32    1
    32    31    33   ar
    33    33    34   ar
    34    34    35   ar
    35    35    36   ar
    36    26     1    1
    37    36    27   ar
    38    12     7   ar
    39    36    30   ar
    40     1    37    1
    41     2    38    1
    42     2    39    1
    43     3    40    1
    44     8    41    1
    45     9    42    1
    46    10    43    1
    47    11    44    1
    48    13    45    1
    49    14    46    1
    50    14    47    1
    51    14    48    1
    52    15    49    1
    53    16    50    1
    54    16    51    1
    55    19    52    1
    56    23    53    1
    57    24    54    1
    58    28    55    1
    59    32    56    1
    60    32    57    1
    61    34    58    1
