@<TRIPOS>MOLECULE
*****
 47 49 0 0 0
SMALL
GASTEIGER

@<TRIPOS>ATOM
      1 C           8.6172   -0.1142    2.3751 C.3     1  UNL1        0.0805
      2 O           7.2806   -0.0980    2.8091 O.3     1  UNL1       -0.4786
      3 C           6.2064   -0.0638    1.9211 C.ar    1  UNL1        0.2332
      4 C           4.9158   -0.0488    2.3829 C.ar    1  UNL1        0.0899
      5 N           3.9092   -0.0154    1.4692 N.ar    1  UNL1       -0.2435
      6 C           4.1530    0.0028    0.1574 C.ar    1  UNL1        0.1439
      7 C           3.0748    0.0386   -0.8203 C.2     1  UNL1        0.2681
      8 O           3.3502    0.0547   -2.0469 O.2     1  UNL1       -0.2681
      9 N           1.7120    0.0562   -0.4436 N.am    1  UNL1       -0.2802
     10 C           0.5878    0.0906   -1.2979 C.ar    1  UNL1        0.0342
     11 C           0.5902    0.1117   -2.6610 C.ar    1  UNL1       -0.0377
     12 C          -0.5726    0.1453   -3.4202 C.ar    1  UNL1       -0.0243
     13 C          -1.7839    0.1579   -2.7848 C.ar    1  UNL1        0.1291
     14 F          -2.9317    0.1761   -3.5255 F       1  UNL1       -0.2051
     15 C          -1.8551    0.1376   -1.3789 C.ar    1  UNL1        0.0196
     16 C          -3.1955    0.1907   -0.7482 C.3     1  UNL1        0.1258
     17 C          -3.9211    1.4462   -1.1616 C.3     1  UNL1        0.1196
     18 F          -3.2384    2.5868   -0.7803 F       1  UNL1       -0.2462
     19 C          -3.0382    0.1156    0.7510 C.3     1  UNL1        0.0251
     20 C          -4.3119   -0.2866    1.4450 C.3     1  UNL1        0.1998
     21 C          -4.7594    0.7356    2.4461 C.3     1  UNL1        0.4266
     22 F          -3.8056    0.9330    3.4401 F       1  UNL1       -0.1669
     23 F          -5.0185    1.9783    1.9216 F       1  UNL1       -0.1669
     24 F          -5.9042    0.3345    3.1108 F       1  UNL1       -0.1669
     25 O          -5.3481   -0.6032    0.5621 O.2     1  UNL1       -0.4534
     26 C          -5.0420   -1.3344   -0.6026 C.2     1  UNL1        0.2766
     27 N          -5.7990   -2.4191   -1.0807 N.pl3   1  UNL1       -0.3134
     28 N          -3.9836   -0.9333   -1.2322 N.2     1  UNL1       -0.2228
     29 C          -0.6680    0.1049   -0.6866 C.ar    1  UNL1       -0.0322
     30 C           5.4491   -0.0127   -0.2783 C.ar    1  UNL1        0.0619
     31 N           6.4898   -0.0463    0.6106 N.ar    1  UNL1       -0.2178
     32 H           9.2002   -0.7023    3.1020 H       1  UNL1        0.0660
     33 H           8.7270   -0.5501    1.3516 H       1  UNL1        0.0660
     34 H           8.9515    0.9621    2.3566 H       1  UNL1        0.0660
     35 H           4.7459   -0.0640    3.4416 H       1  UNL1        0.0884
     36 H           1.5796    0.0402    0.6199 H       1  UNL1        0.1552
     37 H           1.5234    0.1022   -3.1857 H       1  UNL1        0.0637
     38 H          -0.5413    0.1619   -4.5071 H       1  UNL1        0.0647
     39 H          -4.8996    1.4584   -0.6399 H       1  UNL1        0.0643
     40 H          -4.1847    1.4789   -2.2405 H       1  UNL1        0.0643
     41 H          -2.2707   -0.6207    1.0655 H       1  UNL1        0.0331
     42 H          -2.7287    1.1026    1.1137 H       1  UNL1        0.0331
     43 H          -4.1238   -1.2257    2.0632 H       1  UNL1        0.0826
     44 H          -6.8348   -2.4361   -0.9729 H       1  UNL1        0.1466
     45 H          -5.3563   -3.2332   -1.5532 H       1  UNL1        0.1466
     46 H          -0.6843    0.1044    0.4088 H       1  UNL1        0.0640
     47 H           5.7374    0.0001   -1.3206 H       1  UNL1        0.0854
@<TRIPOS>BOND
     1     1     2    1
     2     2     3    1
     3     3     4   ar
     4     4     5   ar
     5     5     6   ar
     6     6     7    1
     7     7     8    2
     8     7     9   am
     9     9    10    1
    10    10    11   ar
    11    11    12   ar
    12    12    13   ar
    13    13    14    1
    14    13    15   ar
    15    15    16    1
    16    16    17    1
    17    17    18    1
    18    16    19    1
    19    19    20    1
    20    20    21    1
    21    21    22    1
    22    21    23    1
    23    21    24    1
    24    20    25    1
    25    25    26    1
    26    26    27    1
    27    26    28    2
    28    15    29   ar
    29     6    30   ar
    30    30    31   ar
    31    31     3   ar
    32    29    10   ar
    33    28    16    1
    34     1    32    1
    35     1    33    1
    36     1    34    1
    37     4    35    1
    38     9    36    1
    39    11    37    1
    40    12    38    1
    41    17    39    1
    42    17    40    1
    43    19    41    1
    44    19    42    1
    45    20    43    1
    46    27    44    1
    47    27    45    1
    48    29    46    1
    49    30    47    1
