
     RDKit          3D

 47 49  0  0  0  0  0  0  0  0999 V2000
    8.6172   -0.1142    2.3751 C   0  0  0  0  0  0  0  0  0  0  0  0
    7.2806   -0.0980    2.8091 O   0  0  0  0  0  0  0  0  0  0  0  0
    6.2064   -0.0638    1.9211 C   0  0  0  0  0  0  0  0  0  0  0  0
    4.9158   -0.0488    2.3829 C   0  0  0  0  0  0  0  0  0  0  0  0
    3.9092   -0.0154    1.4692 N   0  0  0  0  0  0  0  0  0  0  0  0
    4.1530    0.0028    0.1574 C   0  0  0  0  0  0  0  0  0  0  0  0
    3.0748    0.0386   -0.8203 C   0  0  0  0  0  0  0  0  0  0  0  0
    3.3502    0.0547   -2.0469 O   0  0  0  0  0  0  0  0  0  0  0  0
    1.7120    0.0562   -0.4436 N   0  0  0  0  0  0  0  0  0  0  0  0
    0.5878    0.0906   -1.2979 C   0  0  0  0  0  0  0  0  0  0  0  0
    0.5902    0.1117   -2.6610 C   0  0  0  0  0  0  0  0  0  0  0  0
   -0.5726    0.1453   -3.4202 C   0  0  0  0  0  0  0  0  0  0  0  0
   -1.7839    0.1579   -2.7848 C   0  0  0  0  0  0  0  0  0  0  0  0
   -2.9317    0.1761   -3.5255 F   0  0  0  0  0  0  0  0  0  0  0  0
   -1.8551    0.1376   -1.3789 C   0  0  0  0  0  0  0  0  0  0  0  0
   -3.1955    0.1907   -0.7482 C   0  0  2  0  0  0  0  0  0  0  0  0
   -3.9211    1.4462   -1.1616 C   0  0  0  0  0  0  0  0  0  0  0  0
   -3.2384    2.5868   -0.7803 F   0  0  0  0  0  0  0  0  0  0  0  0
   -3.0382    0.1156    0.7510 C   0  0  0  0  0  0  0  0  0  0  0  0
   -4.3119   -0.2866    1.4450 C   0  0  1  0  0  0  0  0  0  0  0  0
   -4.7594    0.7356    2.4461 C   0  0  0  0  0  0  0  0  0  0  0  0
   -3.8056    0.9330    3.4401 F   0  0  0  0  0  0  0  0  0  0  0  0
   -5.0185    1.9783    1.9216 F   0  0  0  0  0  0  0  0  0  0  0  0
   -5.9042    0.3345    3.1108 F   0  0  0  0  0  0  0  0  0  0  0  0
   -5.3481   -0.6032    0.5621 O   0  0  0  0  0  0  0  0  0  0  0  0
   -5.0420   -1.3344   -0.6026 C   0  0  0  0  0  0  0  0  0  0  0  0
   -5.7990   -2.4191   -1.0807 N   0  0  0  0  0  0  0  0  0  0  0  0
   -3.9836   -0.9333   -1.2322 N   0  0  0  0  0  0  0  0  0  0  0  0
   -0.6680    0.1049   -0.6866 C   0  0  0  0  0  0  0  0  0  0  0  0
    5.4491   -0.0127   -0.2783 C   0  0  0  0  0  0  0  0  0  0  0  0
    6.4898   -0.0463    0.6106 N   0  0  0  0  0  0  0  0  0  0  0  0
    9.2002   -0.7023    3.1020 H   0  0  0  0  0  0  0  0  0  0  0  0
    8.7270   -0.5501    1.3516 H   0  0  0  0  0  0  0  0  0  0  0  0
    8.9515    0.9621    2.3566 H   0  0  0  0  0  0  0  0  0  0  0  0
    4.7459   -0.0640    3.4416 H   0  0  0  0  0  0  0  0  0  0  0  0
    1.5796    0.0402    0.6199 H   0  0  0  0  0  0  0  0  0  0  0  0
    1.5234    0.1022   -3.1857 H   0  0  0  0  0  0  0  0  0  0  0  0
   -0.5413    0.1619   -4.5071 H   0  0  0  0  0  0  0  0  0  0  0  0
   -4.8996    1.4584   -0.6399 H   0  0  0  0  0  0  0  0  0  0  0  0
   -4.1847    1.4789   -2.2405 H   0  0  0  0  0  0  0  0  0  0  0  0
   -2.2707   -0.6207    1.0655 H   0  0  0  0  0  0  0  0  0  0  0  0
   -2.7287    1.1026    1.1137 H   0  0  0  0  0  0  0  0  0  0  0  0
   -4.1238   -1.2257    2.0632 H   0  0  0  0  0  0  0  0  0  0  0  0
   -6.8348   -2.4361   -0.9729 H   0  0  0  0  0  0  0  0  0  0  0  0
   -5.3563   -3.2332   -1.5532 H   0  0  0  0  0  0  0  0  0  0  0  0
   -0.6843    0.1044    0.4088 H   0  0  0  0  0  0  0  0  0  0  0  0
    5.7374    0.0001   -1.3206 H   0  0  0  0  0  0  0  0  0  0  0  0
  1  2  1  0
  2  3  1  0
  3  4  2  0
  4  5  1  0
  5  6  2  0
  6  7  1  0
  7  8  2  0
  7  9  1  0
  9 10  1  0
 10 11  2  0
 11 12  1  0
 12 13  2  0
 13 14  1  0
 13 15  1  0
 15 16  1  0
 16 17  1  1
 17 18  1  0
 16 19  1  0
 19 20  1  0
 20 21  1  0
 21 22  1  0
 21 23  1  0
 21 24  1  0
 20 25  1  0
 25 26  1  0
 26 27  1  0
 26 28  2  0
 15 29  2  0
  6 30  1  0
 30 31  2  0
 31  3  1  0
 29 10  1  0
 28 16  1  0
  1 32  1  0
  1 33  1  0
  1 34  1  0
  4 35  1  0
  9 36  1  0
 11 37  1  0
 12 38  1  0
 17 39  1  0
 17 40  1  0
 19 41  1  0
 19 42  1  0
 20 43  1  1
 27 44  1  0
 27 45  1  0
 29 46  1  0
 30 47  1  0
M  END
$$$$
