@<TRIPOS>MOLECULE
*****
 51 54 0 0 0
SMALL
GASTEIGER

@<TRIPOS>ATOM
      1 C          -2.7781    1.7488    2.2162 C.3     1  UNL1       -0.0274
      2 C          -2.4848    1.3167    0.7923 C.3     1  UNL1        0.1037
      3 O          -2.4296   -0.0737    0.7723 O.3     1  UNL1       -0.4725
      4 C          -1.2414   -0.6970    0.4246 C.ar    1  UNL1        0.2265
      5 N          -0.1470    0.0190    0.1079 N.ar    1  UNL1       -0.2121
      6 C           1.0202   -0.5455   -0.2335 C.ar    1  UNL1        0.0798
      7 C           2.1887    0.2824   -0.5714 C.ar    1  UNL1        0.0379
      8 C           2.2581    1.6567   -0.5877 C.ar    1  UNL1        0.0586
      9 N           3.4976    1.9741   -0.9477 N.ar    1  UNL1       -0.1790
     10 N           4.2436    0.9019   -1.1679 N.ar    1  UNL1       -0.2705
     11 C           5.6263    0.8078   -1.5707 C.3     1  UNL1        0.0497
     12 C           6.5913    0.7500   -0.4394 C.3     1  UNL1        0.0623
     13 C           6.5171    1.9694    0.4401 C.3     1  UNL1        0.3918
     14 F           6.7970    3.1007   -0.3105 F       1  UNL1       -0.1707
     15 F           7.4252    1.8928    1.4887 F       1  UNL1       -0.1707
     16 F           5.2487    2.0642    0.9695 F       1  UNL1       -0.1707
     17 C           3.4386   -0.1579   -0.9365 C.ar    1  UNL1        0.0347
     18 C           1.1157   -1.9197   -0.2651 C.ar    1  UNL1       -0.0076
     19 C           0.0234   -2.7205    0.0507 C.ar    1  UNL1        0.0999
     20 N          -0.1786   -4.0487    0.1058 N.ar    1  UNL1       -0.1712
     21 N          -1.4350   -4.2985    0.4709 N.ar    1  UNL1       -0.2732
     22 C          -1.9980   -5.6254    0.6312 C.3     1  UNL1        0.0302
     23 C          -2.0534   -3.1014    0.6543 C.ar    1  UNL1        0.0380
     24 C          -1.1535   -2.0890    0.3951 C.ar    1  UNL1        0.0812
     25 C          -3.5449    1.8882   -0.1091 C.3     1  UNL1        0.0196
     26 C          -3.3385    1.5113   -1.5564 C.3     1  UNL1        0.0182
     27 N          -4.6671    1.7564   -2.1071 N.am    1  UNL1       -0.3149
     28 C          -5.6388    1.6558   -1.0804 C.2     1  UNL1        0.2135
     29 O          -6.8752    1.8151   -1.1803 O.2     1  UNL1       -0.2758
     30 C          -4.9119    1.3192    0.1668 C.3     1  UNL1        0.0315
     31 H          -2.6872    2.8531    2.3250 H       1  UNL1        0.0265
     32 H          -3.8304    1.5000    2.4976 H       1  UNL1        0.0265
     33 H          -2.1376    1.2241    2.9455 H       1  UNL1        0.0265
     34 H          -1.5249    1.7663    0.5141 H       1  UNL1        0.0734
     35 H           1.4245    2.3164   -0.3432 H       1  UNL1        0.0854
     36 H           5.7347   -0.0507   -2.2656 H       1  UNL1        0.0511
     37 H           5.8179    1.7119   -2.2083 H       1  UNL1        0.0511
     38 H           7.6220    0.6933   -0.8981 H       1  UNL1        0.0370
     39 H           6.4417   -0.1893    0.1286 H       1  UNL1        0.0370
     40 H           3.7559   -1.2052   -1.0318 H       1  UNL1        0.0833
     41 H           2.0636   -2.3544   -0.5424 H       1  UNL1        0.0661
     42 H          -1.3195   -6.2679    1.2625 H       1  UNL1        0.0473
     43 H          -2.9569   -5.5982    1.1580 H       1  UNL1        0.0473
     44 H          -2.0314   -6.0995   -0.3543 H       1  UNL1        0.0473
     45 H          -3.0679   -2.9751    0.9501 H       1  UNL1        0.0834
     46 H          -3.6078    2.9769   -0.0225 H       1  UNL1        0.0356
     47 H          -2.5733    2.1441   -2.0493 H       1  UNL1        0.0466
     48 H          -3.0969    0.4576   -1.6995 H       1  UNL1        0.0466
     49 H          -4.8445    1.9712   -3.1103 H       1  UNL1        0.1487
     50 H          -5.3910    1.7497    1.0656 H       1  UNL1        0.0363
     51 H          -4.9064    0.2225    0.2855 H       1  UNL1        0.0363
@<TRIPOS>BOND
     1     1     2    1
     2     2     3    1
     3     3     4    1
     4     4     5   ar
     5     5     6   ar
     6     6     7    1
     7     7     8   ar
     8     8     9   ar
     9     9    10   ar
    10    10    11    1
    11    11    12    1
    12    12    13    1
    13    13    14    1
    14    13    15    1
    15    13    16    1
    16    10    17   ar
    17     6    18   ar
    18    18    19   ar
    19    19    20   ar
    20    20    21   ar
    21    21    22    1
    22    21    23   ar
    23    23    24   ar
    24     2    25    1
    25    25    26    1
    26    26    27    1
    27    27    28   am
    28    28    29    2
    29    28    30    1
    30    24     4   ar
    31    30    25    1
    32    17     7   ar
    33    24    19   ar
    34     1    31    1
    35     1    32    1
    36     1    33    1
    37     2    34    1
    38     8    35    1
    39    11    36    1
    40    11    37    1
    41    12    38    1
    42    12    39    1
    43    17    40    1
    44    18    41    1
    45    22    42    1
    46    22    43    1
    47    22    44    1
    48    23    45    1
    49    25    46    1
    50    26    47    1
    51    26    48    1
    52    27    49    1
    53    30    50    1
    54    30    51    1
