
     RDKit          3D

 51 54  0  0  0  0  0  0  0  0999 V2000
   -2.7781    1.7488    2.2162 C   0  0  0  0  0  0  0  0  0  0  0  0
   -2.4848    1.3167    0.7923 C   0  0  1  0  0  0  0  0  0  0  0  0
   -2.4296   -0.0737    0.7723 O   0  0  0  0  0  0  0  0  0  0  0  0
   -1.2414   -0.6970    0.4246 C   0  0  0  0  0  0  0  0  0  0  0  0
   -0.1470    0.0190    0.1079 N   0  0  0  0  0  0  0  0  0  0  0  0
    1.0202   -0.5455   -0.2335 C   0  0  0  0  0  0  0  0  0  0  0  0
    2.1887    0.2824   -0.5714 C   0  0  0  0  0  0  0  0  0  0  0  0
    2.2581    1.6567   -0.5877 C   0  0  0  0  0  0  0  0  0  0  0  0
    3.4976    1.9741   -0.9477 N   0  0  0  0  0  0  0  0  0  0  0  0
    4.2436    0.9019   -1.1679 N   0  0  0  0  0  0  0  0  0  0  0  0
    5.6263    0.8078   -1.5707 C   0  0  0  0  0  0  0  0  0  0  0  0
    6.5913    0.7500   -0.4394 C   0  0  0  0  0  0  0  0  0  0  0  0
    6.5171    1.9694    0.4401 C   0  0  0  0  0  0  0  0  0  0  0  0
    6.7970    3.1007   -0.3105 F   0  0  0  0  0  0  0  0  0  0  0  0
    7.4252    1.8928    1.4887 F   0  0  0  0  0  0  0  0  0  0  0  0
    5.2487    2.0642    0.9695 F   0  0  0  0  0  0  0  0  0  0  0  0
    3.4386   -0.1579   -0.9365 C   0  0  0  0  0  0  0  0  0  0  0  0
    1.1157   -1.9197   -0.2651 C   0  0  0  0  0  0  0  0  0  0  0  0
    0.0234   -2.7205    0.0507 C   0  0  0  0  0  0  0  0  0  0  0  0
   -0.1786   -4.0487    0.1058 N   0  0  0  0  0  0  0  0  0  0  0  0
   -1.4350   -4.2985    0.4709 N   0  0  0  0  0  0  0  0  0  0  0  0
   -1.9980   -5.6254    0.6312 C   0  0  0  0  0  0  0  0  0  0  0  0
   -2.0534   -3.1014    0.6543 C   0  0  0  0  0  0  0  0  0  0  0  0
   -1.1535   -2.0890    0.3951 C   0  0  0  0  0  0  0  0  0  0  0  0
   -3.5449    1.8882   -0.1091 C   0  0  1  0  0  0  0  0  0  0  0  0
   -3.3385    1.5113   -1.5564 C   0  0  0  0  0  0  0  0  0  0  0  0
   -4.6671    1.7564   -2.1071 N   0  0  0  0  0  0  0  0  0  0  0  0
   -5.6388    1.6558   -1.0804 C   0  0  0  0  0  0  0  0  0  0  0  0
   -6.8752    1.8151   -1.1803 O   0  0  0  0  0  0  0  0  0  0  0  0
   -4.9119    1.3192    0.1668 C   0  0  0  0  0  0  0  0  0  0  0  0
   -2.6872    2.8531    2.3250 H   0  0  0  0  0  0  0  0  0  0  0  0
   -3.8304    1.5000    2.4976 H   0  0  0  0  0  0  0  0  0  0  0  0
   -2.1376    1.2241    2.9455 H   0  0  0  0  0  0  0  0  0  0  0  0
   -1.5249    1.7663    0.5141 H   0  0  0  0  0  0  0  0  0  0  0  0
    1.4245    2.3164   -0.3432 H   0  0  0  0  0  0  0  0  0  0  0  0
    5.7347   -0.0507   -2.2656 H   0  0  0  0  0  0  0  0  0  0  0  0
    5.8179    1.7119   -2.2083 H   0  0  0  0  0  0  0  0  0  0  0  0
    7.6220    0.6933   -0.8981 H   0  0  0  0  0  0  0  0  0  0  0  0
    6.4417   -0.1893    0.1286 H   0  0  0  0  0  0  0  0  0  0  0  0
    3.7559   -1.2052   -1.0318 H   0  0  0  0  0  0  0  0  0  0  0  0
    2.0636   -2.3544   -0.5424 H   0  0  0  0  0  0  0  0  0  0  0  0
   -1.3195   -6.2679    1.2625 H   0  0  0  0  0  0  0  0  0  0  0  0
   -2.9569   -5.5982    1.1580 H   0  0  0  0  0  0  0  0  0  0  0  0
   -2.0314   -6.0995   -0.3543 H   0  0  0  0  0  0  0  0  0  0  0  0
   -3.0679   -2.9751    0.9501 H   0  0  0  0  0  0  0  0  0  0  0  0
   -3.6078    2.9769   -0.0225 H   0  0  0  0  0  0  0  0  0  0  0  0
   -2.5733    2.1441   -2.0493 H   0  0  0  0  0  0  0  0  0  0  0  0
   -3.0969    0.4576   -1.6995 H   0  0  0  0  0  0  0  0  0  0  0  0
   -4.8445    1.9712   -3.1103 H   0  0  0  0  0  0  0  0  0  0  0  0
   -5.3910    1.7497    1.0656 H   0  0  0  0  0  0  0  0  0  0  0  0
   -4.9064    0.2225    0.2855 H   0  0  0  0  0  0  0  0  0  0  0  0
  1  2  1  0
  2  3  1  0
  3  4  1  0
  4  5  2  0
  5  6  1  0
  6  7  1  0
  7  8  1  0
  8  9  2  0
  9 10  1  0
 10 11  1  0
 11 12  1  0
 12 13  1  0
 13 14  1  0
 13 15  1  0
 13 16  1  0
 10 17  1  0
  6 18  2  0
 18 19  1  0
 19 20  2  0
 20 21  1  0
 21 22  1  0
 21 23  1  0
 23 24  2  0
  2 25  1  0
 25 26  1  0
 26 27  1  0
 27 28  1  0
 28 29  2  0
 28 30  1  0
 24  4  1  0
 30 25  1  0
 17  7  2  0
 24 19  1  0
  1 31  1  0
  1 32  1  0
  1 33  1  0
  2 34  1  6
  8 35  1  0
 11 36  1  0
 11 37  1  0
 12 38  1  0
 12 39  1  0
 17 40  1  0
 18 41  1  0
 22 42  1  0
 22 43  1  0
 22 44  1  0
 23 45  1  0
 25 46  1  6
 26 47  1  0
 26 48  1  0
 27 49  1  0
 30 50  1  0
 30 51  1  0
M  END
$$$$
