
     RDKit          3D

 44 48  0  0  0  0  0  0  0  0999 V2000
   -4.5335   -2.8392    2.7428 O   0  0  0  0  0  0  0  0  0  0  0  0
   -5.3847   -1.7410    2.7290 C   0  0  0  0  0  0  0  0  0  0  0  0
   -5.6298   -1.2837    1.2943 C   0  0  0  0  0  0  0  0  0  0  0  0
   -4.3940   -0.9024    0.6380 N   0  0  0  0  0  0  0  0  0  0  0  0
   -3.8440    0.3450    0.6287 C   0  0  0  0  0  0  0  0  0  0  0  0
   -2.6727    0.3171   -0.0956 C   0  0  0  0  0  0  0  0  0  0  0  0
   -1.7709    1.4652   -0.3463 C   0  0  0  0  0  0  0  0  0  0  0  0
   -2.1033    2.6952    0.1799 C   0  0  0  0  0  0  0  0  0  0  0  0
   -1.3379    3.7824   -0.0034 N   0  0  0  0  0  0  0  0  0  0  0  0
   -0.2067    3.6423   -0.7325 C   0  0  0  0  0  0  0  0  0  0  0  0
    0.7706    4.5111   -1.1027 N   0  0  0  0  0  0  0  0  0  0  0  0
    1.6684    3.8627   -1.8223 N   0  0  0  0  0  0  0  0  0  0  0  0
    1.2997    2.6012   -1.9277 N   0  0  0  0  0  0  0  0  0  0  0  0
    1.9760    1.5234   -2.6244 C   0  0  0  0  0  0  0  0  0  0  0  0
    2.9314    0.8004   -1.7802 C   0  0  0  0  0  0  0  0  0  0  0  0
    4.2461    1.2482   -1.7382 C   0  0  0  0  0  0  0  0  0  0  0  0
    5.1863    0.6036   -0.9594 C   0  0  0  0  0  0  0  0  0  0  0  0
    4.8657   -0.5007   -0.1975 C   0  0  0  0  0  0  0  0  0  0  0  0
    5.7815   -1.1270    0.5598 N   0  0  0  0  0  0  0  0  0  0  0  0
    5.4814   -2.2100    1.3112 C   0  0  0  0  0  0  0  0  0  0  0  0
    4.1912   -2.6607    1.2787 C   0  0  0  0  0  0  0  0  0  0  0  0
    3.2203   -2.0482    0.5157 C   0  0  0  0  0  0  0  0  0  0  0  0
    3.5658   -0.9439   -0.2388 C   0  0  0  0  0  0  0  0  0  0  0  0
    2.6245   -0.3033   -1.0148 C   0  0  0  0  0  0  0  0  0  0  0  0
    0.1462    2.4224   -1.2685 C   0  0  0  0  0  0  0  0  0  0  0  0
   -0.6573    1.3381   -1.0613 N   0  0  0  0  0  0  0  0  0  0  0  0
   -2.5306   -0.9841   -0.5241 C   0  0  0  0  0  0  0  0  0  0  0  0
   -3.5920   -1.6629   -0.0525 N   0  0  0  0  0  0  0  0  0  0  0  0
   -5.0603   -3.6655    2.8302 H   0  0  0  0  0  0  0  0  0  0  0  0
   -4.9921   -0.9263    3.3591 H   0  0  0  0  0  0  0  0  0  0  0  0
   -6.3620   -2.0478    3.1377 H   0  0  0  0  0  0  0  0  0  0  0  0
   -6.0120   -2.2001    0.7567 H   0  0  0  0  0  0  0  0  0  0  0  0
   -6.4189   -0.5359    1.2281 H   0  0  0  0  0  0  0  0  0  0  0  0
   -4.2786    1.1952    1.1178 H   0  0  0  0  0  0  0  0  0  0  0  0
   -3.0165    2.7600    0.7558 H   0  0  0  0  0  0  0  0  0  0  0  0
    2.5259    1.9819   -3.4721 H   0  0  0  0  0  0  0  0  0  0  0  0
    1.2339    0.8179   -3.0399 H   0  0  0  0  0  0  0  0  0  0  0  0
    4.5728    2.1025   -2.3043 H   0  0  0  0  0  0  0  0  0  0  0  0
    6.2281    0.9359   -0.9086 H   0  0  0  0  0  0  0  0  0  0  0  0
    6.2322   -2.7039    1.9169 H   0  0  0  0  0  0  0  0  0  0  0  0
    3.9155   -3.5257    1.8682 H   0  0  0  0  0  0  0  0  0  0  0  0
    2.2132   -2.4310    0.5143 H   0  0  0  0  0  0  0  0  0  0  0  0
    1.6299   -0.6766   -1.0198 H   0  0  0  0  0  0  0  0  0  0  0  0
   -1.7088   -1.3694   -1.1282 H   0  0  0  0  0  0  0  0  0  0  0  0
  1  2  1  0
  2  3  1  0
  3  4  1  0
  4  5  1  0
  5  6  2  0
  6  7  1  0
  7  8  2  0
  8  9  1  0
  9 10  2  0
 10 11  1  0
 11 12  2  0
 12 13  1  0
 13 14  1  0
 14 15  1  0
 15 16  2  0
 16 17  1  0
 17 18  2  0
 18 19  1  0
 19 20  2  0
 20 21  1  0
 21 22  2  0
 22 23  1  0
 23 24  2  0
 13 25  1  0
 25 26  2  0
  6 27  1  0
 27 28  2  0
 28  4  1  0
 26  7  1  0
 25 10  1  0
 24 15  1  0
 23 18  1  0
  1 29  1  0
  2 30  1  0
  2 31  1  0
  3 32  1  0
  3 33  1  0
  5 34  1  0
  8 35  1  0
 14 36  1  0
 14 37  1  0
 16 38  1  0
 17 39  1  0
 20 40  1  0
 21 41  1  0
 22 42  1  0
 24 43  1  0
 27 44  1  0
M  END
$$$$
