@<TRIPOS>MOLECULE
*****
 44 48 0 0 0
SMALL
GASTEIGER

@<TRIPOS>ATOM
      1 O          -4.5335   -2.8392    2.7428 O.3     1  UNL1       -0.3932
      2 C          -5.3847   -1.7410    2.7290 C.3     1  UNL1        0.0637
      3 C          -5.6298   -1.2837    1.2943 C.3     1  UNL1        0.0646
      4 N          -4.3940   -0.9024    0.6380 N.ar    1  UNL1       -0.2686
      5 C          -3.8440    0.3450    0.6287 C.ar    1  UNL1        0.0348
      6 C          -2.6727    0.3171   -0.0956 C.ar    1  UNL1        0.0393
      7 C          -1.7709    1.4652   -0.3463 C.ar    1  UNL1        0.0945
      8 C          -2.1033    2.6952    0.1799 C.ar    1  UNL1        0.0562
      9 N          -1.3379    3.7824   -0.0034 N.ar    1  UNL1       -0.2295
     10 C          -0.2067    3.6423   -0.7325 C.ar    1  UNL1        0.2206
     11 N           0.7706    4.5111   -1.1027 N.ar    1  UNL1       -0.1076
     12 N           1.6684    3.8627   -1.8223 N.ar    1  UNL1       -0.0614
     13 N           1.2997    2.6012   -1.9277 N.ar    1  UNL1       -0.2209
     14 C           1.9760    1.5234   -2.6244 C.3     1  UNL1        0.0705
     15 C           2.9314    0.8004   -1.7802 C.ar    1  UNL1       -0.0253
     16 C           4.2461    1.2482   -1.7382 C.ar    1  UNL1       -0.0548
     17 C           5.1863    0.6036   -0.9594 C.ar    1  UNL1       -0.0354
     18 C           4.8657   -0.5007   -0.1975 C.ar    1  UNL1        0.0710
     19 N           5.7815   -1.1270    0.5598 N.ar    1  UNL1       -0.2550
     20 C           5.4814   -2.2100    1.3112 C.ar    1  UNL1        0.0283
     21 C           4.1912   -2.6607    1.2787 C.ar    1  UNL1       -0.0430
     22 C           3.2203   -2.0482    0.5157 C.ar    1  UNL1       -0.0511
     23 C           3.5658   -0.9439   -0.2388 C.ar    1  UNL1        0.0007
     24 C           2.6245   -0.3033   -1.0148 C.ar    1  UNL1       -0.0476
     25 C           0.1462    2.4224   -1.2685 C.ar    1  UNL1        0.1987
     26 N          -0.6573    1.3381   -1.0613 N.ar    1  UNL1       -0.2232
     27 C          -2.5306   -0.9841   -0.5241 C.ar    1  UNL1        0.0586
     28 N          -3.5920   -1.6629   -0.0525 N.ar    1  UNL1       -0.1789
     29 H          -5.0603   -3.6655    2.8302 H       1  UNL1        0.2095
     30 H          -4.9921   -0.9263    3.3591 H       1  UNL1        0.0575
     31 H          -6.3620   -2.0478    3.1377 H       1  UNL1        0.0575
     32 H          -6.0120   -2.2001    0.7567 H       1  UNL1        0.0531
     33 H          -6.4189   -0.5359    1.2281 H       1  UNL1        0.0531
     34 H          -4.2786    1.1952    1.1178 H       1  UNL1        0.0833
     35 H          -3.0165    2.7600    0.7558 H       1  UNL1        0.0852
     36 H           2.5259    1.9819   -3.4721 H       1  UNL1        0.0560
     37 H           1.2339    0.8179   -3.0399 H       1  UNL1        0.0560
     38 H           4.5728    2.1025   -2.3043 H       1  UNL1        0.0622
     39 H           6.2281    0.9359   -0.9086 H       1  UNL1        0.0639
     40 H           6.2322   -2.7039    1.9169 H       1  UNL1        0.0830
     41 H           3.9155   -3.5257    1.8682 H       1  UNL1        0.0633
     42 H           2.2132   -2.4310    0.5143 H       1  UNL1        0.0625
     43 H           1.6299   -0.6766   -1.0198 H       1  UNL1        0.0627
     44 H          -1.7088   -1.3694   -1.1282 H       1  UNL1        0.0854
@<TRIPOS>BOND
     1     1     2    1
     2     2     3    1
     3     3     4    1
     4     4     5   ar
     5     5     6   ar
     6     6     7    1
     7     7     8   ar
     8     8     9   ar
     9     9    10   ar
    10    10    11   ar
    11    11    12   ar
    12    12    13   ar
    13    13    14    1
    14    14    15    1
    15    15    16   ar
    16    16    17   ar
    17    17    18   ar
    18    18    19   ar
    19    19    20   ar
    20    20    21   ar
    21    21    22   ar
    22    22    23   ar
    23    23    24   ar
    24    13    25   ar
    25    25    26   ar
    26     6    27   ar
    27    27    28   ar
    28    28     4   ar
    29    26     7   ar
    30    25    10   ar
    31    24    15   ar
    32    23    18   ar
    33     1    29    1
    34     2    30    1
    35     2    31    1
    36     3    32    1
    37     3    33    1
    38     5    34    1
    39     8    35    1
    40    14    36    1
    41    14    37    1
    42    16    38    1
    43    17    39    1
    44    20    40    1
    45    21    41    1
    46    22    42    1
    47    24    43    1
    48    27    44    1
