
     RDKit          3D

 56 59  0  0  0  0  0  0  0  0999 V2000
    4.6801   -3.2906   -0.0636 O   0  0  0  0  0  0  0  0  0  0  0  0
    3.3589   -2.9001    0.2506 C   0  0  1  0  0  0  0  0  0  0  0  0
    3.3280   -2.1404    1.5348 C   0  0  0  0  0  0  0  0  0  0  0  0
    2.2941   -1.0169    1.3602 C   0  0  0  0  0  0  0  0  0  0  0  0
    2.9298   -0.0570    0.3807 C   0  0  2  0  0  0  0  0  0  0  0  0
    2.2978    1.2458    0.3658 N   0  0  0  0  0  0  0  0  0  0  0  0
    0.9284    1.3698    0.0309 C   0  0  0  0  0  0  0  0  0  0  0  0
    0.2795    0.1878   -0.2679 N   0  0  0  0  0  0  0  0  0  0  0  0
   -1.0078    0.1423   -0.6011 C   0  0  0  0  0  0  0  0  0  0  0  0
   -1.5999   -1.1198   -0.8945 N   0  0  0  0  0  0  0  0  0  0  0  0
   -3.0212   -1.1601   -1.2612 C   0  0  0  0  0  0  0  0  0  0  0  0
   -3.3775   -2.6102   -1.5160 C   0  0  0  0  0  0  0  0  0  0  0  0
   -3.4219   -3.2844   -0.1453 C   0  0  0  0  0  0  0  0  0  0  0  0
   -4.7375   -2.8428    0.4877 C   0  0  0  0  0  0  0  0  0  0  0  0
   -5.0645   -1.4124    0.1191 C   0  0  0  0  0  0  0  0  0  0  0  0
   -3.7862   -0.6239   -0.0622 C   0  0  0  0  0  0  0  0  0  0  0  0
   -1.7004    1.2857   -0.6484 N   0  0  0  0  0  0  0  0  0  0  0  0
   -1.0983    2.4792   -0.3602 C   0  0  0  0  0  0  0  0  0  0  0  0
    0.2330    2.5492   -0.0131 C   0  0  0  0  0  0  0  0  0  0  0  0
    0.8993    3.8331    0.3018 C   0  0  0  0  0  0  0  0  0  0  0  0
    0.1486    4.9993    0.2424 C   0  0  0  0  0  0  0  0  0  0  0  0
    0.7017    6.2336    0.5229 C   0  0  0  0  0  0  0  0  0  0  0  0
    2.0266    6.3039    0.8685 C   0  0  0  0  0  0  0  0  0  0  0  0
    2.7457    5.1094    0.9166 C   0  0  0  0  0  0  0  0  0  0  0  0
    2.1645    3.9505    0.6375 N   0  0  0  0  0  0  0  0  0  0  0  0
    2.9651   -0.7309   -0.9571 C   0  0  0  0  0  0  0  0  0  0  0  0
    2.7058   -2.1993   -0.9025 C   0  0  0  0  0  0  0  0  0  0  0  0
    4.6855   -3.5035   -1.0282 H   0  0  0  0  0  0  0  0  0  0  0  0
    2.8038   -3.8590    0.4159 H   0  0  0  0  0  0  0  0  0  0  0  0
    4.3238   -1.6407    1.6590 H   0  0  0  0  0  0  0  0  0  0  0  0
    3.1221   -2.7449    2.4274 H   0  0  0  0  0  0  0  0  0  0  0  0
    1.4084   -1.5234    0.9246 H   0  0  0  0  0  0  0  0  0  0  0  0
    2.1319   -0.5901    2.3473 H   0  0  0  0  0  0  0  0  0  0  0  0
    3.9786    0.0625    0.7093 H   0  0  0  0  0  0  0  0  0  0  0  0
    2.8926    2.0322    0.6051 H   0  0  0  0  0  0  0  0  0  0  0  0
   -1.0222   -1.9667   -0.8429 H   0  0  0  0  0  0  0  0  0  0  0  0
   -3.1859   -0.5660   -2.1681 H   0  0  0  0  0  0  0  0  0  0  0  0
   -2.5896   -3.0593   -2.1424 H   0  0  0  0  0  0  0  0  0  0  0  0
   -4.3496   -2.6598   -2.0266 H   0  0  0  0  0  0  0  0  0  0  0  0
   -3.3967   -4.3728   -0.3284 H   0  0  0  0  0  0  0  0  0  0  0  0
   -2.5624   -2.9046    0.4220 H   0  0  0  0  0  0  0  0  0  0  0  0
   -5.5418   -3.4745    0.0256 H   0  0  0  0  0  0  0  0  0  0  0  0
   -4.6908   -2.9865    1.5673 H   0  0  0  0  0  0  0  0  0  0  0  0
   -5.6333   -1.3748   -0.8523 H   0  0  0  0  0  0  0  0  0  0  0  0
   -5.6713   -0.9519    0.9203 H   0  0  0  0  0  0  0  0  0  0  0  0
   -4.0113    0.4347   -0.2363 H   0  0  0  0  0  0  0  0  0  0  0  0
   -3.1824   -0.7618    0.8693 H   0  0  0  0  0  0  0  0  0  0  0  0
   -1.7004    3.3761   -0.4123 H   0  0  0  0  0  0  0  0  0  0  0  0
   -0.9144    5.0036   -0.0280 H   0  0  0  0  0  0  0  0  0  0  0  0
    0.0731    7.1378    0.4650 H   0  0  0  0  0  0  0  0  0  0  0  0
    2.4578    7.2580    1.0863 H   0  0  0  0  0  0  0  0  0  0  0  0
    3.7932    5.1827    1.1918 H   0  0  0  0  0  0  0  0  0  0  0  0
    3.9415   -0.5265   -1.4668 H   0  0  0  0  0  0  0  0  0  0  0  0
    2.1949   -0.2604   -1.6010 H   0  0  0  0  0  0  0  0  0  0  0  0
    3.1561   -2.6436   -1.8388 H   0  0  0  0  0  0  0  0  0  0  0  0
    1.6171   -2.4172   -0.9905 H   0  0  0  0  0  0  0  0  0  0  0  0
  1  2  1  0
  2  3  1  0
  3  4  1  0
  4  5  1  0
  5  6  1  0
  6  7  1  0
  7  8  2  0
  8  9  1  0
  9 10  1  0
 10 11  1  0
 11 12  1  0
 12 13  1  0
 13 14  1  0
 14 15  1  0
 15 16  1  0
  9 17  2  0
 17 18  1  0
 18 19  2  0
 19 20  1  0
 20 21  2  0
 21 22  1  0
 22 23  2  0
 23 24  1  0
 24 25  2  0
  5 26  1  0
 26 27  1  0
 27  2  1  0
 19  7  1  0
 25 20  1  0
 16 11  1  0
  1 28  1  0
  2 29  1  1
  3 30  1  0
  3 31  1  0
  4 32  1  0
  4 33  1  0
  5 34  1  1
  6 35  1  0
 10 36  1  0
 11 37  1  0
 12 38  1  0
 12 39  1  0
 13 40  1  0
 13 41  1  0
 14 42  1  0
 14 43  1  0
 15 44  1  0
 15 45  1  0
 16 46  1  0
 16 47  1  0
 18 48  1  0
 21 49  1  0
 22 50  1  0
 23 51  1  0
 24 52  1  0
 26 53  1  0
 26 54  1  0
 27 55  1  0
 27 56  1  0
M  END
$$$$
