@<TRIPOS>MOLECULE
*****
 56 59 0 0 0
SMALL
GASTEIGER

@<TRIPOS>ATOM
      1 O           4.6801   -3.2906   -0.0636 O.3     1  UNL1       -0.3918
      2 C           3.3589   -2.9001    0.2506 C.3     1  UNL1        0.0554
      3 C           3.3280   -2.1404    1.5348 C.3     1  UNL1       -0.0252
      4 C           2.2941   -1.0169    1.3602 C.3     1  UNL1       -0.0322
      5 C           2.9298   -0.0570    0.3807 C.3     1  UNL1        0.0221
      6 N           2.2978    1.2458    0.3658 N.pl3   1  UNL1       -0.3256
      7 C           0.9284    1.3698    0.0309 C.ar    1  UNL1        0.1333
      8 N           0.2795    0.1878   -0.2679 N.ar    1  UNL1       -0.1991
      9 C          -1.0078    0.1423   -0.6011 C.ar    1  UNL1        0.2171
     10 N          -1.5999   -1.1198   -0.8945 N.pl3   1  UNL1       -0.3106
     11 C          -3.0212   -1.1601   -1.2612 C.3     1  UNL1        0.0233
     12 C          -3.3775   -2.6102   -1.5160 C.3     1  UNL1       -0.0345
     13 C          -3.4219   -3.2844   -0.1453 C.3     1  UNL1       -0.0514
     14 C          -4.7375   -2.8428    0.4877 C.3     1  UNL1       -0.0529
     15 C          -5.0645   -1.4124    0.1191 C.3     1  UNL1       -0.0514
     16 C          -3.7862   -0.6239   -0.0622 C.3     1  UNL1       -0.0345
     17 N          -1.7004    1.2857   -0.6484 N.ar    1  UNL1       -0.2222
     18 C          -1.0983    2.4792   -0.3602 C.ar    1  UNL1        0.0436
     19 C           0.2330    2.5492   -0.0131 C.ar    1  UNL1        0.0582
     20 C           0.8993    3.8331    0.3018 C.ar    1  UNL1        0.0757
     21 C           0.1486    4.9993    0.2424 C.ar    1  UNL1       -0.0355
     22 C           0.7017    6.2336    0.5229 C.ar    1  UNL1       -0.0583
     23 C           2.0266    6.3039    0.8685 C.ar    1  UNL1       -0.0436
     24 C           2.7457    5.1094    0.9166 C.ar    1  UNL1        0.0283
     25 N           2.1645    3.9505    0.6375 N.ar    1  UNL1       -0.2548
     26 C           2.9651   -0.7309   -0.9571 C.3     1  UNL1       -0.0322
     27 C           2.7058   -2.1993   -0.9025 C.3     1  UNL1       -0.0252
     28 H           4.6855   -3.5035   -1.0282 H       1  UNL1        0.2098
     29 H           2.8038   -3.8590    0.4159 H       1  UNL1        0.0593
     30 H           4.3238   -1.6407    1.6590 H       1  UNL1        0.0291
     31 H           3.1221   -2.7449    2.4274 H       1  UNL1        0.0291
     32 H           1.4084   -1.5234    0.9246 H       1  UNL1        0.0284
     33 H           2.1319   -0.5901    2.3473 H       1  UNL1        0.0284
     34 H           3.9786    0.0625    0.7093 H       1  UNL1        0.0498
     35 H           2.8926    2.0322    0.6051 H       1  UNL1        0.1478
     36 H          -1.0222   -1.9667   -0.8429 H       1  UNL1        0.1492
     37 H          -3.1859   -0.5660   -2.1681 H       1  UNL1        0.0498
     38 H          -2.5896   -3.0593   -2.1424 H       1  UNL1        0.0283
     39 H          -4.3496   -2.6598   -2.0266 H       1  UNL1        0.0283
     40 H          -3.3967   -4.3728   -0.3284 H       1  UNL1        0.0266
     41 H          -2.5624   -2.9046    0.4220 H       1  UNL1        0.0266
     42 H          -5.5418   -3.4745    0.0256 H       1  UNL1        0.0265
     43 H          -4.6908   -2.9865    1.5673 H       1  UNL1        0.0265
     44 H          -5.6333   -1.3748   -0.8523 H       1  UNL1        0.0266
     45 H          -5.6713   -0.9519    0.9203 H       1  UNL1        0.0266
     46 H          -4.0113    0.4347   -0.2363 H       1  UNL1        0.0283
     47 H          -3.1824   -0.7618    0.8693 H       1  UNL1        0.0283
     48 H          -1.7004    3.3761   -0.4123 H       1  UNL1        0.0838
     49 H          -0.9144    5.0036   -0.0280 H       1  UNL1        0.0639
     50 H           0.0731    7.1378    0.4650 H       1  UNL1        0.0619
     51 H           2.4578    7.2580    1.0863 H       1  UNL1        0.0633
     52 H           3.7932    5.1827    1.1918 H       1  UNL1        0.0830
     53 H           3.9415   -0.5265   -1.4668 H       1  UNL1        0.0284
     54 H           2.1949   -0.2604   -1.6010 H       1  UNL1        0.0284
     55 H           3.1561   -2.6436   -1.8388 H       1  UNL1        0.0291
     56 H           1.6171   -2.4172   -0.9905 H       1  UNL1        0.0291
@<TRIPOS>BOND
     1     1     2    1
     2     2     3    1
     3     3     4    1
     4     4     5    1
     5     5     6    1
     6     6     7    1
     7     7     8   ar
     8     8     9   ar
     9     9    10    1
    10    10    11    1
    11    11    12    1
    12    12    13    1
    13    13    14    1
    14    14    15    1
    15    15    16    1
    16     9    17   ar
    17    17    18   ar
    18    18    19   ar
    19    19    20    1
    20    20    21   ar
    21    21    22   ar
    22    22    23   ar
    23    23    24   ar
    24    24    25   ar
    25     5    26    1
    26    26    27    1
    27    27     2    1
    28    19     7   ar
    29    25    20   ar
    30    16    11    1
    31     1    28    1
    32     2    29    1
    33     3    30    1
    34     3    31    1
    35     4    32    1
    36     4    33    1
    37     5    34    1
    38     6    35    1
    39    10    36    1
    40    11    37    1
    41    12    38    1
    42    12    39    1
    43    13    40    1
    44    13    41    1
    45    14    42    1
    46    14    43    1
    47    15    44    1
    48    15    45    1
    49    16    46    1
    50    16    47    1
    51    18    48    1
    52    21    49    1
    53    22    50    1
    54    23    51    1
    55    24    52    1
    56    26    53    1
    57    26    54    1
    58    27    55    1
    59    27    56    1
