@<TRIPOS>MOLECULE
*****
 59 61 0 0 0
SMALL
GASTEIGER

@<TRIPOS>ATOM
      1 C          -7.5987    2.1114    1.1098 C.2     1  UNL1       -0.1010
      2 C          -7.3020    0.8866    0.7116 C.2     1  UNL1       -0.0715
      3 C          -6.6575   -0.0656    1.6606 C.3     1  UNL1        0.0456
      4 N          -5.3899   -0.4439    1.0843 N.ar    1  UNL1       -0.2917
      5 C          -5.1970   -1.4973    0.2525 C.ar    1  UNL1        0.0694
      6 C          -3.8734   -1.5645   -0.1048 C.ar    1  UNL1        0.2138
      7 O          -3.2959   -2.4907   -0.9311 O.3     1  UNL1       -0.4924
      8 N          -3.2549   -0.5523    0.5080 N.ar    1  UNL1       -0.2591
      9 C          -1.8800   -0.1293    0.5040 C.3     1  UNL1        0.0584
     10 C          -0.9977   -0.8350   -0.4422 C.3     1  UNL1       -0.0047
     11 C          -1.1474    0.0071   -1.7085 C.3     1  UNL1        0.1117
     12 C          -0.3732   -0.4256   -2.8240 C.2     1  UNL1        0.2544
     13 O           0.3376    0.3037   -3.5264 O.2     1  UNL1       -0.2719
     14 N          -0.3962   -1.8211   -3.1929 N.am    1  UNL1       -0.1961
     15 O           0.3238   -2.2730   -4.2445 O.3     1  UNL1       -0.2951
     16 N          -1.1067    1.3118   -1.2107 N.3     1  UNL1       -0.1626
     17 S           0.2929    2.2059   -1.1473 S.O2    1  UNL1        0.0616
     18 O          -0.0705    3.5656   -0.5101 O.2     1  UNL1       -0.1528
     19 O           0.7958    2.5675   -2.5067 O.2     1  UNL1       -0.1528
     20 C           1.5712    1.5773   -0.1759 C.ar    1  UNL1        0.1057
     21 C           2.5054    0.7590   -0.7698 C.ar    1  UNL1       -0.0319
     22 C           3.5648    0.2104   -0.0583 C.ar    1  UNL1       -0.0181
     23 C           3.7335    0.4558    1.2658 C.ar    1  UNL1        0.1207
     24 O           4.7600   -0.0561    2.0122 O.3     1  UNL1       -0.4897
     25 C           5.8251   -0.8530    1.7236 C.3     1  UNL1        0.1128
     26 C           6.8568   -0.3448    0.7716 C.3     1  UNL1        0.0813
     27 O           7.8392   -1.3337    0.6371 O.3     1  UNL1       -0.3796
     28 C           8.8435   -0.9338   -0.2397 C.3     1  UNL1        0.0366
     29 C           2.7792    1.2909    1.8708 C.ar    1  UNL1       -0.0181
     30 C           1.7384    1.8255    1.1578 C.ar    1  UNL1       -0.0319
     31 C          -1.8594    1.3064    0.0439 C.3     1  UNL1        0.0424
     32 C          -4.1867    0.1329    1.2362 C.ar    1  UNL1        0.3326
     33 O          -4.0130    1.1505    1.9564 O.2     1  UNL1       -0.2462
     34 H          -7.3710    2.4238    2.1338 H       1  UNL1        0.0532
     35 H          -8.0668    2.7843    0.4004 H       1  UNL1        0.0532
     36 H          -7.5196    0.5646   -0.2916 H       1  UNL1        0.0584
     37 H          -6.5080    0.4268    2.6522 H       1  UNL1        0.0537
     38 H          -7.2740   -0.9806    1.7640 H       1  UNL1        0.0537
     39 H          -5.9851   -2.1765   -0.0722 H       1  UNL1        0.0864
     40 H          -3.6755   -3.4086   -1.1383 H       1  UNL1        0.2937
     41 H          -1.5158   -0.1751    1.5681 H       1  UNL1        0.0544
     42 H          -1.1031   -1.8947   -0.5840 H       1  UNL1        0.0306
     43 H           0.0633   -0.6605   -0.1160 H       1  UNL1        0.0306
     44 H          -2.2491   -0.1861   -1.9912 H       1  UNL1        0.0577
     45 H          -0.9699   -2.5044   -2.6530 H       1  UNL1        0.1822
     46 H          -0.2645   -2.9254   -4.7342 H       1  UNL1        0.2414
     47 H           2.4576    0.5056   -1.8257 H       1  UNL1        0.0638
     48 H           4.2415   -0.4374   -0.6115 H       1  UNL1        0.0655
     49 H           6.3169   -1.1281    2.7117 H       1  UNL1        0.0720
     50 H           5.4361   -1.8457    1.3651 H       1  UNL1        0.0720
     51 H           6.4483   -0.0731   -0.2013 H       1  UNL1        0.0593
     52 H           7.3706    0.5698    1.1666 H       1  UNL1        0.0593
     53 H           9.5839   -1.7410   -0.3090 H       1  UNL1        0.0524
     54 H           8.3985   -0.7748   -1.2343 H       1  UNL1        0.0524
     55 H           9.3737   -0.0178    0.1455 H       1  UNL1        0.0524
     56 H           2.9218    1.4793    2.9229 H       1  UNL1        0.0655
     57 H           1.0116    2.4709    1.6528 H       1  UNL1        0.0638
     58 H          -2.8732    1.6716   -0.2130 H       1  UNL1        0.0465
     59 H          -1.4155    1.9845    0.7982 H       1  UNL1        0.0465
@<TRIPOS>BOND
     1     1     2    2
     2     2     3    1
     3     3     4    1
     4     4     5   ar
     5     5     6   ar
     6     6     7    1
     7     6     8   ar
     8     8     9    1
     9     9    10    1
    10    10    11    1
    11    11    12    1
    12    12    13    2
    13    12    14   am
    14    14    15    1
    15    11    16    1
    16    16    17    1
    17    17    18    2
    18    17    19    2
    19    17    20    1
    20    20    21   ar
    21    21    22   ar
    22    22    23   ar
    23    23    24    1
    24    24    25    1
    25    25    26    1
    26    26    27    1
    27    27    28    1
    28    23    29   ar
    29    29    30   ar
    30    16    31    1
    31     8    32   ar
    32    32    33    2
    33    32     4   ar
    34    31     9    1
    35    30    20   ar
    36     1    34    1
    37     1    35    1
    38     2    36    1
    39     3    37    1
    40     3    38    1
    41     5    39    1
    42     7    40    1
    43     9    41    1
    44    10    42    1
    45    10    43    1
    46    11    44    1
    47    14    45    1
    48    15    46    1
    49    21    47    1
    50    22    48    1
    51    25    49    1
    52    25    50    1
    53    26    51    1
    54    26    52    1
    55    28    53    1
    56    28    54    1
    57    28    55    1
    58    29    56    1
    59    30    57    1
    60    31    58    1
    61    31    59    1
