
     RDKit          3D

 56 60  0  0  0  0  0  0  0  0999 V2000
   -4.8254    4.1962    0.0001 C   0  0  0  0  0  0  0  0  0  0  0  0
   -5.5719    3.0181    0.0396 O   0  0  0  0  0  0  0  0  0  0  0  0
   -5.0186    1.7556    0.2012 C   0  0  0  0  0  0  0  0  0  0  0  0
   -3.6660    1.5262    0.3408 C   0  0  0  0  0  0  0  0  0  0  0  0
   -3.1612    0.2422    0.5001 C   0  0  0  0  0  0  0  0  0  0  0  0
   -1.7087    0.0101    0.6489 C   0  0  0  0  0  0  0  0  0  0  0  0
   -1.2418    0.0187    1.8067 O   0  0  0  0  0  0  0  0  0  0  0  0
   -0.8831   -0.2119   -0.4710 N   0  0  0  0  0  0  0  0  0  0  0  0
   -1.4884   -0.2095   -1.7884 C   0  0  0  0  0  0  0  0  0  0  0  0
   -0.3308   -0.5473   -2.7383 C   0  0  0  0  0  0  0  0  0  0  0  0
    0.7131    0.3282   -2.6371 O   0  0  0  0  0  0  0  0  0  0  0  0
    1.1621    0.5766   -1.3504 C   0  0  0  0  0  0  0  0  0  0  0  0
    0.5337   -0.4455   -0.4259 C   0  0  1  0  0  0  0  0  0  0  0  0
    1.1260   -0.4269    0.9587 C   0  0  0  0  0  0  0  0  0  0  0  0
    2.5955   -0.6783    0.8879 C   0  0  0  0  0  0  0  0  0  0  0  0
    3.0353   -1.9856    0.9271 C   0  0  0  0  0  0  0  0  0  0  0  0
    4.3763   -2.2943    0.8728 C   0  0  0  0  0  0  0  0  0  0  0  0
    5.2818   -1.2483    0.7770 C   0  0  0  0  0  0  0  0  0  0  0  0
    4.8747    0.0680    0.7358 C   0  0  0  0  0  0  0  0  0  0  0  0
    5.8508    1.1104    0.6366 N   0  0  0  0  0  0  0  0  0  0  0  0
    7.1223    0.9305    0.3033 N   0  0  0  0  0  0  0  0  0  0  0  0
    7.7855    2.1007    0.2974 C   0  0  0  0  0  0  0  0  0  0  0  0
    6.8570    3.0592    0.6506 C   0  0  0  0  0  0  0  0  0  0  0  0
    5.6939    2.4017    0.8463 N   0  0  0  0  0  0  0  0  0  0  0  0
    3.5352    0.3254    0.7924 C   0  0  0  0  0  0  0  0  0  0  0  0
   -3.9933   -0.8572    0.5251 C   0  0  0  0  0  0  0  0  0  0  0  0
   -3.4924   -2.1779    0.6873 N   0  0  0  0  0  0  0  0  0  0  0  0
   -2.4418   -2.5693    1.3873 N   0  0  0  0  0  0  0  0  0  0  0  0
   -2.3004   -3.8926    1.2893 C   0  0  0  0  0  0  0  0  0  0  0  0
   -3.3159   -4.3454    0.4871 C   0  0  0  0  0  0  0  0  0  0  0  0
   -4.0303   -3.2530    0.1360 N   0  0  0  0  0  0  0  0  0  0  0  0
   -5.3467   -0.6326    0.3859 C   0  0  0  0  0  0  0  0  0  0  0  0
   -5.8451    0.6525    0.2271 C   0  0  0  0  0  0  0  0  0  0  0  0
   -7.1848    0.8595    0.0906 F   0  0  0  0  0  0  0  0  0  0  0  0
   -5.3808    5.0898    0.3106 H   0  0  0  0  0  0  0  0  0  0  0  0
   -4.3993    4.4099   -1.0124 H   0  0  0  0  0  0  0  0  0  0  0  0
   -3.9890    4.0870    0.7510 H   0  0  0  0  0  0  0  0  0  0  0  0
   -2.9898    2.3620    0.3256 H   0  0  0  0  0  0  0  0  0  0  0  0
   -2.2472   -1.0068   -1.9042 H   0  0  0  0  0  0  0  0  0  0  0  0
   -1.8427    0.7907   -2.0950 H   0  0  0  0  0  0  0  0  0  0  0  0
   -0.7825   -0.4096   -3.7622 H   0  0  0  0  0  0  0  0  0  0  0  0
   -0.0667   -1.6169   -2.6964 H   0  0  0  0  0  0  0  0  0  0  0  0
    0.8012    1.6074   -1.0866 H   0  0  0  0  0  0  0  0  0  0  0  0
    2.2672    0.5905   -1.2911 H   0  0  0  0  0  0  0  0  0  0  0  0
    0.8043   -1.4389   -0.8697 H   0  0  0  0  0  0  0  0  0  0  0  0
    0.9754    0.5512    1.4392 H   0  0  0  0  0  0  0  0  0  0  0  0
    0.6814   -1.2330    1.5429 H   0  0  0  0  0  0  0  0  0  0  0  0
    2.3410   -2.8052    1.0014 H   0  0  0  0  0  0  0  0  0  0  0  0
    4.7417   -3.3314    0.9031 H   0  0  0  0  0  0  0  0  0  0  0  0
    6.3344   -1.4711    0.7334 H   0  0  0  0  0  0  0  0  0  0  0  0
    8.8312    2.3043    0.0700 H   0  0  0  0  0  0  0  0  0  0  0  0
    7.0610    4.1209    0.7420 H   0  0  0  0  0  0  0  0  0  0  0  0
    3.2062    1.3618    0.7630 H   0  0  0  0  0  0  0  0  0  0  0  0
   -1.5142   -4.4891    1.7672 H   0  0  0  0  0  0  0  0  0  0  0  0
   -3.5038   -5.3837    0.1943 H   0  0  0  0  0  0  0  0  0  0  0  0
   -6.0256   -1.4943    0.4032 H   0  0  0  0  0  0  0  0  0  0  0  0
  1  2  1  0
  2  3  1  0
  3  4  2  0
  4  5  1  0
  5  6  1  0
  6  7  2  0
  6  8  1  0
  8  9  1  0
  9 10  1  0
 10 11  1  0
 11 12  1  0
 12 13  1  0
 13 14  1  0
 14 15  1  0
 15 16  2  0
 16 17  1  0
 17 18  2  0
 18 19  1  0
 19 20  1  0
 20 21  1  0
 21 22  2  0
 22 23  1  0
 23 24  2  0
 19 25  2  0
  5 26  2  0
 26 27  1  0
 27 28  1  0
 28 29  2  0
 29 30  1  0
 30 31  2  0
 26 32  1  0
 32 33  2  0
 33 34  1  0
 33  3  1  0
 13  8  1  0
 25 15  1  0
 31 27  1  0
 24 20  1  0
  1 35  1  0
  1 36  1  0
  1 37  1  0
  4 38  1  0
  9 39  1  0
  9 40  1  0
 10 41  1  0
 10 42  1  0
 12 43  1  0
 12 44  1  0
 13 45  1  6
 14 46  1  0
 14 47  1  0
 16 48  1  0
 17 49  1  0
 18 50  1  0
 22 51  1  0
 23 52  1  0
 25 53  1  0
 29 54  1  0
 30 55  1  0
 32 56  1  0
M  END
$$$$
