@<TRIPOS>MOLECULE
*****
 56 60 0 0 0
SMALL
GASTEIGER

@<TRIPOS>ATOM
      1 C          -4.8254    4.1962    0.0001 C.3     1  UNL1        0.0789
      2 O          -5.5719    3.0181    0.0396 O.3     1  UNL1       -0.4922
      3 C          -5.0186    1.7556    0.2012 C.ar    1  UNL1        0.1560
      4 C          -3.6660    1.5262    0.3408 C.ar    1  UNL1       -0.0029
      5 C          -3.1612    0.2422    0.5001 C.ar    1  UNL1        0.0676
      6 C          -1.7087    0.0101    0.6489 C.2     1  UNL1        0.2492
      7 O          -1.2418    0.0187    1.8067 O.2     1  UNL1       -0.2699
      8 N          -0.8831   -0.2119   -0.4710 N.am    1  UNL1       -0.2897
      9 C          -1.4884   -0.2095   -1.7884 C.3     1  UNL1        0.0388
     10 C          -0.3308   -0.5473   -2.7383 C.3     1  UNL1        0.0635
     11 O           0.7131    0.3282   -2.6371 O.3     1  UNL1       -0.3764
     12 C           1.1621    0.5766   -1.3504 C.3     1  UNL1        0.0666
     13 C           0.5337   -0.4455   -0.4259 C.3     1  UNL1        0.0537
     14 C           1.1260   -0.4269    0.9587 C.3     1  UNL1       -0.0068
     15 C           2.5955   -0.6783    0.8879 C.ar    1  UNL1       -0.0435
     16 C           3.0353   -1.9856    0.9271 C.ar    1  UNL1       -0.0584
     17 C           4.3763   -2.2943    0.8728 C.ar    1  UNL1       -0.0594
     18 C           5.2818   -1.2483    0.7770 C.ar    1  UNL1       -0.0345
     19 C           4.8747    0.0680    0.7358 C.ar    1  UNL1        0.0864
     20 N           5.8508    1.1104    0.6366 N.ar    1  UNL1       -0.1503
     21 N           7.1223    0.9305    0.3033 N.ar    1  UNL1       -0.1556
     22 C           7.7855    2.1007    0.2974 C.ar    1  UNL1        0.0697
     23 C           6.8570    3.0592    0.6506 C.ar    1  UNL1        0.0697
     24 N           5.6939    2.4017    0.8463 N.ar    1  UNL1       -0.1556
     25 C           3.5352    0.3254    0.7924 C.ar    1  UNL1       -0.0313
     26 C          -3.9933   -0.8572    0.5251 C.ar    1  UNL1        0.1012
     27 N          -3.4924   -2.1779    0.6873 N.ar    1  UNL1       -0.1495
     28 N          -2.4418   -2.5693    1.3873 N.ar    1  UNL1       -0.1556
     29 C          -2.3004   -3.8926    1.2893 C.ar    1  UNL1        0.0697
     30 C          -3.3159   -4.3454    0.4871 C.ar    1  UNL1        0.0697
     31 N          -4.0303   -3.2530    0.1360 N.ar    1  UNL1       -0.1556
     32 C          -5.3467   -0.6326    0.3859 C.ar    1  UNL1        0.0051
     33 C          -5.8451    0.6525    0.2271 C.ar    1  UNL1        0.1669
     34 F          -7.1848    0.8595    0.0906 F       1  UNL1       -0.2016
     35 H          -5.3808    5.0898    0.3106 H       1  UNL1        0.0660
     36 H          -4.3993    4.4099   -1.0124 H       1  UNL1        0.0660
     37 H          -3.9890    4.0870    0.7510 H       1  UNL1        0.0660
     38 H          -2.9898    2.3620    0.3256 H       1  UNL1        0.0663
     39 H          -2.2472   -1.0068   -1.9042 H       1  UNL1        0.0487
     40 H          -1.8427    0.7907   -2.0950 H       1  UNL1        0.0487
     41 H          -0.7825   -0.4096   -3.7622 H       1  UNL1        0.0575
     42 H          -0.0667   -1.6169   -2.6964 H       1  UNL1        0.0575
     43 H           0.8012    1.6074   -1.0866 H       1  UNL1        0.0578
     44 H           2.2672    0.5905   -1.2911 H       1  UNL1        0.0578
     45 H           0.8043   -1.4389   -0.8697 H       1  UNL1        0.0526
     46 H           0.9754    0.5512    1.4392 H       1  UNL1        0.0332
     47 H           0.6814   -1.2330    1.5429 H       1  UNL1        0.0332
     48 H           2.3410   -2.8052    1.0014 H       1  UNL1        0.0620
     49 H           4.7417   -3.3314    0.9031 H       1  UNL1        0.0618
     50 H           6.3344   -1.4711    0.7334 H       1  UNL1        0.0639
     51 H           8.8312    2.3043    0.0700 H       1  UNL1        0.0864
     52 H           7.0610    4.1209    0.7420 H       1  UNL1        0.0864
     53 H           3.2062    1.3618    0.7630 H       1  UNL1        0.0642
     54 H          -1.5142   -4.4891    1.7672 H       1  UNL1        0.0864
     55 H          -3.5038   -5.3837    0.1943 H       1  UNL1        0.0864
     56 H          -6.0256   -1.4943    0.4032 H       1  UNL1        0.0669
@<TRIPOS>BOND
     1     1     2    1
     2     2     3    1
     3     3     4   ar
     4     4     5   ar
     5     5     6    1
     6     6     7    2
     7     6     8   am
     8     8     9    1
     9     9    10    1
    10    10    11    1
    11    11    12    1
    12    12    13    1
    13    13    14    1
    14    14    15    1
    15    15    16   ar
    16    16    17   ar
    17    17    18   ar
    18    18    19   ar
    19    19    20    1
    20    20    21   ar
    21    21    22   ar
    22    22    23   ar
    23    23    24   ar
    24    19    25   ar
    25     5    26   ar
    26    26    27    1
    27    27    28   ar
    28    28    29   ar
    29    29    30   ar
    30    30    31   ar
    31    26    32   ar
    32    32    33   ar
    33    33    34    1
    34    33     3   ar
    35    13     8    1
    36    25    15   ar
    37    31    27   ar
    38    24    20   ar
    39     1    35    1
    40     1    36    1
    41     1    37    1
    42     4    38    1
    43     9    39    1
    44     9    40    1
    45    10    41    1
    46    10    42    1
    47    12    43    1
    48    12    44    1
    49    13    45    1
    50    14    46    1
    51    14    47    1
    52    16    48    1
    53    17    49    1
    54    18    50    1
    55    22    51    1
    56    23    52    1
    57    25    53    1
    58    29    54    1
    59    30    55    1
    60    32    56    1
