@<TRIPOS>MOLECULE
*****
 50 52 0 0 0
SMALL
GASTEIGER

@<TRIPOS>ATOM
      1 C          -3.6353   -2.3178    3.2829 C.3     1  UNL1        0.0788
      2 O          -3.3683   -2.1479    1.9051 O.3     1  UNL1       -0.4948
      3 C          -2.1030   -1.7787    1.5148 C.ar    1  UNL1        0.1236
      4 C          -1.0966   -1.5794    2.4829 C.ar    1  UNL1       -0.0194
      5 C           0.1771   -1.2168    2.1225 C.ar    1  UNL1       -0.0551
      6 C           0.5214   -1.0328    0.7924 C.ar    1  UNL1       -0.0466
      7 C           1.8925   -0.6576    0.4023 C.3     1  UNL1       -0.0237
      8 C           2.1278    0.8276    0.3023 C.3     1  UNL1       -0.0237
      9 C           3.5590    1.0851   -0.1033 C.ar    1  UNL1       -0.0470
     10 C           3.9348    1.1915   -1.4172 C.ar    1  UNL1       -0.0578
     11 C           5.2447    1.4093   -1.8092 C.ar    1  UNL1       -0.0475
     12 C           6.2262    1.5269   -0.8570 C.ar    1  UNL1        0.0588
     13 C           7.6333    1.7465   -1.1777 C.2     1  UNL1        0.3368
     14 O           8.4775    1.8485   -0.2769 O.2     1  UNL1       -0.2451
     15 O           7.9602    1.8317   -2.5353 O.3     1  UNL1       -0.4771
     16 C           5.8568    1.4219    0.4786 C.ar    1  UNL1       -0.0475
     17 C           4.5522    1.2058    0.8490 C.ar    1  UNL1       -0.0578
     18 C          -0.4630   -1.2277   -0.1351 C.ar    1  UNL1       -0.0516
     19 C          -1.7857   -1.6018    0.2146 C.ar    1  UNL1       -0.0010
     20 C          -2.7538   -1.7400   -0.8963 C.3     1  UNL1        0.0057
     21 C          -3.6031   -0.5885   -1.1726 C.ar    1  UNL1        0.0148
     22 C          -3.0832    0.4100   -2.0281 C.ar    1  UNL1        0.0379
     23 N          -3.7640    1.5191   -2.2768 N.ar    1  UNL1       -0.2227
     24 C          -4.9732    1.7385   -1.7267 C.ar    1  UNL1        0.2142
     25 N          -5.6907    2.9385   -1.9998 N.pl3   1  UNL1       -0.3274
     26 N          -5.4670    0.7961   -0.9190 N.ar    1  UNL1       -0.1999
     27 C          -4.8149   -0.3663   -0.6259 C.ar    1  UNL1        0.1247
     28 N          -5.5244   -1.2775    0.2001 N.pl3   1  UNL1       -0.3428
     29 H          -2.9092   -3.1172    3.6166 H       1  UNL1        0.0660
     30 H          -4.6774   -2.6625    3.4358 H       1  UNL1        0.0660
     31 H          -3.3678   -1.4174    3.8532 H       1  UNL1        0.0660
     32 H          -1.3880   -1.7300    3.5186 H       1  UNL1        0.0654
     33 H           0.9621   -1.0595    2.8531 H       1  UNL1        0.0621
     34 H           2.5990   -1.0483    1.1656 H       1  UNL1        0.0316
     35 H           2.1368   -1.1445   -0.5599 H       1  UNL1        0.0316
     36 H           1.9932    1.3199    1.2826 H       1  UNL1        0.0316
     37 H           1.4592    1.3225   -0.4328 H       1  UNL1        0.0316
     38 H           3.1623    1.1017   -2.1820 H       1  UNL1        0.0620
     39 H           5.5196    1.4897   -2.8398 H       1  UNL1        0.0626
     40 H           8.8699    2.2392   -2.7459 H       1  UNL1        0.2954
     41 H           6.6413    1.5174    1.2120 H       1  UNL1        0.0626
     42 H           4.3179    1.1320    1.9009 H       1  UNL1        0.0620
     43 H          -0.2519   -1.0971   -1.1954 H       1  UNL1        0.0624
     44 H          -2.1698   -1.9472   -1.8475 H       1  UNL1        0.0364
     45 H          -3.3491   -2.6940   -0.7795 H       1  UNL1        0.0364
     46 H          -2.0946    0.2651   -2.4945 H       1  UNL1        0.0834
     47 H          -5.2257    3.8484   -1.8068 H       1  UNL1        0.1452
     48 H          -6.6516    2.8833   -2.3831 H       1  UNL1        0.1452
     49 H          -5.6141   -2.2840    0.0400 H       1  UNL1        0.1437
     50 H          -5.9999   -0.8817    1.0517 H       1  UNL1        0.1437
@<TRIPOS>BOND
     1     1     2    1
     2     2     3    1
     3     3     4   ar
     4     4     5   ar
     5     5     6   ar
     6     6     7    1
     7     7     8    1
     8     8     9    1
     9     9    10   ar
    10    10    11   ar
    11    11    12   ar
    12    12    13    1
    13    13    14    2
    14    13    15    1
    15    12    16   ar
    16    16    17   ar
    17     6    18   ar
    18    18    19   ar
    19    19    20    1
    20    20    21    1
    21    21    22   ar
    22    22    23   ar
    23    23    24   ar
    24    24    25    1
    25    24    26   ar
    26    26    27   ar
    27    27    28    1
    28    19     3   ar
    29    27    21   ar
    30    17     9   ar
    31     1    29    1
    32     1    30    1
    33     1    31    1
    34     4    32    1
    35     5    33    1
    36     7    34    1
    37     7    35    1
    38     8    36    1
    39     8    37    1
    40    10    38    1
    41    11    39    1
    42    15    40    1
    43    16    41    1
    44    17    42    1
    45    18    43    1
    46    20    44    1
    47    20    45    1
    48    22    46    1
    49    25    47    1
    50    25    48    1
    51    28    49    1
    52    28    50    1
