
     RDKit          3D

 50 52  0  0  0  0  0  0  0  0999 V2000
   -3.6353   -2.3178    3.2829 C   0  0  0  0  0  0  0  0  0  0  0  0
   -3.3683   -2.1479    1.9051 O   0  0  0  0  0  0  0  0  0  0  0  0
   -2.1030   -1.7787    1.5148 C   0  0  0  0  0  0  0  0  0  0  0  0
   -1.0966   -1.5794    2.4829 C   0  0  0  0  0  0  0  0  0  0  0  0
    0.1771   -1.2168    2.1225 C   0  0  0  0  0  0  0  0  0  0  0  0
    0.5214   -1.0328    0.7924 C   0  0  0  0  0  0  0  0  0  0  0  0
    1.8925   -0.6576    0.4023 C   0  0  0  0  0  0  0  0  0  0  0  0
    2.1278    0.8276    0.3023 C   0  0  0  0  0  0  0  0  0  0  0  0
    3.5590    1.0851   -0.1033 C   0  0  0  0  0  0  0  0  0  0  0  0
    3.9348    1.1915   -1.4172 C   0  0  0  0  0  0  0  0  0  0  0  0
    5.2447    1.4093   -1.8092 C   0  0  0  0  0  0  0  0  0  0  0  0
    6.2262    1.5269   -0.8570 C   0  0  0  0  0  0  0  0  0  0  0  0
    7.6333    1.7465   -1.1777 C   0  0  0  0  0  0  0  0  0  0  0  0
    8.4775    1.8485   -0.2769 O   0  0  0  0  0  0  0  0  0  0  0  0
    7.9602    1.8317   -2.5353 O   0  0  0  0  0  0  0  0  0  0  0  0
    5.8568    1.4219    0.4786 C   0  0  0  0  0  0  0  0  0  0  0  0
    4.5522    1.2058    0.8490 C   0  0  0  0  0  0  0  0  0  0  0  0
   -0.4630   -1.2277   -0.1351 C   0  0  0  0  0  0  0  0  0  0  0  0
   -1.7857   -1.6018    0.2146 C   0  0  0  0  0  0  0  0  0  0  0  0
   -2.7538   -1.7400   -0.8963 C   0  0  0  0  0  0  0  0  0  0  0  0
   -3.6031   -0.5885   -1.1726 C   0  0  0  0  0  0  0  0  0  0  0  0
   -3.0832    0.4100   -2.0281 C   0  0  0  0  0  0  0  0  0  0  0  0
   -3.7640    1.5191   -2.2768 N   0  0  0  0  0  0  0  0  0  0  0  0
   -4.9732    1.7385   -1.7267 C   0  0  0  0  0  0  0  0  0  0  0  0
   -5.6907    2.9385   -1.9998 N   0  0  0  0  0  0  0  0  0  0  0  0
   -5.4670    0.7961   -0.9190 N   0  0  0  0  0  0  0  0  0  0  0  0
   -4.8149   -0.3663   -0.6259 C   0  0  0  0  0  0  0  0  0  0  0  0
   -5.5244   -1.2775    0.2001 N   0  0  0  0  0  0  0  0  0  0  0  0
   -2.9092   -3.1172    3.6166 H   0  0  0  0  0  0  0  0  0  0  0  0
   -4.6774   -2.6625    3.4358 H   0  0  0  0  0  0  0  0  0  0  0  0
   -3.3678   -1.4174    3.8532 H   0  0  0  0  0  0  0  0  0  0  0  0
   -1.3880   -1.7300    3.5186 H   0  0  0  0  0  0  0  0  0  0  0  0
    0.9621   -1.0595    2.8531 H   0  0  0  0  0  0  0  0  0  0  0  0
    2.5990   -1.0483    1.1656 H   0  0  0  0  0  0  0  0  0  0  0  0
    2.1368   -1.1445   -0.5599 H   0  0  0  0  0  0  0  0  0  0  0  0
    1.9932    1.3199    1.2826 H   0  0  0  0  0  0  0  0  0  0  0  0
    1.4592    1.3225   -0.4328 H   0  0  0  0  0  0  0  0  0  0  0  0
    3.1623    1.1017   -2.1820 H   0  0  0  0  0  0  0  0  0  0  0  0
    5.5196    1.4897   -2.8398 H   0  0  0  0  0  0  0  0  0  0  0  0
    8.8699    2.2392   -2.7459 H   0  0  0  0  0  0  0  0  0  0  0  0
    6.6413    1.5174    1.2120 H   0  0  0  0  0  0  0  0  0  0  0  0
    4.3179    1.1320    1.9009 H   0  0  0  0  0  0  0  0  0  0  0  0
   -0.2519   -1.0971   -1.1954 H   0  0  0  0  0  0  0  0  0  0  0  0
   -2.1698   -1.9472   -1.8475 H   0  0  0  0  0  0  0  0  0  0  0  0
   -3.3491   -2.6940   -0.7795 H   0  0  0  0  0  0  0  0  0  0  0  0
   -2.0946    0.2651   -2.4945 H   0  0  0  0  0  0  0  0  0  0  0  0
   -5.2257    3.8484   -1.8068 H   0  0  0  0  0  0  0  0  0  0  0  0
   -6.6516    2.8833   -2.3831 H   0  0  0  0  0  0  0  0  0  0  0  0
   -5.6141   -2.2840    0.0400 H   0  0  0  0  0  0  0  0  0  0  0  0
   -5.9999   -0.8817    1.0517 H   0  0  0  0  0  0  0  0  0  0  0  0
  1  2  1  0
  2  3  1  0
  3  4  2  0
  4  5  1  0
  5  6  2  0
  6  7  1  0
  7  8  1  0
  8  9  1  0
  9 10  2  0
 10 11  1  0
 11 12  2  0
 12 13  1  0
 13 14  2  0
 13 15  1  0
 12 16  1  0
 16 17  2  0
  6 18  1  0
 18 19  2  0
 19 20  1  0
 20 21  1  0
 21 22  2  0
 22 23  1  0
 23 24  2  0
 24 25  1  0
 24 26  1  0
 26 27  2  0
 27 28  1  0
 19  3  1  0
 27 21  1  0
 17  9  1  0
  1 29  1  0
  1 30  1  0
  1 31  1  0
  4 32  1  0
  5 33  1  0
  7 34  1  0
  7 35  1  0
  8 36  1  0
  8 37  1  0
 10 38  1  0
 11 39  1  0
 15 40  1  0
 16 41  1  0
 17 42  1  0
 18 43  1  0
 20 44  1  0
 20 45  1  0
 22 46  1  0
 25 47  1  0
 25 48  1  0
 28 49  1  0
 28 50  1  0
M  END
$$$$
