
     RDKit          3D

 58 61  0  0  0  0  0  0  0  0999 V2000
    9.9899    1.8402    1.8172 C   0  0  0  0  0  0  0  0  0  0  0  0
    9.7081    0.4267    1.3827 C   0  0  0  0  0  0  0  0  0  0  0  0
    8.3459    0.2308    1.0660 O   0  0  0  0  0  0  0  0  0  0  0  0
    7.7127    0.9438    0.0718 C   0  0  0  0  0  0  0  0  0  0  0  0
    8.3769    1.7961   -0.5707 O   0  0  0  0  0  0  0  0  0  0  0  0
    6.2866    0.7065   -0.2258 C   0  0  0  0  0  0  0  0  0  0  0  0
    5.4422   -0.1892    0.3933 C   0  0  0  0  0  0  0  0  0  0  0  0
    4.1838   -0.1151   -0.1679 C   0  0  0  0  0  0  0  0  0  0  0  0
    2.9679   -0.7539    0.0380 C   0  0  0  0  0  0  0  0  0  0  0  0
    1.8472   -0.4543   -0.7079 C   0  0  0  0  0  0  0  0  0  0  0  0
    0.5556   -1.1050   -0.5185 C   0  0  0  0  0  0  0  0  0  0  0  0
   -0.6970   -0.5666   -0.4558 C   0  0  0  0  0  0  0  0  0  0  0  0
   -1.5970   -1.5913   -0.2647 C   0  0  0  0  0  0  0  0  0  0  0  0
   -3.0505   -1.5096   -0.1358 C   0  0  0  0  0  0  0  0  0  0  0  0
   -3.5904   -0.3863   -0.2010 O   0  0  0  0  0  0  0  0  0  0  0  0
   -3.8631   -2.6546    0.0594 N   0  0  0  0  0  0  0  0  0  0  0  0
   -5.3025   -2.6263    0.1925 C   0  0  0  0  0  0  0  0  0  0  0  0
   -5.8187   -1.2414    0.0976 C   0  0  0  0  0  0  0  0  0  0  0  0
   -5.9346   -0.5033    1.2508 C   0  0  0  0  0  0  0  0  0  0  0  0
   -6.4148    0.8028    1.2184 C   0  0  0  0  0  0  0  0  0  0  0  0
   -6.7797    1.3683    0.0212 C   0  0  0  0  0  0  0  0  0  0  0  0
   -7.2922    2.7774    0.0279 C   0  0  0  0  0  0  0  0  0  0  0  0
   -8.7637    2.7582    0.2034 C   0  0  0  0  0  0  0  0  0  0  0  0
   -9.3856    1.6711    0.3189 O   0  0  0  0  0  0  0  0  0  0  0  0
   -9.4876    3.9280    0.2444 O   0  0  0  0  0  0  0  0  0  0  0  0
   -6.6667    0.6415   -1.1230 C   0  0  0  0  0  0  0  0  0  0  0  0
   -6.1850   -0.6712   -1.0969 C   0  0  0  0  0  0  0  0  0  0  0  0
   -0.8548   -2.7121   -0.2190 N   0  0  0  0  0  0  0  0  0  0  0  0
    0.4284   -2.4389   -0.3685 N   0  0  0  0  0  0  0  0  0  0  0  0
    1.5275   -3.4158   -0.3714 C   0  0  0  0  0  0  0  0  0  0  0  0
    1.9387    0.5109   -1.6893 C   0  0  0  0  0  0  0  0  0  0  0  0
    3.1417    1.1523   -1.9029 C   0  0  0  0  0  0  0  0  0  0  0  0
    4.2762    0.8503   -1.1492 C   0  0  0  0  0  0  0  0  0  0  0  0
    5.5376    1.3190   -1.1585 N   0  0  0  0  0  0  0  0  0  0  0  0
   10.0260    1.9236    2.9349 H   0  0  0  0  0  0  0  0  0  0  0  0
   10.9467    2.2290    1.4168 H   0  0  0  0  0  0  0  0  0  0  0  0
    9.1957    2.5519    1.4998 H   0  0  0  0  0  0  0  0  0  0  0  0
   10.3198    0.2594    0.4502 H   0  0  0  0  0  0  0  0  0  0  0  0
   10.0382   -0.3339    2.0962 H   0  0  0  0  0  0  0  0  0  0  0  0
    5.7024   -0.8559    1.1954 H   0  0  0  0  0  0  0  0  0  0  0  0
    2.8896   -1.5009    0.7946 H   0  0  0  0  0  0  0  0  0  0  0  0
   -0.9395    0.4802   -0.5411 H   0  0  0  0  0  0  0  0  0  0  0  0
   -3.3911   -3.5867    0.1112 H   0  0  0  0  0  0  0  0  0  0  0  0
   -5.7484   -3.3015   -0.5642 H   0  0  0  0  0  0  0  0  0  0  0  0
   -5.5524   -3.0688    1.1825 H   0  0  0  0  0  0  0  0  0  0  0  0
   -5.6463   -0.9528    2.1894 H   0  0  0  0  0  0  0  0  0  0  0  0
   -6.4739    1.3124    2.1716 H   0  0  0  0  0  0  0  0  0  0  0  0
   -6.7909    3.3400    0.8213 H   0  0  0  0  0  0  0  0  0  0  0  0
   -7.0700    3.2711   -0.9366 H   0  0  0  0  0  0  0  0  0  0  0  0
  -10.5092    3.9267    0.1489 H   0  0  0  0  0  0  0  0  0  0  0  0
   -6.9592    1.0990   -2.0709 H   0  0  0  0  0  0  0  0  0  0  0  0
   -6.0954   -1.2517   -2.0156 H   0  0  0  0  0  0  0  0  0  0  0  0
    2.3606   -3.0654   -1.0134 H   0  0  0  0  0  0  0  0  0  0  0  0
    1.1107   -4.3244   -0.8420 H   0  0  0  0  0  0  0  0  0  0  0  0
    1.8426   -3.6698    0.6481 H   0  0  0  0  0  0  0  0  0  0  0  0
    1.0527    0.7579   -2.2896 H   0  0  0  0  0  0  0  0  0  0  0  0
    3.2081    1.9055   -2.6707 H   0  0  0  0  0  0  0  0  0  0  0  0
    5.8999    2.0661   -1.8063 H   0  0  0  0  0  0  0  0  0  0  0  0
  1  2  1  0
  2  3  1  0
  3  4  1  0
  4  5  2  0
  4  6  1  0
  6  7  2  0
  7  8  1  0
  8  9  2  0
  9 10  1  0
 10 11  1  0
 11 12  2  0
 12 13  1  0
 13 14  1  0
 14 15  2  0
 14 16  1  0
 16 17  1  0
 17 18  1  0
 18 19  2  0
 19 20  1  0
 20 21  2  0
 21 22  1  0
 22 23  1  0
 23 24  2  0
 23 25  1  0
 21 26  1  0
 26 27  2  0
 13 28  2  0
 28 29  1  0
 29 30  1  0
 10 31  2  0
 31 32  1  0
 32 33  2  0
 33 34  1  0
 34  6  1  0
 33  8  1  0
 29 11  1  0
 27 18  1  0
  1 35  1  0
  1 36  1  0
  1 37  1  0
  2 38  1  0
  2 39  1  0
  7 40  1  0
  9 41  1  0
 12 42  1  0
 16 43  1  0
 17 44  1  0
 17 45  1  0
 19 46  1  0
 20 47  1  0
 22 48  1  0
 22 49  1  0
 25 50  1  0
 26 51  1  0
 27 52  1  0
 30 53  1  0
 30 54  1  0
 30 55  1  0
 31 56  1  0
 32 57  1  0
 34 58  1  0
M  END
$$$$
