@<TRIPOS>MOLECULE
*****
 58 61 0 0 0
SMALL
GASTEIGER

@<TRIPOS>ATOM
      1 C           9.9899    1.8402    1.8172 C.3     1  UNL1       -0.0306
      2 C           9.7081    0.4267    1.3827 C.3     1  UNL1        0.0900
      3 O           8.3459    0.2308    1.0660 O.3     1  UNL1       -0.4604
      4 C           7.7127    0.9438    0.0718 C.2     1  UNL1        0.3557
      5 O           8.3769    1.7961   -0.5707 O.2     1  UNL1       -0.2433
      6 C           6.2866    0.7065   -0.2258 C.ar    1  UNL1        0.1254
      7 C           5.4422   -0.1892    0.3933 C.ar    1  UNL1       -0.0222
      8 C           4.1838   -0.1151   -0.1679 C.ar    1  UNL1        0.0011
      9 C           2.9679   -0.7539    0.0380 C.ar    1  UNL1       -0.0434
     10 C           1.8472   -0.4543   -0.7079 C.ar    1  UNL1        0.0007
     11 C           0.5556   -1.1050   -0.5185 C.ar    1  UNL1        0.0693
     12 C          -0.6970   -0.5666   -0.4558 C.ar    1  UNL1       -0.0039
     13 C          -1.5970   -1.5913   -0.2647 C.ar    1  UNL1        0.1476
     14 C          -3.0505   -1.5096   -0.1358 C.2     1  UNL1        0.2644
     15 O          -3.5904   -0.3863   -0.2010 O.2     1  UNL1       -0.2685
     16 N          -3.8631   -2.6546    0.0594 N.am    1  UNL1       -0.3059
     17 C          -5.3025   -2.6263    0.1925 C.3     1  UNL1        0.0372
     18 C          -5.8187   -1.2414    0.0976 C.ar    1  UNL1       -0.0303
     19 C          -5.9346   -0.5033    1.2508 C.ar    1  UNL1       -0.0568
     20 C          -6.4148    0.8028    1.2184 C.ar    1  UNL1       -0.0577
     21 C          -6.7797    1.3683    0.0212 C.ar    1  UNL1       -0.0368
     22 C          -7.2922    2.7774    0.0279 C.3     1  UNL1        0.0699
     23 C          -8.7637    2.7582    0.2034 C.2     1  UNL1        0.3091
     24 O          -9.3856    1.6711    0.3189 O.2     1  UNL1       -0.2507
     25 O          -9.4876    3.9280    0.2444 O.3     1  UNL1       -0.4804
     26 C          -6.6667    0.6415   -1.1230 C.ar    1  UNL1       -0.0577
     27 C          -6.1850   -0.6712   -1.0969 C.ar    1  UNL1       -0.0568
     28 N          -0.8548   -2.7121   -0.2190 N.ar    1  UNL1       -0.1662
     29 N           0.4284   -2.4389   -0.3685 N.ar    1  UNL1       -0.2660
     30 C           1.5275   -3.4158   -0.3714 C.3     1  UNL1        0.0309
     31 C           1.9387    0.5109   -1.6893 C.ar    1  UNL1       -0.0506
     32 C           3.1417    1.1523   -1.9029 C.ar    1  UNL1       -0.0372
     33 C           4.2762    0.8503   -1.1492 C.ar    1  UNL1        0.0471
     34 N           5.5376    1.3190   -1.1585 N.ar    1  UNL1       -0.3490
     35 H          10.0260    1.9236    2.9349 H       1  UNL1        0.0262
     36 H          10.9467    2.2290    1.4168 H       1  UNL1        0.0262
     37 H           9.1957    2.5519    1.4998 H       1  UNL1        0.0262
     38 H          10.3198    0.2594    0.4502 H       1  UNL1        0.0695
     39 H          10.0382   -0.3339    2.0962 H       1  UNL1        0.0695
     40 H           5.7024   -0.8559    1.1954 H       1  UNL1        0.0647
     41 H           2.8896   -1.5009    0.7946 H       1  UNL1        0.0631
     42 H          -0.9395    0.4802   -0.5411 H       1  UNL1        0.0662
     43 H          -3.3911   -3.5867    0.1112 H       1  UNL1        0.1494
     44 H          -5.7484   -3.3015   -0.5642 H       1  UNL1        0.0512
     45 H          -5.5524   -3.0688    1.1825 H       1  UNL1        0.0512
     46 H          -5.6463   -0.9528    2.1894 H       1  UNL1        0.0621
     47 H          -6.4739    1.3124    2.1716 H       1  UNL1        0.0621
     48 H          -6.7909    3.3400    0.8213 H       1  UNL1        0.0426
     49 H          -7.0700    3.2711   -0.9366 H       1  UNL1        0.0426
     50 H         -10.5092    3.9267    0.1489 H       1  UNL1        0.2951
     51 H          -6.9592    1.0990   -2.0709 H       1  UNL1        0.0621
     52 H          -6.0954   -1.2517   -2.0156 H       1  UNL1        0.0621
     53 H           2.3606   -3.0654   -1.0134 H       1  UNL1        0.0473
     54 H           1.1107   -4.3244   -0.8420 H       1  UNL1        0.0473
     55 H           1.8426   -3.6698    0.6481 H       1  UNL1        0.0473
     56 H           1.0527    0.7579   -2.2896 H       1  UNL1        0.0625
     57 H           3.2081    1.9055   -2.6707 H       1  UNL1        0.0638
     58 H           5.8999    2.0661   -1.8063 H       1  UNL1        0.1661
@<TRIPOS>BOND
     1     1     2    1
     2     2     3    1
     3     3     4    1
     4     4     5    2
     5     4     6    1
     6     6     7   ar
     7     7     8   ar
     8     8     9   ar
     9     9    10   ar
    10    10    11    1
    11    11    12   ar
    12    12    13   ar
    13    13    14    1
    14    14    15    2
    15    14    16   am
    16    16    17    1
    17    17    18    1
    18    18    19   ar
    19    19    20   ar
    20    20    21   ar
    21    21    22    1
    22    22    23    1
    23    23    24    2
    24    23    25    1
    25    21    26   ar
    26    26    27   ar
    27    13    28   ar
    28    28    29   ar
    29    29    30    1
    30    10    31   ar
    31    31    32   ar
    32    32    33   ar
    33    33    34   ar
    34    34     6   ar
    35    33     8   ar
    36    29    11   ar
    37    27    18   ar
    38     1    35    1
    39     1    36    1
    40     1    37    1
    41     2    38    1
    42     2    39    1
    43     7    40    1
    44     9    41    1
    45    12    42    1
    46    16    43    1
    47    17    44    1
    48    17    45    1
    49    19    46    1
    50    20    47    1
    51    22    48    1
    52    22    49    1
    53    25    50    1
    54    26    51    1
    55    27    52    1
    56    30    53    1
    57    30    54    1
    58    30    55    1
    59    31    56    1
    60    32    57    1
    61    34    58    1
