
     RDKit          3D

 95 98  0  0  0  0  0  0  0  0999 V2000
    1.7154    2.6450   -2.4600 C   0  0  0  0  0  0  0  0  0  0  0  0
    1.2690    1.2210   -2.5059 C   0  0  0  0  0  0  0  0  0  0  0  0
    1.1585    0.5492   -1.2388 N   0  0  0  0  0  0  0  0  0  0  0  0
   -0.0385    0.0581   -0.6765 C   0  0  0  0  0  0  0  0  0  0  0  0
   -0.1898   -1.3196   -0.4286 C   0  0  0  0  0  0  0  0  0  0  0  0
   -1.3217   -1.8654    0.1241 C   0  0  0  0  0  0  0  0  0  0  0  0
   -1.4983   -3.2743    0.3565 C   0  0  0  0  0  0  0  0  0  0  0  0
   -1.6357   -4.4523    0.5690 C   0  0  0  0  0  0  0  0  0  0  0  0
   -1.7910   -5.9066    0.8096 C   0  0  0  0  0  0  0  0  0  0  0  0
   -3.1656   -6.2943    0.7082 N   0  0  0  0  0  0  0  0  0  0  0  0
   -3.7255   -6.2120   -0.6074 C   0  0  0  0  0  0  0  0  0  0  0  0
   -4.1070   -7.5379   -1.1987 C   0  0  0  0  0  0  0  0  0  0  0  0
   -3.1104   -8.4489   -0.9000 O   0  0  0  0  0  0  0  0  0  0  0  0
   -3.0679   -8.7053    0.4514 C   0  0  0  0  0  0  0  0  0  0  0  0
   -3.4954   -7.5477    1.3171 C   0  0  0  0  0  0  0  0  0  0  0  0
   -2.3526   -1.0086    0.4488 C   0  0  0  0  0  0  0  0  0  0  0  0
   -2.2544    0.3430    0.2269 C   0  0  0  0  0  0  0  0  0  0  0  0
   -3.3752    1.2381    0.5936 C   0  0  0  0  0  0  0  0  0  0  0  0
   -4.4578    1.0749   -0.0004 O   0  0  0  0  0  0  0  0  0  0  0  0
   -3.2453    2.2367    1.5703 N   0  0  0  0  0  0  0  0  0  0  0  0
   -4.1776    3.1731    2.0700 C   0  0  0  0  0  0  0  0  0  0  0  0
   -4.9022    4.0236    1.1462 C   0  0  0  0  0  0  0  0  0  0  0  0
   -6.1068    3.7480    0.5843 C   0  0  0  0  0  0  0  0  0  0  0  0
   -6.8881    2.5554    1.0220 C   0  0  0  0  0  0  0  0  0  0  0  0
   -6.6988    4.5963   -0.3685 C   0  0  0  0  0  0  0  0  0  0  0  0
   -6.0498    5.7353   -0.7437 C   0  0  0  0  0  0  0  0  0  0  0  0
   -6.6645    6.6551   -1.7631 C   0  0  0  0  0  0  0  0  0  0  0  0
   -4.8465    6.0314   -0.1928 N   0  0  0  0  0  0  0  0  0  0  0  0
   -4.2913    5.2188    0.7110 C   0  0  0  0  0  0  0  0  0  0  0  0
   -3.1636    5.5241    1.2091 O   0  0  0  0  0  0  0  0  0  0  0  0
   -1.0841    0.8691   -0.3415 C   0  0  0  0  0  0  0  0  0  0  0  0
   -0.9966    2.3201   -0.5996 C   0  0  0  0  0  0  0  0  0  0  0  0
    2.3798    0.3098   -0.4932 C   0  0  1  0  0  0  0  0  0  0  0  0
    3.3698   -0.5728   -1.1902 C   0  0  0  0  0  0  0  0  0  0  0  0
    4.7641   -0.0578   -1.2368 C   0  0  0  0  0  0  0  0  0  0  0  0
    5.2722    0.6025    0.0011 C   0  0  2  0  0  0  0  0  0  0  0  0
    6.2901   -0.0997    0.6756 N   0  0  0  0  0  0  0  0  0  0  0  0
    6.0329   -1.3877    1.1740 C   0  0  0  0  0  0  0  0  0  0  0  0
    7.3957    0.6207    1.1846 C   0  0  0  0  0  0  0  0  0  0  0  0
    8.2599    1.1615    0.0728 C   0  0  0  0  0  0  0  0  0  0  0  0
    9.3409    1.8687    0.5479 O   0  0  0  0  0  0  0  0  0  0  0  0
   10.2210    1.1882    1.3381 C   0  0  0  0  0  0  0  0  0  0  0  0
    4.1510    1.0777    0.9342 C   0  0  0  0  0  0  0  0  0  0  0  0
    3.0577    1.5914   -0.0220 C   0  0  0  0  0  0  0  0  0  0  0  0
    2.7145    2.8199   -2.9171 H   0  0  0  0  0  0  0  0  0  0  0  0
    1.0175    3.2267   -3.1370 H   0  0  0  0  0  0  0  0  0  0  0  0
    1.6063    3.1499   -1.4834 H   0  0  0  0  0  0  0  0  0  0  0  0
    2.0171    0.6982   -3.1812 H   0  0  0  0  0  0  0  0  0  0  0  0
    0.3182    1.1005   -3.1147 H   0  0  0  0  0  0  0  0  0  0  0  0
    0.6459   -1.9657   -0.6969 H   0  0  0  0  0  0  0  0  0  0  0  0
   -1.4003   -6.1825    1.7926 H   0  0  0  0  0  0  0  0  0  0  0  0
   -1.2165   -6.4211    0.0271 H   0  0  0  0  0  0  0  0  0  0  0  0
   -2.9703   -5.7041   -1.2552 H   0  0  0  0  0  0  0  0  0  0  0  0
   -4.6597   -5.5990   -0.5367 H   0  0  0  0  0  0  0  0  0  0  0  0
   -5.0604   -7.9212   -0.7978 H   0  0  0  0  0  0  0  0  0  0  0  0
   -4.2075   -7.4828   -2.3020 H   0  0  0  0  0  0  0  0  0  0  0  0
   -2.0387   -9.0517    0.7056 H   0  0  0  0  0  0  0  0  0  0  0  0
   -3.7849   -9.5385    0.6743 H   0  0  0  0  0  0  0  0  0  0  0  0
   -4.6021   -7.5678    1.4485 H   0  0  0  0  0  0  0  0  0  0  0  0
   -3.0422   -7.6355    2.3413 H   0  0  0  0  0  0  0  0  0  0  0  0
   -3.2519   -1.4190    0.8878 H   0  0  0  0  0  0  0  0  0  0  0  0
   -2.2499    2.2789    2.0088 H   0  0  0  0  0  0  0  0  0  0  0  0
   -4.8977    2.6073    2.7287 H   0  0  0  0  0  0  0  0  0  0  0  0
   -3.6281    3.8607    2.8097 H   0  0  0  0  0  0  0  0  0  0  0  0
   -7.1246    1.9811    0.0759 H   0  0  0  0  0  0  0  0  0  0  0  0
   -6.3927    1.8974    1.7174 H   0  0  0  0  0  0  0  0  0  0  0  0
   -7.8851    2.9143    1.4104 H   0  0  0  0  0  0  0  0  0  0  0  0
   -7.6451    4.3296   -0.7785 H   0  0  0  0  0  0  0  0  0  0  0  0
   -6.4934    6.2874   -2.7841 H   0  0  0  0  0  0  0  0  0  0  0  0
   -7.7618    6.6414   -1.5924 H   0  0  0  0  0  0  0  0  0  0  0  0
   -6.2762    7.6841   -1.6629 H   0  0  0  0  0  0  0  0  0  0  0  0
   -4.3823    6.9148   -0.5058 H   0  0  0  0  0  0  0  0  0  0  0  0
   -0.9996    2.5336   -1.7133 H   0  0  0  0  0  0  0  0  0  0  0  0
   -1.9771    2.8081   -0.2991 H   0  0  0  0  0  0  0  0  0  0  0  0
   -0.2411    2.8553   -0.0366 H   0  0  0  0  0  0  0  0  0  0  0  0
    2.1459   -0.2208    0.4798 H   0  0  0  0  0  0  0  0  0  0  0  0
    3.4062   -1.6097   -0.7410 H   0  0  0  0  0  0  0  0  0  0  0  0
    3.0582   -0.7756   -2.2547 H   0  0  0  0  0  0  0  0  0  0  0  0
    5.4426   -0.9495   -1.4068 H   0  0  0  0  0  0  0  0  0  0  0  0
    4.9649    0.5543   -2.1674 H   0  0  0  0  0  0  0  0  0  0  0  0
    5.7271    1.5855   -0.3360 H   0  0  0  0  0  0  0  0  0  0  0  0
    6.4800   -2.1357    0.4527 H   0  0  0  0  0  0  0  0  0  0  0  0
    4.9928   -1.6849    1.3104 H   0  0  0  0  0  0  0  0  0  0  0  0
    6.6454   -1.5298    2.1079 H   0  0  0  0  0  0  0  0  0  0  0  0
    7.0459    1.5015    1.7638 H   0  0  0  0  0  0  0  0  0  0  0  0
    8.0110   -0.0673    1.8008 H   0  0  0  0  0  0  0  0  0  0  0  0
    7.7016    1.8625   -0.6003 H   0  0  0  0  0  0  0  0  0  0  0  0
    8.6071    0.3397   -0.6077 H   0  0  0  0  0  0  0  0  0  0  0  0
    9.7274    0.8174    2.2438 H   0  0  0  0  0  0  0  0  0  0  0  0
   10.6454    0.3247    0.7788 H   0  0  0  0  0  0  0  0  0  0  0  0
   11.0451    1.8853    1.6289 H   0  0  0  0  0  0  0  0  0  0  0  0
    4.5477    1.8699    1.5667 H   0  0  0  0  0  0  0  0  0  0  0  0
    3.7079    0.2752    1.5148 H   0  0  0  0  0  0  0  0  0  0  0  0
    2.3785    2.2004    0.5714 H   0  0  0  0  0  0  0  0  0  0  0  0
    3.6132    2.1102   -0.8177 H   0  0  0  0  0  0  0  0  0  0  0  0
  1  2  1  0
  2  3  1  0
  3  4  1  0
  4  5  2  0
  5  6  1  0
  6  7  1  0
  7  8  3  0
  8  9  1  0
  9 10  1  0
 10 11  1  0
 11 12  1  0
 12 13  1  0
 13 14  1  0
 14 15  1  0
  6 16  2  0
 16 17  1  0
 17 18  1  0
 18 19  2  0
 18 20  1  0
 20 21  1  0
 21 22  1  0
 22 23  2  0
 23 24  1  0
 23 25  1  0
 25 26  2  0
 26 27  1  0
 26 28  1  0
 28 29  1  0
 29 30  2  0
 17 31  2  0
 31 32  1  0
  3 33  1  0
 33 34  1  0
 34 35  1  0
 35 36  1  0
 36 37  1  0
 37 38  1  0
 37 39  1  0
 39 40  1  0
 40 41  1  0
 41 42  1  0
 36 43  1  0
 43 44  1  0
 31  4  1  0
 44 33  1  0
 15 10  1  0
 29 22  1  0
  1 45  1  0
  1 46  1  0
  1 47  1  0
  2 48  1  0
  2 49  1  0
  5 50  1  0
  9 51  1  0
  9 52  1  0
 11 53  1  0
 11 54  1  0
 12 55  1  0
 12 56  1  0
 14 57  1  0
 14 58  1  0
 15 59  1  0
 15 60  1  0
 16 61  1  0
 20 62  1  0
 21 63  1  0
 21 64  1  0
 24 65  1  0
 24 66  1  0
 24 67  1  0
 25 68  1  0
 27 69  1  0
 27 70  1  0
 27 71  1  0
 28 72  1  0
 32 73  1  0
 32 74  1  0
 32 75  1  0
 33 76  1  1
 34 77  1  0
 34 78  1  0
 35 79  1  0
 35 80  1  0
 36 81  1  6
 38 82  1  0
 38 83  1  0
 38 84  1  0
 39 85  1  0
 39 86  1  0
 40 87  1  0
 40 88  1  0
 42 89  1  0
 42 90  1  0
 42 91  1  0
 43 92  1  0
 43 93  1  0
 44 94  1  0
 44 95  1  0
M  END
$$$$
