@<TRIPOS>MOLECULE
*****
 95 98 0 0 0
SMALL
GASTEIGER

@<TRIPOS>ATOM
      1 C           1.7154    2.6450   -2.4600 C.3     1  UNL1       -0.0494
      2 C           1.2690    1.2210   -2.5059 C.3     1  UNL1        0.0097
      3 N           1.1585    0.5492   -1.2388 N.pl3   1  UNL1       -0.3268
      4 C          -0.0385    0.0581   -0.6765 C.ar    1  UNL1        0.0347
      5 C          -0.1898   -1.3196   -0.4286 C.ar    1  UNL1       -0.0249
      6 C          -1.3217   -1.8654    0.1241 C.ar    1  UNL1        0.0274
      7 C          -1.4983   -3.2743    0.3565 C.1     1  UNL1       -0.0649
      8 C          -1.6357   -4.4523    0.5690 C.1     1  UNL1       -0.0814
      9 C          -1.7910   -5.9066    0.8096 C.3     1  UNL1        0.0614
     10 N          -3.1656   -6.2943    0.7082 N.3     1  UNL1       -0.2872
     11 C          -3.7255   -6.2120   -0.6074 C.3     1  UNL1        0.0233
     12 C          -4.1070   -7.5379   -1.1987 C.3     1  UNL1        0.0605
     13 O          -3.1104   -8.4489   -0.9000 O.3     1  UNL1       -0.3772
     14 C          -3.0679   -8.7053    0.4514 C.3     1  UNL1        0.0605
     15 C          -3.4954   -7.5477    1.3171 C.3     1  UNL1        0.0233
     16 C          -2.3526   -1.0086    0.4488 C.ar    1  UNL1       -0.0338
     17 C          -2.2544    0.3430    0.2269 C.ar    1  UNL1        0.0425
     18 C          -3.3752    1.2381    0.5936 C.2     1  UNL1        0.2447
     19 O          -4.4578    1.0749   -0.0004 O.2     1  UNL1       -0.2702
     20 N          -3.2453    2.2367    1.5703 N.am    1  UNL1       -0.3070
     21 C          -4.1776    3.1731    2.0700 C.3     1  UNL1        0.0425
     22 C          -4.9022    4.0236    1.1462 C.ar    1  UNL1        0.0368
     23 C          -6.1068    3.7480    0.5843 C.ar    1  UNL1       -0.0390
     24 C          -6.8881    2.5554    1.0220 C.3     1  UNL1       -0.0392
     25 C          -6.6988    4.5963   -0.3685 C.ar    1  UNL1       -0.0393
     26 C          -6.0498    5.7353   -0.7437 C.ar    1  UNL1        0.0162
     27 C          -6.6645    6.6551   -1.7631 C.3     1  UNL1       -0.0244
     28 N          -4.8465    6.0314   -0.1928 N.ar    1  UNL1       -0.3262
     29 C          -4.2913    5.2188    0.7110 C.ar    1  UNL1        0.2539
     30 O          -3.1636    5.5241    1.2091 O.2     1  UNL1       -0.2675
     31 C          -1.0841    0.8691   -0.3415 C.ar    1  UNL1       -0.0173
     32 C          -0.9966    2.3201   -0.5996 C.3     1  UNL1       -0.0372
     33 C           2.3798    0.3098   -0.4932 C.3     1  UNL1        0.0236
     34 C           3.3698   -0.5728   -1.1902 C.3     1  UNL1       -0.0330
     35 C           4.7641   -0.0578   -1.2368 C.3     1  UNL1       -0.0357
     36 C           5.2722    0.6025    0.0011 C.3     1  UNL1        0.0103
     37 N           6.2901   -0.0997    0.6756 N.3     1  UNL1       -0.3002
     38 C           6.0329   -1.3877    1.1740 C.3     1  UNL1       -0.0124
     39 C           7.3957    0.6207    1.1846 C.3     1  UNL1        0.0223
     40 C           8.2599    1.1615    0.0728 C.3     1  UNL1        0.0600
     41 O           9.3409    1.8687    0.5479 O.3     1  UNL1       -0.3817
     42 C          10.2210    1.1882    1.3381 C.3     1  UNL1        0.0365
     43 C           4.1510    1.0777    0.9342 C.3     1  UNL1       -0.0357
     44 C           3.0577    1.5914   -0.0220 C.3     1  UNL1       -0.0330
     45 H           2.7145    2.8199   -2.9171 H       1  UNL1        0.0245
     46 H           1.0175    3.2267   -3.1370 H       1  UNL1        0.0245
     47 H           1.6063    3.1499   -1.4834 H       1  UNL1        0.0245
     48 H           2.0171    0.6982   -3.1812 H       1  UNL1        0.0461
     49 H           0.3182    1.1005   -3.1147 H       1  UNL1        0.0461
     50 H           0.6459   -1.9657   -0.6969 H       1  UNL1        0.0648
     51 H          -1.4003   -6.1825    1.7926 H       1  UNL1        0.0563
     52 H          -1.2165   -6.4211    0.0271 H       1  UNL1        0.0563
     53 H          -2.9703   -5.7041   -1.2552 H       1  UNL1        0.0449
     54 H          -4.6597   -5.5990   -0.5367 H       1  UNL1        0.0449
     55 H          -5.0604   -7.9212   -0.7978 H       1  UNL1        0.0572
     56 H          -4.2075   -7.4828   -2.3020 H       1  UNL1        0.0572
     57 H          -2.0387   -9.0517    0.7056 H       1  UNL1        0.0572
     58 H          -3.7849   -9.5385    0.6743 H       1  UNL1        0.0572
     59 H          -4.6021   -7.5678    1.4485 H       1  UNL1        0.0449
     60 H          -3.0422   -7.6355    2.3413 H       1  UNL1        0.0449
     61 H          -3.2519   -1.4190    0.8878 H       1  UNL1        0.0637
     62 H          -2.2499    2.2789    2.0088 H       1  UNL1        0.1493
     63 H          -4.8977    2.6073    2.7287 H       1  UNL1        0.0513
     64 H          -3.6281    3.8607    2.8097 H       1  UNL1        0.0513
     65 H          -7.1246    1.9811    0.0759 H       1  UNL1        0.0278
     66 H          -6.3927    1.8974    1.7174 H       1  UNL1        0.0278
     67 H          -7.8851    2.9143    1.4104 H       1  UNL1        0.0278
     68 H          -7.6451    4.3296   -0.7785 H       1  UNL1        0.0637
     69 H          -6.4934    6.2874   -2.7841 H       1  UNL1        0.0292
     70 H          -7.7618    6.6414   -1.5924 H       1  UNL1        0.0292
     71 H          -6.2762    7.6841   -1.6629 H       1  UNL1        0.0292
     72 H          -4.3823    6.9148   -0.5058 H       1  UNL1        0.1686
     73 H          -0.9996    2.5336   -1.7133 H       1  UNL1        0.0278
     74 H          -1.9771    2.8081   -0.2991 H       1  UNL1        0.0278
     75 H          -0.2411    2.8553   -0.0366 H       1  UNL1        0.0278
     76 H           2.1459   -0.2208    0.4798 H       1  UNL1        0.0500
     77 H           3.4062   -1.6097   -0.7410 H       1  UNL1        0.0284
     78 H           3.0582   -0.7756   -2.2547 H       1  UNL1        0.0284
     79 H           5.4426   -0.9495   -1.4068 H       1  UNL1        0.0281
     80 H           4.9649    0.5543   -2.1674 H       1  UNL1        0.0281
     81 H           5.7271    1.5855   -0.3360 H       1  UNL1        0.0462
     82 H           6.4800   -2.1357    0.4527 H       1  UNL1        0.0391
     83 H           4.9928   -1.6849    1.3104 H       1  UNL1        0.0391
     84 H           6.6454   -1.5298    2.1079 H       1  UNL1        0.0391
     85 H           7.0459    1.5015    1.7638 H       1  UNL1        0.0449
     86 H           8.0110   -0.0673    1.8008 H       1  UNL1        0.0449
     87 H           7.7016    1.8625   -0.6003 H       1  UNL1        0.0572
     88 H           8.6071    0.3397   -0.6077 H       1  UNL1        0.0572
     89 H           9.7274    0.8174    2.2438 H       1  UNL1        0.0523
     90 H          10.6454    0.3247    0.7788 H       1  UNL1        0.0523
     91 H          11.0451    1.8853    1.6289 H       1  UNL1        0.0523
     92 H           4.5477    1.8699    1.5667 H       1  UNL1        0.0281
     93 H           3.7079    0.2752    1.5148 H       1  UNL1        0.0281
     94 H           2.3785    2.2004    0.5714 H       1  UNL1        0.0284
     95 H           3.6132    2.1102   -0.8177 H       1  UNL1        0.0284
@<TRIPOS>BOND
     1     1     2    1
     2     2     3    1
     3     3     4    1
     4     4     5   ar
     5     5     6   ar
     6     6     7    1
     7     7     8    3
     8     8     9    1
     9     9    10    1
    10    10    11    1
    11    11    12    1
    12    12    13    1
    13    13    14    1
    14    14    15    1
    15     6    16   ar
    16    16    17   ar
    17    17    18    1
    18    18    19    2
    19    18    20   am
    20    20    21    1
    21    21    22    1
    22    22    23   ar
    23    23    24    1
    24    23    25   ar
    25    25    26   ar
    26    26    27    1
    27    26    28   ar
    28    28    29   ar
    29    29    30    2
    30    17    31   ar
    31    31    32    1
    32     3    33    1
    33    33    34    1
    34    34    35    1
    35    35    36    1
    36    36    37    1
    37    37    38    1
    38    37    39    1
    39    39    40    1
    40    40    41    1
    41    41    42    1
    42    36    43    1
    43    43    44    1
    44    31     4   ar
    45    44    33    1
    46    15    10    1
    47    29    22   ar
    48     1    45    1
    49     1    46    1
    50     1    47    1
    51     2    48    1
    52     2    49    1
    53     5    50    1
    54     9    51    1
    55     9    52    1
    56    11    53    1
    57    11    54    1
    58    12    55    1
    59    12    56    1
    60    14    57    1
    61    14    58    1
    62    15    59    1
    63    15    60    1
    64    16    61    1
    65    20    62    1
    66    21    63    1
    67    21    64    1
    68    24    65    1
    69    24    66    1
    70    24    67    1
    71    25    68    1
    72    27    69    1
    73    27    70    1
    74    27    71    1
    75    28    72    1
    76    32    73    1
    77    32    74    1
    78    32    75    1
    79    33    76    1
    80    34    77    1
    81    34    78    1
    82    35    79    1
    83    35    80    1
    84    36    81    1
    85    38    82    1
    86    38    83    1
    87    38    84    1
    88    39    85    1
    89    39    86    1
    90    40    87    1
    91    40    88    1
    92    42    89    1
    93    42    90    1
    94    42    91    1
    95    43    92    1
    96    43    93    1
    97    44    94    1
    98    44    95    1
