@<TRIPOS>MOLECULE
*****
 34 37 0 0 0
SMALL
GASTEIGER

@<TRIPOS>ATOM
      1 C           5.0974    0.5548    0.2861 C.3     1  UNL1        0.0790
      2 O           3.9104    1.2908    0.2757 O.3     1  UNL1       -0.4914
      3 C           2.6417    0.7331    0.2186 C.ar    1  UNL1        0.1623
      4 C           2.4380   -0.6476    0.1653 C.ar    1  UNL1       -0.0124
      5 C           1.1724   -1.1987    0.1085 C.ar    1  UNL1       -0.0321
      6 C           0.0897   -0.3469    0.1052 C.ar    1  UNL1        0.0183
      7 C           0.2841    1.0366    0.1584 C.ar    1  UNL1        0.0767
      8 C           1.5525    1.5749    0.2148 C.ar    1  UNL1        0.1701
      9 O           1.7406    2.9426    0.2672 O.3     1  UNL1       -0.5028
     10 C          -0.9060    1.8868    0.1518 C.2     1  UNL1        0.1980
     11 O          -0.7688    3.1373    0.1987 O.2     1  UNL1       -0.2865
     12 C          -2.2508    1.3442    0.0930 C.ar    1  UNL1        0.0316
     13 C          -3.3673    2.1810    0.0881 C.ar    1  UNL1       -0.0503
     14 C          -4.6308    1.6295    0.0314 C.ar    1  UNL1       -0.0610
     15 C          -4.7738    0.2582   -0.0198 C.ar    1  UNL1       -0.0611
     16 C          -3.6500   -0.5631   -0.0142 C.ar    1  UNL1       -0.0519
     17 C          -2.3831   -0.0275    0.0421 C.ar    1  UNL1        0.0113
     18 C          -1.2368   -0.9392    0.0452 C.2     1  UNL1        0.0744
     19 N          -1.3686   -2.2129   -0.0023 N.2     1  UNL1       -0.2823
     20 C          -0.3256   -3.1773   -0.0040 C.3     1  UNL1        0.0444
     21 C           1.0653   -2.6608    0.0553 C.3     1  UNL1       -0.0073
     22 H           5.4035    0.3053    1.3343 H       1  UNL1        0.0660
     23 H           5.9215    1.1916   -0.1384 H       1  UNL1        0.0660
     24 H           5.0858   -0.3620   -0.3053 H       1  UNL1        0.0660
     25 H           3.3204   -1.2667    0.1705 H       1  UNL1        0.0658
     26 H           1.9565    3.4162    1.1460 H       1  UNL1        0.2923
     27 H          -3.2303    3.2511    0.1289 H       1  UNL1        0.0625
     28 H          -5.5158    2.2848    0.0273 H       1  UNL1        0.0618
     29 H          -5.7693   -0.1698   -0.0642 H       1  UNL1        0.0618
     30 H          -3.7523   -1.6392   -0.0541 H       1  UNL1        0.0624
     31 H          -0.4716   -3.8152   -0.9260 H       1  UNL1        0.0511
     32 H          -0.5143   -3.8811    0.8607 H       1  UNL1        0.0511
     33 H           1.5825   -3.0592    0.9703 H       1  UNL1        0.0331
     34 H           1.6526   -3.0514   -0.8261 H       1  UNL1        0.0331
@<TRIPOS>BOND
     1     1     2    1
     2     2     3    1
     3     3     4   ar
     4     4     5   ar
     5     5     6   ar
     6     6     7   ar
     7     7     8   ar
     8     8     9    1
     9     7    10    1
    10    10    11    2
    11    10    12    1
    12    12    13   ar
    13    13    14   ar
    14    14    15   ar
    15    15    16   ar
    16    16    17   ar
    17    17    18    1
    18    18    19    2
    19    19    20    1
    20    20    21    1
    21     8     3   ar
    22    17    12   ar
    23    21     5    1
    24    18     6    1
    25     1    22    1
    26     1    23    1
    27     1    24    1
    28     4    25    1
    29     9    26    1
    30    13    27    1
    31    14    28    1
    32    15    29    1
    33    16    30    1
    34    20    31    1
    35    20    32    1
    36    21    33    1
    37    21    34    1
