@<TRIPOS>MOLECULE
*****
 30 30 0 0 0
SMALL
GASTEIGER

@<TRIPOS>ATOM
      1 C          -4.6598    0.9607   -1.7711 C.3     1  UNL1       -0.0639
      2 C          -4.7245    0.6375   -0.3172 C.3     1  UNL1       -0.0402
      3 C          -3.6792   -0.3397    0.1538 C.3     1  UNL1        0.0128
      4 N          -2.3317    0.0973   -0.0463 N.am    1  UNL1       -0.2982
      5 C          -1.2537   -0.7567    0.3663 C.2     1  UNL1        0.3189
      6 O          -1.4161   -1.8839    0.9017 O.2     1  UNL1       -0.2512
      7 N           0.0495   -0.2672    0.1410 N.am    1  UNL1       -0.1693
      8 S           1.3664   -1.2982    0.6392 S.O2    1  UNL1        0.0756
      9 O           1.2622   -1.5918    2.1105 O.2     1  UNL1       -0.1499
     10 O           1.1639   -2.5976   -0.0871 O.2     1  UNL1       -0.1499
     11 C           2.8949   -0.5713    0.3022 C.ar    1  UNL1        0.1087
     12 C           3.4427    0.2189    1.2862 C.ar    1  UNL1       -0.0337
     13 C           4.6560    0.8645    1.1617 C.ar    1  UNL1       -0.0415
     14 C           5.3786    0.7249   -0.0058 C.ar    1  UNL1        0.0411
     15 CL          6.9260    1.5235   -0.2160 Cl      1  UNL1       -0.0835
     16 C           4.8506   -0.0701   -1.0237 C.ar    1  UNL1       -0.0415
     17 C           3.6227   -0.7096   -0.8689 C.ar    1  UNL1       -0.0337
     18 H          -3.9781    1.7892   -1.9971 H       1  UNL1        0.0230
     19 H          -4.4574    0.0445   -2.3618 H       1  UNL1        0.0230
     20 H          -5.6835    1.3196   -2.0640 H       1  UNL1        0.0230
     21 H          -4.7524    1.5465    0.2976 H       1  UNL1        0.0278
     22 H          -5.7119    0.1318   -0.1313 H       1  UNL1        0.0278
     23 H          -3.8245   -0.4120    1.2697 H       1  UNL1        0.0462
     24 H          -3.8529   -1.3464   -0.2551 H       1  UNL1        0.0462
     25 H          -2.1483    1.0288   -0.4885 H       1  UNL1        0.1503
     26 H           0.2908    0.6425   -0.2905 H       1  UNL1        0.1781
     27 H           2.9464    0.3833    2.2309 H       1  UNL1        0.0638
     28 H           5.0687    1.4813    1.9479 H       1  UNL1        0.0633
     29 H           5.3828   -0.2151   -1.9713 H       1  UNL1        0.0633
     30 H           3.1719   -1.3354   -1.6275 H       1  UNL1        0.0638
@<TRIPOS>BOND
     1     1     2    1
     2     2     3    1
     3     3     4    1
     4     4     5   am
     5     5     6    2
     6     5     7   am
     7     7     8    1
     8     8     9    2
     9     8    10    2
    10     8    11    1
    11    11    12   ar
    12    12    13   ar
    13    13    14   ar
    14    14    15    1
    15    14    16   ar
    16    16    17   ar
    17    17    11   ar
    18     1    18    1
    19     1    19    1
    20     1    20    1
    21     2    21    1
    22     2    22    1
    23     3    23    1
    24     3    24    1
    25     4    25    1
    26     7    26    1
    27    12    27    1
    28    13    28    1
    29    16    29    1
    30    17    30    1
