
     RDKit          3D

 30 30  0  0  0  0  0  0  0  0999 V2000
   -4.6598    0.9607   -1.7711 C   0  0  0  0  0  0  0  0  0  0  0  0
   -4.7245    0.6375   -0.3172 C   0  0  0  0  0  0  0  0  0  0  0  0
   -3.6792   -0.3397    0.1538 C   0  0  0  0  0  0  0  0  0  0  0  0
   -2.3317    0.0973   -0.0463 N   0  0  0  0  0  0  0  0  0  0  0  0
   -1.2537   -0.7567    0.3663 C   0  0  0  0  0  0  0  0  0  0  0  0
   -1.4161   -1.8839    0.9017 O   0  0  0  0  0  0  0  0  0  0  0  0
    0.0495   -0.2672    0.1410 N   0  0  0  0  0  0  0  0  0  0  0  0
    1.3664   -1.2982    0.6392 S   0  0  0  0  0  0  0  0  0  0  0  0
    1.2622   -1.5918    2.1105 O   0  0  0  0  0  0  0  0  0  0  0  0
    1.1639   -2.5976   -0.0871 O   0  0  0  0  0  0  0  0  0  0  0  0
    2.8949   -0.5713    0.3022 C   0  0  0  0  0  0  0  0  0  0  0  0
    3.4427    0.2189    1.2862 C   0  0  0  0  0  0  0  0  0  0  0  0
    4.6560    0.8645    1.1617 C   0  0  0  0  0  0  0  0  0  0  0  0
    5.3786    0.7249   -0.0058 C   0  0  0  0  0  0  0  0  0  0  0  0
    6.9260    1.5235   -0.2160 Cl  0  0  0  0  0  0  0  0  0  0  0  0
    4.8506   -0.0701   -1.0237 C   0  0  0  0  0  0  0  0  0  0  0  0
    3.6227   -0.7096   -0.8689 C   0  0  0  0  0  0  0  0  0  0  0  0
   -3.9781    1.7892   -1.9971 H   0  0  0  0  0  0  0  0  0  0  0  0
   -4.4574    0.0445   -2.3618 H   0  0  0  0  0  0  0  0  0  0  0  0
   -5.6835    1.3196   -2.0640 H   0  0  0  0  0  0  0  0  0  0  0  0
   -4.7524    1.5465    0.2976 H   0  0  0  0  0  0  0  0  0  0  0  0
   -5.7119    0.1318   -0.1313 H   0  0  0  0  0  0  0  0  0  0  0  0
   -3.8245   -0.4120    1.2697 H   0  0  0  0  0  0  0  0  0  0  0  0
   -3.8529   -1.3464   -0.2551 H   0  0  0  0  0  0  0  0  0  0  0  0
   -2.1483    1.0288   -0.4885 H   0  0  0  0  0  0  0  0  0  0  0  0
    0.2908    0.6425   -0.2905 H   0  0  0  0  0  0  0  0  0  0  0  0
    2.9464    0.3833    2.2309 H   0  0  0  0  0  0  0  0  0  0  0  0
    5.0687    1.4813    1.9479 H   0  0  0  0  0  0  0  0  0  0  0  0
    5.3828   -0.2151   -1.9713 H   0  0  0  0  0  0  0  0  0  0  0  0
    3.1719   -1.3354   -1.6275 H   0  0  0  0  0  0  0  0  0  0  0  0
  1  2  1  0
  2  3  1  0
  3  4  1  0
  4  5  1  0
  5  6  2  0
  5  7  1  0
  7  8  1  0
  8  9  2  0
  8 10  2  0
  8 11  1  0
 11 12  2  0
 12 13  1  0
 13 14  2  0
 14 15  1  0
 14 16  1  0
 16 17  2  0
 17 11  1  0
  1 18  1  0
  1 19  1  0
  1 20  1  0
  2 21  1  0
  2 22  1  0
  3 23  1  0
  3 24  1  0
  4 25  1  0
  7 26  1  0
 12 27  1  0
 13 28  1  0
 16 29  1  0
 17 30  1  0
M  END
$$$$
