@<TRIPOS>MOLECULE
*****
 48 52 0 0 0
SMALL
GASTEIGER

@<TRIPOS>ATOM
      1 N           1.0895    1.5321   -0.5691 N.3     1  UNL1       -0.3195
      2 C           0.4905    0.7735    0.5048 C.3     1  UNL1        0.0883
      3 C           1.3785   -0.3462    0.8648 C.2     1  UNL1        0.2342
      4 O           1.1195   -1.1428    1.8320 O.2     1  UNL1       -0.2738
      5 N           2.5924   -0.5874    0.1252 N.am    1  UNL1       -0.2810
      6 C           3.0452    0.2076   -0.9955 C.3     1  UNL1        0.0306
      7 C           4.0249    1.2605   -0.6681 C.3     1  UNL1       -0.0294
      8 C           4.4780   -0.0507   -1.1560 C.3     1  UNL1       -0.0180
      9 C           4.8050   -1.1921   -0.2733 C.3     1  UNL1       -0.0164
     10 C           3.5473   -1.6491    0.3717 C.3     1  UNL1        0.1135
     11 C           3.7598   -1.8378    1.8062 C.1     1  UNL1        0.0851
     12 N           3.9106   -1.9840    2.9409 N.1     1  UNL1       -0.1946
     13 C          -0.9309    0.4040    0.2401 C.3     1  UNL1       -0.0025
     14 C          -1.5091   -0.3719    1.3743 C.3     1  UNL1       -0.0425
     15 C          -3.0159   -0.5239    1.1930 C.3     1  UNL1       -0.0376
     16 C          -3.7342    0.7700    1.0159 C.3     1  UNL1       -0.0471
     17 C          -3.1196    1.5315   -0.1628 C.3     1  UNL1       -0.0376
     18 C          -3.3289    0.7109   -1.3928 C.3     1  UNL1       -0.0211
     19 C          -2.6322   -0.6164   -1.1972 C.3     1  UNL1        0.0672
     20 O          -2.7703   -1.3844   -2.3727 O.3     1  UNL1       -0.3885
     21 C          -3.1726   -1.3947   -0.0482 C.3     1  UNL1       -0.0211
     22 C          -1.1611   -0.3577   -1.0413 C.3     1  UNL1       -0.0164
     23 C          -1.6839    1.7400    0.1742 C.3     1  UNL1       -0.0425
     24 H           1.4281    2.4691   -0.2600 H       1  UNL1        0.1189
     25 H           0.5702    1.5476   -1.4539 H       1  UNL1        0.1189
     26 H           0.4680    1.4504    1.3851 H       1  UNL1        0.0560
     27 H           2.4759    0.1889   -1.9615 H       1  UNL1        0.0504
     28 H           4.0851    2.1035   -1.3763 H       1  UNL1        0.0286
     29 H           4.1050    1.5923    0.3860 H       1  UNL1        0.0286
     30 H           4.9614   -0.0747   -2.1717 H       1  UNL1        0.0320
     31 H           5.6298   -0.9953    0.4416 H       1  UNL1        0.0296
     32 H           5.1635   -2.0511   -0.9111 H       1  UNL1        0.0296
     33 H           3.1681   -2.6183   -0.0268 H       1  UNL1        0.0659
     34 H          -1.3336    0.1549    2.3222 H       1  UNL1        0.0274
     35 H          -1.1327   -1.4162    1.4318 H       1  UNL1        0.0274
     36 H          -3.4443   -1.0610    2.0578 H       1  UNL1        0.0302
     37 H          -3.7502    1.3632    1.9338 H       1  UNL1        0.0271
     38 H          -4.7688    0.5112    0.6711 H       1  UNL1        0.0271
     39 H          -3.5919    2.5216   -0.2663 H       1  UNL1        0.0302
     40 H          -2.9203    1.1607   -2.3026 H       1  UNL1        0.0296
     41 H          -4.4004    0.5458   -1.5160 H       1  UNL1        0.0296
     42 H          -2.9621   -2.3228   -2.1678 H       1  UNL1        0.2102
     43 H          -2.4757   -2.2634    0.1093 H       1  UNL1        0.0296
     44 H          -4.1872   -1.7606   -0.1911 H       1  UNL1        0.0296
     45 H          -0.8636    0.2060   -1.9439 H       1  UNL1        0.0299
     46 H          -0.6288   -1.3155   -0.9963 H       1  UNL1        0.0299
     47 H          -1.6382    2.1258    1.2255 H       1  UNL1        0.0274
     48 H          -1.1395    2.4471   -0.4803 H       1  UNL1        0.0274
@<TRIPOS>BOND
     1     1     2    1
     2     2     3    1
     3     3     4    2
     4     3     5   am
     5     5     6    1
     6     6     7    1
     7     7     8    1
     8     8     9    1
     9     9    10    1
    10    10    11    1
    11    11    12    3
    12     2    13    1
    13    13    14    1
    14    14    15    1
    15    15    16    1
    16    16    17    1
    17    17    18    1
    18    18    19    1
    19    19    20    1
    20    19    21    1
    21    19    22    1
    22    17    23    1
    23    10     5    1
    24    22    13    1
    25     8     6    1
    26    23    13    1
    27    21    15    1
    28     1    24    1
    29     1    25    1
    30     2    26    1
    31     6    27    1
    32     7    28    1
    33     7    29    1
    34     8    30    1
    35     9    31    1
    36     9    32    1
    37    10    33    1
    38    14    34    1
    39    14    35    1
    40    15    36    1
    41    16    37    1
    42    16    38    1
    43    17    39    1
    44    18    40    1
    45    18    41    1
    46    20    42    1
    47    21    43    1
    48    21    44    1
    49    22    45    1
    50    22    46    1
    51    23    47    1
    52    23    48    1
