@<TRIPOS>MOLECULE
*****
 38 40 0 0 0
SMALL
GASTEIGER

@<TRIPOS>ATOM
      1 C           5.2479    1.4367   -1.4540 C.3     1  UNL1        0.0004
      2 N           5.0776    0.5198   -0.3477 N.pl3   1  UNL1       -0.3360
      3 C           6.2841    0.0367    0.3118 C.3     1  UNL1        0.0004
      4 C           3.7821    0.1130    0.0725 C.ar    1  UNL1        0.0304
      5 C           3.5906   -0.7581    1.1197 C.ar    1  UNL1       -0.0386
      6 C           2.3346   -1.1562    1.5325 C.ar    1  UNL1       -0.0335
      7 C           1.1837   -0.6781    0.8869 C.ar    1  UNL1        0.0784
      8 N           0.0180   -1.1056    1.3404 N.ar    1  UNL1       -0.2456
      9 C          -1.2014   -0.8006    0.9011 C.ar    1  UNL1        0.0787
     10 C          -2.3202   -1.3586    1.5157 C.ar    1  UNL1       -0.0290
     11 C          -3.5914   -1.0541    1.0741 C.ar    1  UNL1        0.0113
     12 C          -3.8431   -0.2002    0.0229 C.ar    1  UNL1        0.2033
     13 N          -5.0380    0.0751   -0.3780 N.2     1  UNL1       -0.2338
     14 C          -6.2236   -0.4807    0.2314 C.3     1  UNL1        0.1352
     15 C          -5.2110    0.9828   -1.4933 C.3     1  UNL1        0.1352
     16 C          -2.7504    0.3589   -0.5946 C.ar    1  UNL1        0.0250
     17 C          -1.4577    0.1033   -0.2113 C.ar    1  UNL1        0.0443
     18 S          -0.0466    0.7461   -0.9124 S.2     1  UNL1       -0.0849
     19 C           1.3958    0.1922   -0.1582 C.ar    1  UNL1        0.0399
     20 C           2.6698    0.5897   -0.5692 C.ar    1  UNL1       -0.0249
     21 H           4.5270    1.2532   -2.2818 H       1  UNL1        0.0428
     22 H           5.1622    2.4993   -1.0829 H       1  UNL1        0.0428
     23 H           6.2629    1.3153   -1.8710 H       1  UNL1        0.0428
     24 H           6.1934   -1.0618    0.4824 H       1  UNL1        0.0428
     25 H           7.1792    0.1808   -0.3013 H       1  UNL1        0.0428
     26 H           6.3694    0.5101    1.3258 H       1  UNL1        0.0428
     27 H           4.4999   -1.1233    1.6149 H       1  UNL1        0.0637
     28 H           2.2611   -1.8422    2.3615 H       1  UNL1        0.0640
     29 H          -2.1936   -2.0504    2.3630 H       1  UNL1        0.0641
     30 H          -4.4740   -1.4980    1.5625 H       1  UNL1        0.0684
     31 H          -6.1603   -0.3837    1.3431 H       1  UNL1        0.0988
     32 H          -7.1037    0.1026   -0.1026 H       1  UNL1        0.0988
     33 H          -6.4103   -1.5275   -0.0775 H       1  UNL1        0.0988
     34 H          -4.6988    1.9429   -1.2397 H       1  UNL1        0.0988
     35 H          -4.8525    0.5587   -2.4478 H       1  UNL1        0.0988
     36 H          -6.2771    1.2484   -1.6432 H       1  UNL1        0.0988
     37 H          -2.8806    1.0382   -1.4271 H       1  UNL1        0.0695
     38 H           2.6946    1.2748   -1.3993 H       1  UNL1        0.0648
@<TRIPOS>UNITY_ATOM_ATTR
13 1
charge 1
@<TRIPOS>BOND
     1     1     2    1
     2     2     3    1
     3     2     4    1
     4     4     5   ar
     5     5     6   ar
     6     6     7   ar
     7     7     8   ar
     8     8     9   ar
     9     9    10   ar
    10    10    11   ar
    11    11    12   ar
    12    12    13    2
    13    13    14    1
    14    13    15    1
    15    12    16   ar
    16    16    17   ar
    17    17    18   ar
    18    18    19   ar
    19    19    20   ar
    20    20     4   ar
    21    19     7   ar
    22    17     9    1
    23     1    21    1
    24     1    22    1
    25     1    23    1
    26     3    24    1
    27     3    25    1
    28     3    26    1
    29     5    27    1
    30     6    28    1
    31    10    29    1
    32    11    30    1
    33    14    31    1
    34    14    32    1
    35    14    33    1
    36    15    34    1
    37    15    35    1
    38    15    36    1
    39    16    37    1
    40    20    38    1
