
     RDKit          3D

 38 40  0  0  0  0  0  0  0  0999 V2000
    5.2479    1.4367   -1.4540 C   0  0  0  0  0  0  0  0  0  0  0  0
    5.0776    0.5198   -0.3477 N   0  0  0  0  0  0  0  0  0  0  0  0
    6.2841    0.0367    0.3118 C   0  0  0  0  0  0  0  0  0  0  0  0
    3.7821    0.1130    0.0725 C   0  0  0  0  0  0  0  0  0  0  0  0
    3.5906   -0.7581    1.1197 C   0  0  0  0  0  0  0  0  0  0  0  0
    2.3346   -1.1562    1.5325 C   0  0  0  0  0  0  0  0  0  0  0  0
    1.1837   -0.6781    0.8869 C   0  0  0  0  0  0  0  0  0  0  0  0
    0.0180   -1.1056    1.3404 N   0  0  0  0  0  0  0  0  0  0  0  0
   -1.2014   -0.8006    0.9011 C   0  0  0  0  0  0  0  0  0  0  0  0
   -2.3202   -1.3586    1.5157 C   0  0  0  0  0  0  0  0  0  0  0  0
   -3.5914   -1.0541    1.0741 C   0  0  0  0  0  0  0  0  0  0  0  0
   -3.8431   -0.2002    0.0229 C   0  0  0  0  0  0  0  0  0  0  0  0
   -5.0380    0.0751   -0.3780 N   0  0  0  0  0  4  0  0  0  0  0  0
   -6.2236   -0.4807    0.2314 C   0  0  0  0  0  0  0  0  0  0  0  0
   -5.2110    0.9828   -1.4933 C   0  0  0  0  0  0  0  0  0  0  0  0
   -2.7504    0.3589   -0.5946 C   0  0  0  0  0  0  0  0  0  0  0  0
   -1.4577    0.1033   -0.2113 C   0  0  0  0  0  0  0  0  0  0  0  0
   -0.0466    0.7461   -0.9124 S   0  0  0  0  0  0  0  0  0  0  0  0
    1.3958    0.1922   -0.1582 C   0  0  0  0  0  0  0  0  0  0  0  0
    2.6698    0.5897   -0.5692 C   0  0  0  0  0  0  0  0  0  0  0  0
    4.5270    1.2532   -2.2818 H   0  0  0  0  0  0  0  0  0  0  0  0
    5.1622    2.4993   -1.0829 H   0  0  0  0  0  0  0  0  0  0  0  0
    6.2629    1.3153   -1.8710 H   0  0  0  0  0  0  0  0  0  0  0  0
    6.1934   -1.0618    0.4824 H   0  0  0  0  0  0  0  0  0  0  0  0
    7.1792    0.1808   -0.3013 H   0  0  0  0  0  0  0  0  0  0  0  0
    6.3694    0.5101    1.3258 H   0  0  0  0  0  0  0  0  0  0  0  0
    4.4999   -1.1233    1.6149 H   0  0  0  0  0  0  0  0  0  0  0  0
    2.2611   -1.8422    2.3615 H   0  0  0  0  0  0  0  0  0  0  0  0
   -2.1936   -2.0504    2.3630 H   0  0  0  0  0  0  0  0  0  0  0  0
   -4.4740   -1.4980    1.5625 H   0  0  0  0  0  0  0  0  0  0  0  0
   -6.1603   -0.3837    1.3431 H   0  0  0  0  0  0  0  0  0  0  0  0
   -7.1037    0.1026   -0.1026 H   0  0  0  0  0  0  0  0  0  0  0  0
   -6.4103   -1.5275   -0.0775 H   0  0  0  0  0  0  0  0  0  0  0  0
   -4.6988    1.9429   -1.2397 H   0  0  0  0  0  0  0  0  0  0  0  0
   -4.8525    0.5587   -2.4478 H   0  0  0  0  0  0  0  0  0  0  0  0
   -6.2771    1.2484   -1.6432 H   0  0  0  0  0  0  0  0  0  0  0  0
   -2.8806    1.0382   -1.4271 H   0  0  0  0  0  0  0  0  0  0  0  0
    2.6946    1.2748   -1.3993 H   0  0  0  0  0  0  0  0  0  0  0  0
  1  2  1  0
  2  3  1  0
  2  4  1  0
  4  5  2  0
  5  6  1  0
  6  7  2  0
  7  8  1  0
  8  9  2  0
  9 10  1  0
 10 11  2  0
 11 12  1  0
 12 13  2  3
 13 14  1  0
 13 15  1  0
 12 16  1  0
 16 17  2  0
 17 18  1  0
 18 19  1  0
 19 20  2  0
 20  4  1  0
 19  7  1  0
 17  9  1  0
  1 21  1  0
  1 22  1  0
  1 23  1  0
  3 24  1  0
  3 25  1  0
  3 26  1  0
  5 27  1  0
  6 28  1  0
 10 29  1  0
 11 30  1  0
 14 31  1  0
 14 32  1  0
 14 33  1  0
 15 34  1  0
 15 35  1  0
 15 36  1  0
 16 37  1  0
 20 38  1  0
M  CHG  1  13   1
M  END
$$$$
