@<TRIPOS>MOLECULE
*****
 35 37 0 0 0
SMALL
GASTEIGER

@<TRIPOS>ATOM
      1 C           5.0159    1.7623   -0.4208 C.3     1  UNL1       -0.0206
      2 C           4.0008    0.7279   -0.1023 C.ar    1  UNL1        0.0616
      3 C           2.8960    0.8787    0.6963 C.ar    1  UNL1        0.0006
      4 C           2.2229   -0.3199    0.7213 C.ar    1  UNL1        0.1196
      5 N           1.0142   -0.5136    1.4485 N.pl3   1  UNL1       -0.2829
      6 C          -0.2004   -0.3176    0.7005 C.ar    1  UNL1        0.1525
      7 N          -0.6954    0.9230    0.5698 N.ar    1  UNL1       -0.1521
      8 N          -1.8105    1.1725   -0.1187 N.ar    1  UNL1       -0.2186
      9 C          -2.3154    2.5139   -0.2488 C.3     1  UNL1        0.1403
     10 C          -3.2806    2.9269    0.8203 C.3     1  UNL1        0.4090
     11 F          -3.6421    4.2470    0.5092 F       1  UNL1       -0.1687
     12 F          -4.4903    2.2203    0.7189 F       1  UNL1       -0.1687
     13 F          -2.7715    2.9342    2.0797 F       1  UNL1       -0.1687
     14 C          -2.4224    0.1164   -0.6813 C.ar    1  UNL1        0.2754
     15 O          -3.4607    0.3324   -1.3255 O.2     1  UNL1       -0.2656
     16 C          -1.9684   -1.1700   -0.5843 C.ar    1  UNL1        0.0514
     17 C          -2.5853   -2.2632   -1.1533 C.ar    1  UNL1       -0.0487
     18 C          -2.1277   -3.5461   -1.0514 C.ar    1  UNL1       -0.0610
     19 C          -0.9618   -3.7388   -0.3209 C.ar    1  UNL1       -0.0611
     20 C          -0.3056   -2.6789    0.2690 C.ar    1  UNL1       -0.0505
     21 C          -0.8109   -1.4083    0.1339 C.ar    1  UNL1        0.0291
     22 N           2.9261   -1.1579   -0.0519 N.ar    1  UNL1       -0.2637
     23 N           3.9879   -0.5412   -0.5468 N.ar    1  UNL1       -0.1775
     24 H           4.8175    2.6806    0.1534 H       1  UNL1        0.0293
     25 H           4.9714    2.0568   -1.4940 H       1  UNL1        0.0293
     26 H           6.0324    1.4384   -0.1630 H       1  UNL1        0.0293
     27 H           2.6044    1.7887    1.2176 H       1  UNL1        0.0670
     28 H           0.9310   -0.7711    2.4293 H       1  UNL1        0.1550
     29 H          -1.4221    3.1978   -0.1455 H       1  UNL1        0.0599
     30 H          -2.7235    2.6906   -1.2518 H       1  UNL1        0.0599
     31 H          -3.5008   -2.0750   -1.7188 H       1  UNL1        0.0625
     32 H          -2.6331   -4.3902   -1.5086 H       1  UNL1        0.0618
     33 H          -0.5475   -4.7494   -0.2068 H       1  UNL1        0.0618
     34 H           0.6106   -2.8190    0.8456 H       1  UNL1        0.0625
     35 H           2.6449   -2.1482   -0.2188 H       1  UNL1        0.1903
@<TRIPOS>BOND
     1     1     2    1
     2     2     3   ar
     3     3     4   ar
     4     4     5    1
     5     5     6    1
     6     6     7   ar
     7     7     8   ar
     8     8     9    1
     9     9    10    1
    10    10    11    1
    11    10    12    1
    12    10    13    1
    13     8    14   ar
    14    14    15    2
    15    14    16   ar
    16    16    17   ar
    17    17    18   ar
    18    18    19   ar
    19    19    20   ar
    20    20    21   ar
    21     4    22   ar
    22    22    23   ar
    23    23     2   ar
    24    21     6   ar
    25    21    16   ar
    26     1    24    1
    27     1    25    1
    28     1    26    1
    29     3    27    1
    30     5    28    1
    31     9    29    1
    32     9    30    1
    33    17    31    1
    34    18    32    1
    35    19    33    1
    36    20    34    1
    37    22    35    1
