@<TRIPOS>MOLECULE
*****
 52 56 0 0 0
SMALL
GASTEIGER

@<TRIPOS>ATOM
      1 C          -3.2155    0.5458    3.4811 C.3     1  UNL1        0.0788
      2 O          -2.0490    0.1202    2.7980 O.3     1  UNL1       -0.4944
      3 C          -2.1864   -0.2346    1.4467 C.ar    1  UNL1        0.1299
      4 C          -3.3967   -0.1787    0.7916 C.ar    1  UNL1       -0.0102
      5 C          -3.5518   -0.5230   -0.5353 C.ar    1  UNL1        0.0040
      6 C          -4.8677   -0.4413   -1.1603 C.ar    1  UNL1       -0.0137
      7 C          -5.3855   -1.4405   -1.9569 C.ar    1  UNL1       -0.0538
      8 C          -6.6442   -1.3285   -2.5371 C.ar    1  UNL1       -0.0585
      9 C          -7.4245   -0.2089   -2.3363 C.ar    1  UNL1       -0.0264
     10 C          -6.9069    0.7905   -1.5396 C.ar    1  UNL1        0.1240
     11 F          -7.6852    1.8984   -1.3435 F       1  UNL1       -0.2055
     12 C          -5.6513    0.6774   -0.9615 C.ar    1  UNL1       -0.0187
     13 C          -2.4297   -0.9399   -1.2192 C.ar    1  UNL1        0.0495
     14 CL         -2.5367   -1.3938   -2.9057 Cl      1  UNL1       -0.0829
     15 C          -1.2112   -1.0016   -0.5781 C.ar    1  UNL1       -0.0301
     16 C          -1.0536   -0.6588    0.7448 C.ar    1  UNL1        0.0440
     17 C           0.2016   -0.7241    1.4767 C.ar    1  UNL1        0.0822
     18 N           0.3023   -1.4989    2.5982 N.ar    1  UNL1       -0.2542
     19 C           1.4290   -1.5964    3.3175 C.ar    1  UNL1        0.0289
     20 C           2.5397   -0.8897    2.9195 C.ar    1  UNL1       -0.0358
     21 C           2.4940   -0.0880    1.7906 C.ar    1  UNL1       -0.0126
     22 C           3.5734    0.6374    1.3617 C.ar    1  UNL1       -0.0272
     23 C           3.5499    1.4451    0.2477 C.ar    1  UNL1        0.1091
     24 S           4.9305    2.3513   -0.2861 S.O2    1  UNL1        0.0736
     25 O           5.8588    2.6244    0.8762 O.2     1  UNL1       -0.1499
     26 O           4.4271    3.7076   -0.7337 O.2     1  UNL1       -0.1499
     27 N           5.8070    1.6354   -1.5545 N.pl3   1  UNL1       -0.1968
     28 C           6.4644    0.3800   -1.4860 C.ar    1  UNL1        0.1805
     29 C           6.5620   -0.4950   -0.4356 C.ar    1  UNL1        0.0203
     30 C           7.3110   -1.5646   -0.8639 C.ar    1  UNL1        0.1261
     31 O           7.6392   -1.3315   -2.1064 O.2     1  UNL1       -0.3611
     32 N           7.1618   -0.2003   -2.5091 N.ar    1  UNL1       -0.0620
     33 C           2.3526    1.5194   -0.4744 C.ar    1  UNL1       -0.0344
     34 C           1.2688    0.7935   -0.0471 C.ar    1  UNL1       -0.0501
     35 C           1.3199   -0.0180    1.0846 C.ar    1  UNL1        0.0083
     36 H          -2.9595    0.7026    4.5601 H       1  UNL1        0.0660
     37 H          -4.0519   -0.1491    3.3591 H       1  UNL1        0.0660
     38 H          -3.5497    1.5477    3.1087 H       1  UNL1        0.0660
     39 H          -4.2816    0.1567    1.3530 H       1  UNL1        0.0661
     40 H          -4.7734   -2.3180   -2.1138 H       1  UNL1        0.0624
     41 H          -7.0496   -2.1203   -3.1650 H       1  UNL1        0.0619
     42 H          -8.4107   -0.1017   -2.7808 H       1  UNL1        0.0646
     43 H          -5.2731    1.4729   -0.3444 H       1  UNL1        0.0652
     44 H          -0.3318   -1.3437   -1.1453 H       1  UNL1        0.0640
     45 H           1.4723   -2.2170    4.1962 H       1  UNL1        0.0830
     46 H           3.4720   -0.9317    3.4615 H       1  UNL1        0.0639
     47 H           4.4748    0.5558    1.9534 H       1  UNL1        0.0643
     48 H           5.8678    2.1718   -2.4740 H       1  UNL1        0.1753
     49 H           6.1352   -0.3821    0.5666 H       1  UNL1        0.0685
     50 H           7.5916   -2.4469   -0.3000 H       1  UNL1        0.1058
     51 H           2.3341    2.1617   -1.3593 H       1  UNL1        0.0637
     52 H           0.3362    0.8713   -0.6234 H       1  UNL1        0.0625
@<TRIPOS>BOND
     1     1     2    1
     2     2     3    1
     3     3     4   ar
     4     4     5   ar
     5     5     6    1
     6     6     7   ar
     7     7     8   ar
     8     8     9   ar
     9     9    10   ar
    10    10    11    1
    11    10    12   ar
    12     5    13   ar
    13    13    14    1
    14    13    15   ar
    15    15    16   ar
    16    16    17    1
    17    17    18   ar
    18    18    19   ar
    19    19    20   ar
    20    20    21   ar
    21    21    22   ar
    22    22    23   ar
    23    23    24    1
    24    24    25    2
    25    24    26    2
    26    24    27    1
    27    27    28    1
    28    28    29   ar
    29    29    30   ar
    30    30    31   ar
    31    31    32   ar
    32    23    33   ar
    33    33    34   ar
    34    34    35   ar
    35    16     3   ar
    36    35    17   ar
    37    12     6   ar
    38    35    21   ar
    39    32    28   ar
    40     1    36    1
    41     1    37    1
    42     1    38    1
    43     4    39    1
    44     7    40    1
    45     8    41    1
    46     9    42    1
    47    12    43    1
    48    15    44    1
    49    19    45    1
    50    20    46    1
    51    22    47    1
    52    27    48    1
    53    29    49    1
    54    30    50    1
    55    33    51    1
    56    34    52    1
