
     RDKit          3D

 52 56  0  0  0  0  0  0  0  0999 V2000
   -3.2155    0.5458    3.4811 C   0  0  0  0  0  0  0  0  0  0  0  0
   -2.0490    0.1202    2.7980 O   0  0  0  0  0  0  0  0  0  0  0  0
   -2.1864   -0.2346    1.4467 C   0  0  0  0  0  0  0  0  0  0  0  0
   -3.3967   -0.1787    0.7916 C   0  0  0  0  0  0  0  0  0  0  0  0
   -3.5518   -0.5230   -0.5353 C   0  0  0  0  0  0  0  0  0  0  0  0
   -4.8677   -0.4413   -1.1603 C   0  0  0  0  0  0  0  0  0  0  0  0
   -5.3855   -1.4405   -1.9569 C   0  0  0  0  0  0  0  0  0  0  0  0
   -6.6442   -1.3285   -2.5371 C   0  0  0  0  0  0  0  0  0  0  0  0
   -7.4245   -0.2089   -2.3363 C   0  0  0  0  0  0  0  0  0  0  0  0
   -6.9069    0.7905   -1.5396 C   0  0  0  0  0  0  0  0  0  0  0  0
   -7.6852    1.8984   -1.3435 F   0  0  0  0  0  0  0  0  0  0  0  0
   -5.6513    0.6774   -0.9615 C   0  0  0  0  0  0  0  0  0  0  0  0
   -2.4297   -0.9399   -1.2192 C   0  0  0  0  0  0  0  0  0  0  0  0
   -2.5367   -1.3938   -2.9057 Cl  0  0  0  0  0  0  0  0  0  0  0  0
   -1.2112   -1.0016   -0.5781 C   0  0  0  0  0  0  0  0  0  0  0  0
   -1.0536   -0.6588    0.7448 C   0  0  0  0  0  0  0  0  0  0  0  0
    0.2016   -0.7241    1.4767 C   0  0  0  0  0  0  0  0  0  0  0  0
    0.3023   -1.4989    2.5982 N   0  0  0  0  0  0  0  0  0  0  0  0
    1.4290   -1.5964    3.3175 C   0  0  0  0  0  0  0  0  0  0  0  0
    2.5397   -0.8897    2.9195 C   0  0  0  0  0  0  0  0  0  0  0  0
    2.4940   -0.0880    1.7906 C   0  0  0  0  0  0  0  0  0  0  0  0
    3.5734    0.6374    1.3617 C   0  0  0  0  0  0  0  0  0  0  0  0
    3.5499    1.4451    0.2477 C   0  0  0  0  0  0  0  0  0  0  0  0
    4.9305    2.3513   -0.2861 S   0  0  0  0  0  6  0  0  0  0  0  0
    5.8588    2.6244    0.8762 O   0  0  0  0  0  0  0  0  0  0  0  0
    4.4271    3.7076   -0.7337 O   0  0  0  0  0  0  0  0  0  0  0  0
    5.8070    1.6354   -1.5545 N   0  0  0  0  0  0  0  0  0  0  0  0
    6.4644    0.3800   -1.4860 C   0  0  0  0  0  0  0  0  0  0  0  0
    6.5620   -0.4950   -0.4356 C   0  0  0  0  0  0  0  0  0  0  0  0
    7.3110   -1.5646   -0.8639 C   0  0  0  0  0  0  0  0  0  0  0  0
    7.6392   -1.3315   -2.1064 O   0  0  0  0  0  0  0  0  0  0  0  0
    7.1618   -0.2003   -2.5091 N   0  0  0  0  0  0  0  0  0  0  0  0
    2.3526    1.5194   -0.4744 C   0  0  0  0  0  0  0  0  0  0  0  0
    1.2688    0.7935   -0.0471 C   0  0  0  0  0  0  0  0  0  0  0  0
    1.3199   -0.0180    1.0846 C   0  0  0  0  0  0  0  0  0  0  0  0
   -2.9595    0.7026    4.5601 H   0  0  0  0  0  0  0  0  0  0  0  0
   -4.0519   -0.1491    3.3591 H   0  0  0  0  0  0  0  0  0  0  0  0
   -3.5497    1.5477    3.1087 H   0  0  0  0  0  0  0  0  0  0  0  0
   -4.2816    0.1567    1.3530 H   0  0  0  0  0  0  0  0  0  0  0  0
   -4.7734   -2.3180   -2.1138 H   0  0  0  0  0  0  0  0  0  0  0  0
   -7.0496   -2.1203   -3.1650 H   0  0  0  0  0  0  0  0  0  0  0  0
   -8.4107   -0.1017   -2.7808 H   0  0  0  0  0  0  0  0  0  0  0  0
   -5.2731    1.4729   -0.3444 H   0  0  0  0  0  0  0  0  0  0  0  0
   -0.3318   -1.3437   -1.1453 H   0  0  0  0  0  0  0  0  0  0  0  0
    1.4723   -2.2170    4.1962 H   0  0  0  0  0  0  0  0  0  0  0  0
    3.4720   -0.9317    3.4615 H   0  0  0  0  0  0  0  0  0  0  0  0
    4.4748    0.5558    1.9534 H   0  0  0  0  0  0  0  0  0  0  0  0
    5.8678    2.1718   -2.4740 H   0  0  0  0  0  0  0  0  0  0  0  0
    6.1352   -0.3821    0.5666 H   0  0  0  0  0  0  0  0  0  0  0  0
    7.5916   -2.4469   -0.3000 H   0  0  0  0  0  0  0  0  0  0  0  0
    2.3341    2.1617   -1.3593 H   0  0  0  0  0  0  0  0  0  0  0  0
    0.3362    0.8713   -0.6234 H   0  0  0  0  0  0  0  0  0  0  0  0
  1  2  1  0
  2  3  1  0
  3  4  2  0
  4  5  1  0
  5  6  1  0
  6  7  2  0
  7  8  1  0
  8  9  2  0
  9 10  1  0
 10 11  1  0
 10 12  2  0
  5 13  2  0
 13 14  1  0
 13 15  1  0
 15 16  2  0
 16 17  1  0
 17 18  2  0
 18 19  1  0
 19 20  2  0
 20 21  1  0
 21 22  2  0
 22 23  1  0
 23 24  1  0
 24 25  2  0
 24 26  2  0
 24 27  1  0
 27 28  1  0
 28 29  1  0
 29 30  2  0
 30 31  1  0
 31 32  1  0
 23 33  2  0
 33 34  1  0
 34 35  2  0
 16  3  1  0
 35 17  1  0
 12  6  1  0
 35 21  1  0
 32 28  2  0
  1 36  1  0
  1 37  1  0
  1 38  1  0
  4 39  1  0
  7 40  1  0
  8 41  1  0
  9 42  1  0
 12 43  1  0
 15 44  1  0
 19 45  1  0
 20 46  1  0
 22 47  1  0
 27 48  1  0
 29 49  1  0
 30 50  1  0
 33 51  1  0
 34 52  1  0
M  END
$$$$
