@<TRIPOS>MOLECULE
*****
 70 74 0 0 0
SMALL
GASTEIGER

@<TRIPOS>ATOM
      1 C          -0.4182   -2.6890    0.0156 C.3     1  UNL1       -0.0449
      2 C          -0.1539   -1.3511    0.6839 C.3     1  UNL1        0.0405
      3 C           1.1595   -0.8598    0.1140 C.3     1  UNL1        0.0349
      4 N           1.4017    0.5103    0.3559 N.am    1  UNL1       -0.2789
      5 C           2.6518    1.1209    0.2263 C.2     1  UNL1        0.3138
      6 O           2.6658    2.3992    0.4849 O.2     1  UNL1       -0.2517
      7 N           3.8859    0.5833   -0.1370 N.am    1  UNL1       -0.2243
      8 C           5.0071    1.5037   -0.2216 C.ar    1  UNL1        0.0428
      9 C           5.7773    1.7303    0.8916 C.ar    1  UNL1       -0.0399
     10 C           6.8661    2.6111    0.8439 C.ar    1  UNL1       -0.0600
     11 C           7.1873    3.2687   -0.3203 C.ar    1  UNL1       -0.0616
     12 C           6.4113    3.0377   -1.4335 C.ar    1  UNL1       -0.0600
     13 C           5.3301    2.1611   -1.3810 C.ar    1  UNL1       -0.0399
     14 C           4.1457   -0.7880   -0.4037 C.ar    1  UNL1        0.0428
     15 C           3.9009   -1.3091   -1.6444 C.ar    1  UNL1       -0.0399
     16 C           4.1816   -2.6473   -1.9505 C.ar    1  UNL1       -0.0600
     17 C           4.7188   -3.4765   -0.9895 C.ar    1  UNL1       -0.0616
     18 C           4.9657   -2.9538    0.2593 C.ar    1  UNL1       -0.0600
     19 C           4.6874   -1.6289    0.5609 C.ar    1  UNL1       -0.0399
     20 C           0.2408    1.3213    0.7602 C.3     1  UNL1        0.0405
     21 C          -0.1132    1.1018    2.2052 C.3     1  UNL1       -0.0449
     22 C          -0.8928    0.8308   -0.1617 C.3     1  UNL1        0.0349
     23 N          -1.2694   -0.4736    0.3178 N.am    1  UNL1       -0.2789
     24 C          -2.5705   -0.9603    0.4531 C.2     1  UNL1        0.3138
     25 O          -2.6585   -2.1777    0.9168 O.2     1  UNL1       -0.2517
     26 N          -3.8040   -0.3710    0.1769 N.am    1  UNL1       -0.2243
     27 C          -4.9984   -1.1607    0.4152 C.ar    1  UNL1        0.0428
     28 C          -5.5357   -1.9580   -0.5679 C.ar    1  UNL1       -0.0399
     29 C          -6.6702   -2.7010   -0.3196 C.ar    1  UNL1       -0.0600
     30 C          -7.2462   -2.6269    0.9214 C.ar    1  UNL1       -0.0616
     31 C          -6.7003   -1.8197    1.9127 C.ar    1  UNL1       -0.0600
     32 C          -5.5557   -1.0698    1.6630 C.ar    1  UNL1       -0.0399
     33 C          -4.0567    0.9288   -0.3078 C.ar    1  UNL1        0.0428
     34 C          -4.0763    1.1527   -1.6862 C.ar    1  UNL1       -0.0399
     35 C          -4.3476    2.3903   -2.2278 C.ar    1  UNL1       -0.0600
     36 C          -4.6111    3.4538   -1.3786 C.ar    1  UNL1       -0.0616
     37 C          -4.6045    3.2860    0.0084 C.ar    1  UNL1       -0.0600
     38 C          -4.3271    2.0282    0.4933 C.ar    1  UNL1       -0.0399
     39 H          -0.7351   -3.4721    0.7521 H       1  UNL1        0.0248
     40 H          -1.1617   -2.6115   -0.8126 H       1  UNL1        0.0248
     41 H           0.4969   -3.1101   -0.4586 H       1  UNL1        0.0248
     42 H          -0.1227   -1.5143    1.7711 H       1  UNL1        0.0514
     43 H           1.1058   -1.0004   -1.0027 H       1  UNL1        0.0483
     44 H           1.9296   -1.5479    0.4724 H       1  UNL1        0.0483
     45 H           5.5289    1.2158    1.8105 H       1  UNL1        0.0636
     46 H           7.4679    2.7811    1.7333 H       1  UNL1        0.0618
     47 H           8.0366    3.9630   -0.3786 H       1  UNL1        0.0618
     48 H           6.6452    3.5452   -2.3642 H       1  UNL1        0.0618
     49 H           4.7092    1.9703   -2.2550 H       1  UNL1        0.0636
     50 H           3.4800   -0.6453   -2.3863 H       1  UNL1        0.0636
     51 H           3.9693   -3.0130   -2.9496 H       1  UNL1        0.0618
     52 H           4.9258   -4.5119   -1.2579 H       1  UNL1        0.0618
     53 H           5.3860   -3.6067    1.0076 H       1  UNL1        0.0618
     54 H           4.8717   -1.1962    1.5313 H       1  UNL1        0.0636
     55 H           0.3902    2.3819    0.5203 H       1  UNL1        0.0514
     56 H           0.6743    0.5325    2.7308 H       1  UNL1        0.0248
     57 H          -1.0926    0.5977    2.3499 H       1  UNL1        0.0248
     58 H          -0.2144    2.0852    2.7489 H       1  UNL1        0.0248
     59 H          -1.6836    1.5615   -0.2261 H       1  UNL1        0.0483
     60 H          -0.4057    0.6443   -1.1676 H       1  UNL1        0.0483
     61 H          -5.0691   -2.0037   -1.5374 H       1  UNL1        0.0636
     62 H          -7.0982   -3.3251   -1.0756 H       1  UNL1        0.0618
     63 H          -8.1481   -3.1994    1.1632 H       1  UNL1        0.0618
     64 H          -7.1377   -1.7461    2.8975 H       1  UNL1        0.0618
     65 H          -5.1442   -0.4514    2.4353 H       1  UNL1        0.0636
     66 H          -3.8694    0.3178   -2.3575 H       1  UNL1        0.0636
     67 H          -4.3501    2.5099   -3.3056 H       1  UNL1        0.0618
     68 H          -4.8281    4.4372   -1.7537 H       1  UNL1        0.0618
     69 H          -4.8137    4.1326    0.6610 H       1  UNL1        0.0618
     70 H          -4.3175    1.8813    1.5531 H       1  UNL1        0.0636
@<TRIPOS>BOND
     1     1     2    1
     2     2     3    1
     3     3     4    1
     4     4     5   am
     5     5     6    2
     6     5     7   am
     7     7     8    1
     8     8     9   ar
     9     9    10   ar
    10    10    11   ar
    11    11    12   ar
    12    12    13   ar
    13     7    14    1
    14    14    15   ar
    15    15    16   ar
    16    16    17   ar
    17    17    18   ar
    18    18    19   ar
    19     4    20    1
    20    20    21    1
    21    20    22    1
    22    22    23    1
    23    23    24   am
    24    24    25    2
    25    24    26   am
    26    26    27    1
    27    27    28   ar
    28    28    29   ar
    29    29    30   ar
    30    30    31   ar
    31    31    32   ar
    32    26    33    1
    33    33    34   ar
    34    34    35   ar
    35    35    36   ar
    36    36    37   ar
    37    37    38   ar
    38    23     2    1
    39    32    27   ar
    40    38    33   ar
    41    13     8   ar
    42    19    14   ar
    43     1    39    1
    44     1    40    1
    45     1    41    1
    46     2    42    1
    47     3    43    1
    48     3    44    1
    49     9    45    1
    50    10    46    1
    51    11    47    1
    52    12    48    1
    53    13    49    1
    54    15    50    1
    55    16    51    1
    56    17    52    1
    57    18    53    1
    58    19    54    1
    59    20    55    1
    60    21    56    1
    61    21    57    1
    62    21    58    1
    63    22    59    1
    64    22    60    1
    65    28    61    1
    66    29    62    1
    67    30    63    1
    68    31    64    1
    69    32    65    1
    70    34    66    1
    71    35    67    1
    72    36    68    1
    73    37    69    1
    74    38    70    1
