@<TRIPOS>MOLECULE
*****
 47 51 0 0 0
SMALL
GASTEIGER

@<TRIPOS>ATOM
      1 O           1.8386   -0.9440    0.0765 O.2     1  UNL1       -0.2746
      2 C           1.7003    0.1555    0.6627 C.2     1  UNL1        0.2275
      3 C           0.5566    0.3367    1.5993 C.3     1  UNL1        0.0780
      4 S          -0.4621   -1.1434    1.7087 S.3     1  UNL1       -0.0752
      5 C          -1.2428   -1.3766    0.1016 C.ar    1  UNL1        0.2100
      6 N          -0.7868   -2.0601   -0.9554 N.ar    1  UNL1       -0.1015
      7 N          -1.6646   -1.9852   -1.9380 N.ar    1  UNL1       -0.0222
      8 N          -2.6718   -1.2594   -1.5089 N.ar    1  UNL1       -0.0429
      9 N          -2.4327   -0.8815   -0.2728 N.ar    1  UNL1       -0.2168
     10 C          -3.3360   -0.0696    0.5057 C.3     1  UNL1        0.0602
     11 C          -4.1102    0.9332   -0.3272 C.3     1  UNL1       -0.0272
     12 C          -5.5595    0.7910    0.0569 C.3     1  UNL1       -0.0388
     13 C          -6.0768   -0.4618   -0.6056 C.3     1  UNL1       -0.0498
     14 C          -5.2701   -1.5704    0.0895 C.3     1  UNL1       -0.0480
     15 C          -4.4529   -0.8703    1.1393 C.3     1  UNL1       -0.0182
     16 C          -5.4099    0.2810    1.5012 C.3     1  UNL1       -0.0454
     17 N           2.6487    1.1669    0.3959 N.am    1  UNL1       -0.2842
     18 C           3.7420    0.9955   -0.4982 C.ar    1  UNL1        0.0441
     19 C           3.6280    1.2943   -1.8403 C.ar    1  UNL1       -0.0217
     20 C           4.6784    1.1339   -2.7236 C.ar    1  UNL1        0.0300
     21 N           5.8539    0.6710   -2.2639 N.ar    1  UNL1       -0.2549
     22 C           6.0169    0.3623   -0.9505 C.ar    1  UNL1        0.0727
     23 C           7.2463   -0.1074   -0.5419 C.ar    1  UNL1       -0.0357
     24 C           7.3932   -0.4152    0.7952 C.ar    1  UNL1       -0.0597
     25 C           6.3483   -0.2588    1.6898 C.ar    1  UNL1       -0.0610
     26 C           5.1281    0.2122    1.2596 C.ar    1  UNL1       -0.0508
     27 C           4.9649    0.5212   -0.0569 C.ar    1  UNL1        0.0216
     28 H          -0.0559    1.1763    1.1554 H       1  UNL1        0.0475
     29 H           0.8503    0.6623    2.5973 H       1  UNL1        0.0475
     30 H          -2.8253    0.4601    1.3452 H       1  UNL1        0.0549
     31 H          -3.7630    1.9704   -0.1554 H       1  UNL1        0.0288
     32 H          -4.0382    0.6623   -1.4132 H       1  UNL1        0.0288
     33 H          -6.1677    1.6657   -0.0356 H       1  UNL1        0.0302
     34 H          -7.1531   -0.5581   -0.3038 H       1  UNL1        0.0268
     35 H          -5.9560   -0.4798   -1.6893 H       1  UNL1        0.0268
     36 H          -5.9791   -2.2535    0.6261 H       1  UNL1        0.0269
     37 H          -4.6918   -2.1542   -0.6281 H       1  UNL1        0.0269
     38 H          -4.1675   -1.4641    1.9873 H       1  UNL1        0.0321
     39 H          -4.9079    1.0253    2.1355 H       1  UNL1        0.0271
     40 H          -6.3449   -0.1171    1.8974 H       1  UNL1        0.0271
     41 H           2.5259    2.0809    0.8890 H       1  UNL1        0.1548
     42 H           2.6930    1.6634   -2.2105 H       1  UNL1        0.0651
     43 H           4.5745    1.3759   -3.7925 H       1  UNL1        0.0830
     44 H           8.0703   -0.2324   -1.2393 H       1  UNL1        0.0639
     45 H           8.3481   -0.7919    1.1734 H       1  UNL1        0.0618
     46 H           6.4432   -0.4950    2.7458 H       1  UNL1        0.0618
     47 H           4.2773    0.3523    1.9236 H       1  UNL1        0.0625
@<TRIPOS>BOND
     1     1     2    2
     2     2     3    1
     3     3     4    1
     4     4     5    1
     5     5     6   ar
     6     6     7   ar
     7     7     8   ar
     8     8     9   ar
     9     9    10    1
    10    10    11    1
    11    11    12    1
    12    12    13    1
    13    13    14    1
    14    14    15    1
    15    15    16    1
    16     2    17   am
    17    17    18    1
    18    18    19   ar
    19    19    20   ar
    20    20    21   ar
    21    21    22   ar
    22    22    23   ar
    23    23    24   ar
    24    24    25   ar
    25    25    26   ar
    26    26    27   ar
    27     9     5   ar
    28    15    10    1
    29    27    18   ar
    30    16    12    1
    31    27    22   ar
    32     3    28    1
    33     3    29    1
    34    10    30    1
    35    11    31    1
    36    11    32    1
    37    12    33    1
    38    13    34    1
    39    13    35    1
    40    14    36    1
    41    14    37    1
    42    15    38    1
    43    16    39    1
    44    16    40    1
    45    17    41    1
    46    19    42    1
    47    20    43    1
    48    23    44    1
    49    24    45    1
    50    25    46    1
    51    26    47    1
