@<TRIPOS>MOLECULE
*****
 39 38 0 0 0
SMALL
GASTEIGER

@<TRIPOS>ATOM
      1 C          -3.8581   -2.1738    0.3965 C.3     1  UNL1       -0.0440
      2 C          -3.7745   -0.7054    0.0994 C.2     1  UNL1       -0.0796
      3 C          -4.1586   -0.1050   -1.1976 C.3     1  UNL1       -0.0440
      4 C          -3.3289    0.0732    1.0700 C.2     1  UNL1       -0.0850
      5 C          -3.1521    1.5317    1.0384 C.3     1  UNL1       -0.0308
      6 C          -1.7016    1.8805    1.2889 C.3     1  UNL1       -0.0285
      7 C          -0.7889    1.2997    0.2807 C.2     1  UNL1       -0.0741
      8 C          -0.9055    1.6250   -1.1615 C.3     1  UNL1       -0.0437
      9 C           0.1936    0.4542    0.5751 C.2     1  UNL1       -0.0591
     10 C           1.1667   -0.1903   -0.3411 C.3     1  UNL1        0.0775
     11 O           2.4367    0.2150    0.0733 O.3     1  UNL1       -0.2823
     12 P           3.5887   -0.4934   -0.9412 P.3     1  UNL1        0.4837
     13 O           3.6430   -1.9985   -0.7327 O.2     1  UNL1       -0.2269
     14 O           3.2123   -0.1553   -2.5477 O.3     1  UNL1       -0.3022
     15 O           5.1217    0.0961   -0.5621 O.3     1  UNL1       -0.1862
     16 P           5.7985   -0.8867    0.6414 P.3     1  UNL1        0.4808
     17 O           5.4674   -2.3513    0.4106 O.2     1  UNL1       -0.2271
     18 O           5.2848   -0.3922    2.1885 O.3     1  UNL1       -0.3023
     19 O           7.4799   -0.7196    0.5854 O.3     1  UNL1       -0.3023
     20 H          -4.5583   -2.2829    1.2425 H       1  UNL1        0.0274
     21 H          -4.2290   -2.7368   -0.4816 H       1  UNL1        0.0274
     22 H          -2.8486   -2.5509    0.7129 H       1  UNL1        0.0274
     23 H          -3.2232    0.0048   -1.8032 H       1  UNL1        0.0274
     24 H          -4.8047   -0.8046   -1.7845 H       1  UNL1        0.0274
     25 H          -4.6560    0.8742   -1.0946 H       1  UNL1        0.0274
     26 H          -3.0289   -0.2874    2.0442 H       1  UNL1        0.0572
     27 H          -3.7178    2.0130    1.8841 H       1  UNL1        0.0310
     28 H          -3.4763    2.0173    0.1144 H       1  UNL1        0.0310
     29 H          -1.4098    1.4453    2.2874 H       1  UNL1        0.0313
     30 H          -1.5642    2.9791    1.4019 H       1  UNL1        0.0313
     31 H          -0.8473    0.7689   -1.8353 H       1  UNL1        0.0274
     32 H          -1.9046    2.1006   -1.3717 H       1  UNL1        0.0274
     33 H          -0.1192    2.3487   -1.4360 H       1  UNL1        0.0274
     34 H           0.3399    0.1679    1.6235 H       1  UNL1        0.0594
     35 H           1.1351   -1.2870   -0.2417 H       1  UNL1        0.0610
     36 H           1.0439    0.1448   -1.3863 H       1  UNL1        0.0610
     37 H           4.0188    0.2452   -2.9918 H       1  UNL1        0.2220
     38 H           4.3034   -0.5363    2.2639 H       1  UNL1        0.2220
     39 H           7.8215   -0.5658   -0.3122 H       1  UNL1        0.2220
@<TRIPOS>BOND
     1     1     2    1
     2     2     3    1
     3     2     4    2
     4     4     5    1
     5     5     6    1
     6     6     7    1
     7     7     8    1
     8     7     9    2
     9     9    10    1
    10    10    11    1
    11    12    11    1
    12    12    13    2
    13    12    14    1
    14    12    15    1
    15    15    16    1
    16    16    17    2
    17    16    18    1
    18    16    19    1
    19     1    20    1
    20     1    21    1
    21     1    22    1
    22     3    23    1
    23     3    24    1
    24     3    25    1
    25     4    26    1
    26     5    27    1
    27     5    28    1
    28     6    29    1
    29     6    30    1
    30     8    31    1
    31     8    32    1
    32     8    33    1
    33     9    34    1
    34    10    35    1
    35    10    36    1
    36    14    37    1
    37    18    38    1
    38    19    39    1
