@<TRIPOS>MOLECULE
*****
 65 67 0 0 0
SMALL
GASTEIGER

@<TRIPOS>ATOM
      1 C          -5.3691    0.8824    0.7553 C.3     1  UNL1        0.0916
      2 C          -5.4061    1.9043    1.8457 C.3     1  UNL1       -0.0266
      3 C          -5.6800    1.2555    3.1684 C.3     1  UNL1       -0.0628
      4 O          -5.1151    1.5258   -0.4499 O.3     1  UNL1       -0.3610
      5 C          -4.1332    0.8091   -1.1286 C.3     1  UNL1        0.1350
      6 C          -4.2979    0.8645   -2.6255 C.3     1  UNL1       -0.0296
      7 C          -4.0947   -0.5516   -0.5520 C.3     1  UNL1        0.1649
      8 O          -4.9409   -1.5024   -1.0485 O.3     1  UNL1       -0.4555
      9 C          -4.6172   -2.7178   -1.5972 C.2     1  UNL1        0.3044
     10 C          -5.7685   -3.5307   -2.0484 C.3     1  UNL1        0.0332
     11 O          -3.4363   -3.1045   -1.7053 O.2     1  UNL1       -0.2512
     12 C          -4.3244   -0.1822    0.9207 C.3     1  UNL1        0.1329
     13 C          -4.8112   -1.3824    1.6916 C.3     1  UNL1       -0.0297
     14 O          -3.1480    0.2842    1.4138 O.3     1  UNL1       -0.3574
     15 C          -2.3583    1.0630    0.6380 C.3     1  UNL1        0.1067
     16 C          -0.9555    0.5276    0.5213 C.2     1  UNL1       -0.0531
     17 C           0.2341    1.1483    0.4170 C.2     1  UNL1       -0.0632
     18 C           1.5711    0.4831    0.3068 C.2     1  UNL1       -0.0620
     19 C           2.3869    1.6034    0.2296 C.2     1  UNL1       -0.0617
     20 C           3.6715    0.7232    0.1253 C.2     1  UNL1       -0.0583
     21 C           4.9552    1.1451    0.0119 C.2     1  UNL1       -0.0188
     22 C           6.3821    0.8782   -0.1090 C.ar    1  UNL1        0.1383
     23 C           6.9121   -0.3827   -0.1485 C.ar    1  UNL1        0.0337
     24 C           6.1486   -1.6325   -0.0770 C.3     1  UNL1       -0.0327
     25 C           8.2843   -0.3949   -0.2660 C.ar    1  UNL1        0.1333
     26 O           8.9665   -1.6279   -0.3186 O.3     1  UNL1       -0.4945
     27 C          10.3534   -1.7091   -0.4372 C.3     1  UNL1        0.0788
     28 C           8.9769    0.7856   -0.3308 C.ar    1  UNL1        0.0649
     29 C           8.3700    2.0124   -0.2846 C.ar    1  UNL1        0.3407
     30 O           9.0035    3.0955   -0.3441 O.2     1  UNL1       -0.2451
     31 O           7.0931    1.9681   -0.1750 O.2     1  UNL1       -0.4223
     32 C          -2.8186    1.4705   -0.7003 C.3     1  UNL1        0.1170
     33 O          -2.9046    2.8532   -0.8502 O.3     1  UNL1       -0.3859
     34 H          -6.3696    0.4155    0.6736 H       1  UNL1        0.0626
     35 H          -6.2507    2.5944    1.6032 H       1  UNL1        0.0288
     36 H          -4.4565    2.4804    1.8769 H       1  UNL1        0.0288
     37 H          -6.6739    0.7486    3.1207 H       1  UNL1        0.0231
     38 H          -5.6704    2.0607    3.9328 H       1  UNL1        0.0231
     39 H          -4.9243    0.5139    3.4435 H       1  UNL1        0.0231
     40 H          -3.5891    1.6626   -2.9940 H       1  UNL1        0.0259
     41 H          -5.2903    1.2109   -2.9589 H       1  UNL1        0.0259
     42 H          -3.9638   -0.0682   -3.1391 H       1  UNL1        0.0259
     43 H          -3.0519   -0.9356   -0.6652 H       1  UNL1        0.0794
     44 H          -5.4898   -4.4198   -2.6274 H       1  UNL1        0.0342
     45 H          -6.3395   -2.8621   -2.7576 H       1  UNL1        0.0342
     46 H          -6.4779   -3.8115   -1.2737 H       1  UNL1        0.0342
     47 H          -5.8375   -1.2434    2.0922 H       1  UNL1        0.0259
     48 H          -4.7682   -2.3096    1.0508 H       1  UNL1        0.0259
     49 H          -4.1158   -1.5483    2.5395 H       1  UNL1        0.0259
     50 H          -2.1939    2.0101    1.2382 H       1  UNL1        0.0668
     51 H          -0.9561   -0.5630    0.5261 H       1  UNL1        0.0598
     52 H          -0.1003    2.2075    0.4396 H       1  UNL1        0.0615
     53 H           1.3176   -0.6498    0.3361 H       1  UNL1        0.0617
     54 H           2.6428    0.6729    0.2141 H       1  UNL1        0.0618
     55 H           4.1701   -0.3245    0.0900 H       1  UNL1        0.0619
     56 H           4.6753    2.2346    0.0276 H       1  UNL1        0.0654
     57 H           5.4979   -1.8547   -0.9320 H       1  UNL1        0.0280
     58 H           5.6736   -1.8245    0.9051 H       1  UNL1        0.0280
     59 H           6.9345   -2.4575   -0.1394 H       1  UNL1        0.0280
     60 H          10.6073   -2.7784   -0.6200 H       1  UNL1        0.0660
     61 H          10.7464   -1.0610   -1.2352 H       1  UNL1        0.0660
     62 H          10.7957   -1.4530    0.5613 H       1  UNL1        0.0660
     63 H          10.0382    0.6934   -0.4213 H       1  UNL1        0.0726
     64 H          -2.0913    1.1489   -1.5032 H       1  UNL1        0.0653
     65 H          -3.6185    3.1893   -0.2530 H       1  UNL1        0.2100
@<TRIPOS>BOND
     1     1     2    1
     2     2     3    1
     3     1     4    1
     4     4     5    1
     5     5     6    1
     6     5     7    1
     7     7     8    1
     8     8     9    1
     9     9    10    1
    10     9    11    2
    11     7    12    1
    12    12    13    1
    13    12    14    1
    14    14    15    1
    15    15    16    1
    16    16    17    2
    17    17    18    1
    18    18    19    2
    19    19    20    1
    20    20    21    2
    21    21    22    1
    22    22    23   ar
    23    23    24    1
    24    23    25   ar
    25    25    26    1
    26    26    27    1
    27    25    28   ar
    28    28    29   ar
    29    29    30    2
    30    29    31   ar
    31    15    32    1
    32    32    33    1
    33    12     1    1
    34    31    22   ar
    35    32     5    1
    36     1    34    1
    37     2    35    1
    38     2    36    1
    39     3    37    1
    40     3    38    1
    41     3    39    1
    42     6    40    1
    43     6    41    1
    44     6    42    1
    45     7    43    1
    46    10    44    1
    47    10    45    1
    48    10    46    1
    49    13    47    1
    50    13    48    1
    51    13    49    1
    52    15    50    1
    53    16    51    1
    54    17    52    1
    55    18    53    1
    56    19    54    1
    57    20    55    1
    58    21    56    1
    59    24    57    1
    60    24    58    1
    61    24    59    1
    62    27    60    1
    63    27    61    1
    64    27    62    1
    65    28    63    1
    66    32    64    1
    67    33    65    1
