@<TRIPOS>MOLECULE
*****
 72 76 0 0 0
SMALL
GASTEIGER

@<TRIPOS>ATOM
      1 C          -6.7774   -3.0142    0.8477 C.3     1  UNL1       -0.0219
      2 C          -6.7784   -1.6215    0.3141 C.ar    1  UNL1        0.0485
      3 N          -7.9489   -1.1268   -0.1217 N.ar    1  UNL1       -0.2371
      4 C          -8.0533    0.1161   -0.6176 C.ar    1  UNL1        0.1199
      5 N          -9.2959    0.6461   -1.0816 N.pl3   1  UNL1       -0.3430
      6 C          -6.9011    0.8639   -0.6591 C.ar    1  UNL1        0.0200
      7 C          -5.6579    0.3788   -0.2111 C.ar    1  UNL1        0.1301
      8 C          -5.5825   -0.9246    0.3010 C.ar    1  UNL1        0.0324
      9 C          -4.3710   -1.5648    0.7876 C.3     1  UNL1        0.0423
     10 N          -3.2608   -1.4818   -0.2009 N.am    1  UNL1       -0.3070
     11 C          -2.0155   -1.9987    0.1464 C.2     1  UNL1        0.2473
     12 O          -2.1729   -2.4813    1.3676 O.2     1  UNL1       -0.2701
     13 C          -0.6745   -2.1371   -0.4345 C.ar    1  UNL1        0.0741
     14 C           0.1470   -3.2571   -0.1290 C.ar    1  UNL1        0.0615
     15 N           1.2870   -3.0561   -0.7448 N.ar    1  UNL1       -0.1786
     16 N           1.2373   -1.8757   -1.4229 N.ar    1  UNL1       -0.2662
     17 C           0.0627   -1.2983   -1.2580 C.ar    1  UNL1        0.0380
     18 C           2.4693   -1.4372   -2.1274 C.3     1  UNL1        0.0699
     19 C           3.4354   -1.0234   -1.0746 C.ar    1  UNL1        0.0155
     20 C           4.1685   -1.9977   -0.4592 C.ar    1  UNL1       -0.0530
     21 C           5.0737   -1.7250    0.5403 C.ar    1  UNL1       -0.0563
     22 C           5.2608   -0.4419    0.9462 C.ar    1  UNL1       -0.0227
     23 C           6.2243   -0.0702    2.0273 C.3     1  UNL1        0.0666
     24 N           7.5236    0.2071    1.4510 N.ar    1  UNL1       -0.2671
     25 C           8.5285   -0.6386    1.2334 C.ar    1  UNL1        0.0258
     26 C           9.5643    0.0652    0.6721 C.ar    1  UNL1       -0.0242
     27 C           9.1270    1.3685    0.5669 C.ar    1  UNL1        0.0494
     28 N           7.8878    1.4001    1.0513 N.ar    1  UNL1       -0.1794
     29 C           4.5514    0.5741    0.3620 C.ar    1  UNL1       -0.0147
     30 C           3.6192    0.3089   -0.6651 C.ar    1  UNL1        0.1257
     31 O           2.9233    1.2273   -1.2536 O.3     1  UNL1       -0.4916
     32 C           2.2163    2.1605   -1.8514 C.3     1  UNL1        0.0899
     33 C           1.4805    3.0413   -0.8097 C.3     1  UNL1       -0.0152
     34 C           0.4588    2.1470   -0.1132 C.3     1  UNL1       -0.0317
     35 C          -0.3225    2.8614    0.9302 C.2     1  UNL1       -0.0877
     36 C          -1.6177    3.0332    0.9583 C.2     1  UNL1       -0.0847
     37 C          -2.6186    2.5708   -0.0233 C.3     1  UNL1       -0.0004
     38 C          -3.6294    1.6343    0.6321 C.3     1  UNL1        0.0930
     39 O          -4.5807    1.2036   -0.2981 O.3     1  UNL1       -0.4912
     40 H          -6.3012   -3.0657    1.8515 H       1  UNL1        0.0293
     41 H          -6.3042   -3.6564    0.0962 H       1  UNL1        0.0293
     42 H          -7.8130   -3.3833    0.9844 H       1  UNL1        0.0293
     43 H          -9.6593    0.2508   -1.9759 H       1  UNL1        0.1437
     44 H          -9.8364    1.3824   -0.5866 H       1  UNL1        0.1437
     45 H          -7.0279    1.8653   -1.0747 H       1  UNL1        0.0689
     46 H          -4.5400   -2.6794    0.8938 H       1  UNL1        0.0513
     47 H          -4.0417   -1.2501    1.7927 H       1  UNL1        0.0513
     48 H          -3.5819   -1.0314   -1.0497 H       1  UNL1        0.1493
     49 H          -0.1108   -4.1310    0.4981 H       1  UNL1        0.0855
     50 H          -0.3058   -0.3064   -1.7174 H       1  UNL1        0.0834
     51 H           2.3770   -0.7849   -2.9634 H       1  UNL1        0.0560
     52 H           2.9671   -2.3602   -2.5943 H       1  UNL1        0.0560
     53 H           4.0699   -3.0587   -0.7350 H       1  UNL1        0.0622
     54 H           5.6491   -2.4961    1.0217 H       1  UNL1        0.0621
     55 H           6.3362   -0.9072    2.7536 H       1  UNL1        0.0558
     56 H           5.8204    0.7999    2.5819 H       1  UNL1        0.0558
     57 H           8.5139   -1.7090    1.4678 H       1  UNL1        0.0826
     58 H          10.5121   -0.3530    0.3862 H       1  UNL1        0.0648
     59 H           9.7022    2.1853    0.1635 H       1  UNL1        0.0848
     60 H           4.7430    1.5941    0.7297 H       1  UNL1        0.0657
     61 H           1.3791    1.8136   -2.5314 H       1  UNL1        0.0696
     62 H           2.7941    2.8578   -2.5315 H       1  UNL1        0.0696
     63 H           0.9929    3.8961   -1.2774 H       1  UNL1        0.0301
     64 H           2.2541    3.3895   -0.0993 H       1  UNL1        0.0301
     65 H          -0.2533    1.7406   -0.8696 H       1  UNL1        0.0308
     66 H           1.0157    1.2759    0.2963 H       1  UNL1        0.0308
     67 H           0.2986    3.2765    1.7518 H       1  UNL1        0.0569
     68 H          -1.9901    3.6035    1.8449 H       1  UNL1        0.0570
     69 H          -3.1774    3.4486   -0.4729 H       1  UNL1        0.0340
     70 H          -2.1721    2.0097   -0.8347 H       1  UNL1        0.0340
     71 H          -3.1389    0.8631    1.2273 H       1  UNL1        0.0699
     72 H          -4.1590    2.2838    1.3935 H       1  UNL1        0.0699
@<TRIPOS>BOND
     1     1     2    1
     2     2     3   ar
     3     3     4   ar
     4     4     5    1
     5     4     6   ar
     6     6     7   ar
     7     7     8   ar
     8     8     9    1
     9     9    10    1
    10    10    11   am
    11    11    12    2
    12    11    13    1
    13    13    14   ar
    14    14    15   ar
    15    15    16   ar
    16    16    17   ar
    17    16    18    1
    18    18    19    1
    19    19    20   ar
    20    20    21   ar
    21    21    22   ar
    22    22    23    1
    23    23    24    1
    24    24    25   ar
    25    25    26   ar
    26    26    27   ar
    27    27    28   ar
    28    22    29   ar
    29    29    30   ar
    30    30    31    1
    31    31    32    1
    32    32    33    1
    33    33    34    1
    34    34    35    1
    35    35    36    2
    36    36    37    1
    37    37    38    1
    38    38    39    1
    39     8     2   ar
    40    17    13   ar
    41    30    19   ar
    42    39     7    1
    43    28    24   ar
    44     1    40    1
    45     1    41    1
    46     1    42    1
    47     5    43    1
    48     5    44    1
    49     6    45    1
    50     9    46    1
    51     9    47    1
    52    10    48    1
    53    14    49    1
    54    17    50    1
    55    18    51    1
    56    18    52    1
    57    20    53    1
    58    21    54    1
    59    23    55    1
    60    23    56    1
    61    25    57    1
    62    26    58    1
    63    27    59    1
    64    29    60    1
    65    32    61    1
    66    32    62    1
    67    33    63    1
    68    33    64    1
    69    34    65    1
    70    34    66    1
    71    35    67    1
    72    36    68    1
    73    37    69    1
    74    37    70    1
    75    38    71    1
    76    38    72    1
