
     RDKit          3D

 72 76  0  0  0  0  0  0  0  0999 V2000
   -6.7774   -3.0142    0.8477 C   0  0  0  0  0  0  0  0  0  0  0  0
   -6.7784   -1.6215    0.3141 C   0  0  0  0  0  0  0  0  0  0  0  0
   -7.9489   -1.1268   -0.1217 N   0  0  0  0  0  0  0  0  0  0  0  0
   -8.0533    0.1161   -0.6176 C   0  0  0  0  0  0  0  0  0  0  0  0
   -9.2959    0.6461   -1.0816 N   0  0  0  0  0  0  0  0  0  0  0  0
   -6.9011    0.8639   -0.6591 C   0  0  0  0  0  0  0  0  0  0  0  0
   -5.6579    0.3788   -0.2111 C   0  0  0  0  0  0  0  0  0  0  0  0
   -5.5825   -0.9246    0.3010 C   0  0  0  0  0  0  0  0  0  0  0  0
   -4.3710   -1.5648    0.7876 C   0  0  0  0  0  0  0  0  0  0  0  0
   -3.2608   -1.4818   -0.2009 N   0  0  0  0  0  0  0  0  0  0  0  0
   -2.0155   -1.9987    0.1464 C   0  0  0  0  0  0  0  0  0  0  0  0
   -2.1729   -2.4813    1.3676 O   0  0  0  0  0  0  0  0  0  0  0  0
   -0.6745   -2.1371   -0.4345 C   0  0  0  0  0  0  0  0  0  0  0  0
    0.1470   -3.2571   -0.1290 C   0  0  0  0  0  0  0  0  0  0  0  0
    1.2870   -3.0561   -0.7448 N   0  0  0  0  0  0  0  0  0  0  0  0
    1.2373   -1.8757   -1.4229 N   0  0  0  0  0  0  0  0  0  0  0  0
    0.0627   -1.2983   -1.2580 C   0  0  0  0  0  0  0  0  0  0  0  0
    2.4693   -1.4372   -2.1274 C   0  0  0  0  0  0  0  0  0  0  0  0
    3.4354   -1.0234   -1.0746 C   0  0  0  0  0  0  0  0  0  0  0  0
    4.1685   -1.9977   -0.4592 C   0  0  0  0  0  0  0  0  0  0  0  0
    5.0737   -1.7250    0.5403 C   0  0  0  0  0  0  0  0  0  0  0  0
    5.2608   -0.4419    0.9462 C   0  0  0  0  0  0  0  0  0  0  0  0
    6.2243   -0.0702    2.0273 C   0  0  0  0  0  0  0  0  0  0  0  0
    7.5236    0.2071    1.4510 N   0  0  0  0  0  0  0  0  0  0  0  0
    8.5285   -0.6386    1.2334 C   0  0  0  0  0  0  0  0  0  0  0  0
    9.5643    0.0652    0.6721 C   0  0  0  0  0  0  0  0  0  0  0  0
    9.1270    1.3685    0.5669 C   0  0  0  0  0  0  0  0  0  0  0  0
    7.8878    1.4001    1.0513 N   0  0  0  0  0  0  0  0  0  0  0  0
    4.5514    0.5741    0.3620 C   0  0  0  0  0  0  0  0  0  0  0  0
    3.6192    0.3089   -0.6651 C   0  0  0  0  0  0  0  0  0  0  0  0
    2.9233    1.2273   -1.2536 O   0  0  0  0  0  0  0  0  0  0  0  0
    2.2163    2.1605   -1.8514 C   0  0  0  0  0  0  0  0  0  0  0  0
    1.4805    3.0413   -0.8097 C   0  0  0  0  0  0  0  0  0  0  0  0
    0.4588    2.1470   -0.1132 C   0  0  0  0  0  0  0  0  0  0  0  0
   -0.3225    2.8614    0.9302 C   0  0  0  0  0  0  0  0  0  0  0  0
   -1.6177    3.0332    0.9583 C   0  0  0  0  0  0  0  0  0  0  0  0
   -2.6186    2.5708   -0.0233 C   0  0  0  0  0  0  0  0  0  0  0  0
   -3.6294    1.6343    0.6321 C   0  0  0  0  0  0  0  0  0  0  0  0
   -4.5807    1.2036   -0.2981 O   0  0  0  0  0  0  0  0  0  0  0  0
   -6.3012   -3.0657    1.8515 H   0  0  0  0  0  0  0  0  0  0  0  0
   -6.3042   -3.6564    0.0962 H   0  0  0  0  0  0  0  0  0  0  0  0
   -7.8130   -3.3833    0.9844 H   0  0  0  0  0  0  0  0  0  0  0  0
   -9.6593    0.2508   -1.9759 H   0  0  0  0  0  0  0  0  0  0  0  0
   -9.8364    1.3824   -0.5866 H   0  0  0  0  0  0  0  0  0  0  0  0
   -7.0279    1.8653   -1.0747 H   0  0  0  0  0  0  0  0  0  0  0  0
   -4.5400   -2.6794    0.8938 H   0  0  0  0  0  0  0  0  0  0  0  0
   -4.0417   -1.2501    1.7927 H   0  0  0  0  0  0  0  0  0  0  0  0
   -3.5819   -1.0314   -1.0497 H   0  0  0  0  0  0  0  0  0  0  0  0
   -0.1108   -4.1310    0.4981 H   0  0  0  0  0  0  0  0  0  0  0  0
   -0.3058   -0.3064   -1.7174 H   0  0  0  0  0  0  0  0  0  0  0  0
    2.3770   -0.7849   -2.9634 H   0  0  0  0  0  0  0  0  0  0  0  0
    2.9671   -2.3602   -2.5943 H   0  0  0  0  0  0  0  0  0  0  0  0
    4.0699   -3.0587   -0.7350 H   0  0  0  0  0  0  0  0  0  0  0  0
    5.6491   -2.4961    1.0217 H   0  0  0  0  0  0  0  0  0  0  0  0
    6.3362   -0.9072    2.7536 H   0  0  0  0  0  0  0  0  0  0  0  0
    5.8204    0.7999    2.5819 H   0  0  0  0  0  0  0  0  0  0  0  0
    8.5139   -1.7090    1.4678 H   0  0  0  0  0  0  0  0  0  0  0  0
   10.5121   -0.3530    0.3862 H   0  0  0  0  0  0  0  0  0  0  0  0
    9.7022    2.1853    0.1635 H   0  0  0  0  0  0  0  0  0  0  0  0
    4.7430    1.5941    0.7297 H   0  0  0  0  0  0  0  0  0  0  0  0
    1.3791    1.8136   -2.5314 H   0  0  0  0  0  0  0  0  0  0  0  0
    2.7941    2.8578   -2.5315 H   0  0  0  0  0  0  0  0  0  0  0  0
    0.9929    3.8961   -1.2774 H   0  0  0  0  0  0  0  0  0  0  0  0
    2.2541    3.3895   -0.0993 H   0  0  0  0  0  0  0  0  0  0  0  0
   -0.2533    1.7406   -0.8696 H   0  0  0  0  0  0  0  0  0  0  0  0
    1.0157    1.2759    0.2963 H   0  0  0  0  0  0  0  0  0  0  0  0
    0.2986    3.2765    1.7518 H   0  0  0  0  0  0  0  0  0  0  0  0
   -1.9901    3.6035    1.8449 H   0  0  0  0  0  0  0  0  0  0  0  0
   -3.1774    3.4486   -0.4729 H   0  0  0  0  0  0  0  0  0  0  0  0
   -2.1721    2.0097   -0.8347 H   0  0  0  0  0  0  0  0  0  0  0  0
   -3.1389    0.8631    1.2273 H   0  0  0  0  0  0  0  0  0  0  0  0
   -4.1590    2.2838    1.3935 H   0  0  0  0  0  0  0  0  0  0  0  0
  1  2  1  0
  2  3  2  0
  3  4  1  0
  4  5  1  0
  4  6  2  0
  6  7  1  0
  7  8  2  0
  8  9  1  0
  9 10  1  0
 10 11  1  0
 11 12  2  0
 11 13  1  0
 13 14  1  0
 14 15  2  0
 15 16  1  0
 16 17  1  0
 16 18  1  0
 18 19  1  0
 19 20  2  0
 20 21  1  0
 21 22  2  0
 22 23  1  0
 23 24  1  0
 24 25  1  0
 25 26  2  0
 26 27  1  0
 27 28  2  0
 22 29  1  0
 29 30  2  0
 30 31  1  0
 31 32  1  0
 32 33  1  0
 33 34  1  0
 34 35  1  0
 35 36  2  0
 36 37  1  0
 37 38  1  0
 38 39  1  0
  8  2  1  0
 17 13  2  0
 30 19  1  0
 39  7  1  0
 28 24  1  0
  1 40  1  0
  1 41  1  0
  1 42  1  0
  5 43  1  0
  5 44  1  0
  6 45  1  0
  9 46  1  0
  9 47  1  0
 10 48  1  0
 14 49  1  0
 17 50  1  0
 18 51  1  0
 18 52  1  0
 20 53  1  0
 21 54  1  0
 23 55  1  0
 23 56  1  0
 25 57  1  0
 26 58  1  0
 27 59  1  0
 29 60  1  0
 32 61  1  0
 32 62  1  0
 33 63  1  0
 33 64  1  0
 34 65  1  0
 34 66  1  0
 35 67  1  0
 36 68  1  0
 37 69  1  0
 37 70  1  0
 38 71  1  0
 38 72  1  0
M  END
$$$$
