
     RDKit          3D

 43 46  0  0  0  0  0  0  0  0999 V2000
    0.2752    1.2628   -2.9420 O   0  0  0  0  0  0  0  0  0  0  0  0
    0.1829    0.5545   -1.8904 C   0  0  0  0  0  0  0  0  0  0  0  0
   -1.1420    0.1427   -1.5613 N   0  0  0  0  0  0  0  0  0  0  0  0
   -2.2913    0.4869   -2.3351 C   0  0  0  0  0  0  0  0  0  0  0  0
   -3.3467   -0.5141   -2.6738 C   0  0  0  0  0  0  0  0  0  0  0  0
   -3.6473    0.6781   -1.7858 C   0  0  0  0  0  0  0  0  0  0  0  0
   -4.0463    0.3627   -0.4180 C   0  0  0  0  0  0  0  0  0  0  0  0
   -3.7806   -0.8100    0.2535 C   0  0  0  0  0  0  0  0  0  0  0  0
   -4.1999   -1.0085    1.5772 C   0  0  0  0  0  0  0  0  0  0  0  0
   -4.8947   -0.0348    2.2545 C   0  0  0  0  0  0  0  0  0  0  0  0
   -5.1727    1.1499    1.6003 C   0  0  0  0  0  0  0  0  0  0  0  0
   -4.7556    1.3292    0.3051 C   0  0  0  0  0  0  0  0  0  0  0  0
    1.3423    0.2330   -1.1472 N   0  0  0  0  0  0  0  0  0  0  0  0
    1.2848   -0.5632    0.0533 C   0  0  0  0  0  0  0  0  0  0  0  0
    2.3327   -0.2523    1.0682 C   0  0  0  0  0  0  0  0  0  0  0  0
    3.6414    0.2227    0.5188 C   0  0  0  0  0  0  0  0  0  0  0  0
    4.8037   -0.3690    1.2126 C   0  0  0  0  0  0  0  0  0  0  0  0
    5.7543    0.3351    1.8435 N   0  0  0  0  0  0  0  0  0  0  0  0
    6.6231   -0.5517    2.3380 C   0  0  0  0  0  0  0  0  0  0  0  0
    6.2027   -1.7584    2.0110 O   0  0  0  0  0  0  0  0  0  0  0  0
    5.1007   -1.6948    1.3268 N   0  0  0  0  0  0  0  0  0  0  0  0
    3.7340   -0.1168   -0.9721 C   0  0  0  0  0  0  0  0  0  0  0  0
    2.6204    0.7207   -1.6183 C   0  0  0  0  0  0  0  0  0  0  0  0
   -1.2519   -0.4377   -0.7081 H   0  0  0  0  0  0  0  0  0  0  0  0
   -2.0287    1.1396   -3.2233 H   0  0  0  0  0  0  0  0  0  0  0  0
   -3.7939   -0.5329   -3.6933 H   0  0  0  0  0  0  0  0  0  0  0  0
   -3.2063   -1.5134   -2.2643 H   0  0  0  0  0  0  0  0  0  0  0  0
   -4.2406    1.5145   -2.2629 H   0  0  0  0  0  0  0  0  0  0  0  0
   -3.2450   -1.5961   -0.2500 H   0  0  0  0  0  0  0  0  0  0  0  0
   -3.9696   -1.9412    2.0614 H   0  0  0  0  0  0  0  0  0  0  0  0
   -5.2101   -0.2117    3.2836 H   0  0  0  0  0  0  0  0  0  0  0  0
   -5.7206    1.8948    2.1601 H   0  0  0  0  0  0  0  0  0  0  0  0
   -4.9901    2.2687   -0.1763 H   0  0  0  0  0  0  0  0  0  0  0  0
    1.3233   -1.6565   -0.2201 H   0  0  0  0  0  0  0  0  0  0  0  0
    0.2921   -0.4325    0.5810 H   0  0  0  0  0  0  0  0  0  0  0  0
    2.5529   -1.2178    1.6122 H   0  0  0  0  0  0  0  0  0  0  0  0
    1.9534    0.4247    1.8708 H   0  0  0  0  0  0  0  0  0  0  0  0
    3.6684    1.3179    0.6143 H   0  0  0  0  0  0  0  0  0  0  0  0
    7.5043   -0.2803    2.9023 H   0  0  0  0  0  0  0  0  0  0  0  0
    4.7026    0.2280   -1.3465 H   0  0  0  0  0  0  0  0  0  0  0  0
    3.5740   -1.1875   -1.1289 H   0  0  0  0  0  0  0  0  0  0  0  0
    2.7180    0.6690   -2.7212 H   0  0  0  0  0  0  0  0  0  0  0  0
    2.7468    1.7457   -1.2143 H   0  0  0  0  0  0  0  0  0  0  0  0
  1  2  2  0
  2  3  1  0
  3  4  1  0
  4  5  1  0
  5  6  1  0
  6  7  1  0
  7  8  2  0
  8  9  1  0
  9 10  2  0
 10 11  1  0
 11 12  2  0
  2 13  1  0
 13 14  1  0
 14 15  1  0
 15 16  1  0
 16 17  1  0
 17 18  1  0
 18 19  2  0
 19 20  1  0
 20 21  1  0
 16 22  1  0
 22 23  1  0
  6  4  1  0
 12  7  1  0
 23 13  1  0
 21 17  2  0
  3 24  1  0
  4 25  1  0
  5 26  1  0
  5 27  1  0
  6 28  1  0
  8 29  1  0
  9 30  1  0
 10 31  1  0
 11 32  1  0
 12 33  1  0
 14 34  1  0
 14 35  1  0
 15 36  1  0
 15 37  1  0
 16 38  1  0
 19 39  1  0
 22 40  1  0
 22 41  1  0
 23 42  1  0
 23 43  1  0
M  END
$$$$
