@<TRIPOS>MOLECULE
*****
 43 46 0 0 0
SMALL
GASTEIGER

@<TRIPOS>ATOM
      1 O           0.2752    1.2628   -2.9420 O.2     1  UNL1       -0.2526
      2 C           0.1829    0.5545   -1.8904 C.2     1  UNL1        0.3024
      3 N          -1.1420    0.1427   -1.5613 N.am    1  UNL1       -0.2958
      4 C          -2.2913    0.4869   -2.3351 C.3     1  UNL1        0.0320
      5 C          -3.3467   -0.5141   -2.6738 C.3     1  UNL1       -0.0254
      6 C          -3.6473    0.6781   -1.7858 C.3     1  UNL1        0.0043
      7 C          -4.0463    0.3627   -0.4180 C.ar    1  UNL1       -0.0425
      8 C          -3.7806   -0.8100    0.2535 C.ar    1  UNL1       -0.0582
      9 C          -4.1999   -1.0085    1.5772 C.ar    1  UNL1       -0.0615
     10 C          -4.8947   -0.0348    2.2545 C.ar    1  UNL1       -0.0617
     11 C          -5.1727    1.1499    1.6003 C.ar    1  UNL1       -0.0615
     12 C          -4.7556    1.3292    0.3051 C.ar    1  UNL1       -0.0582
     13 N           1.3423    0.2330   -1.1472 N.am    1  UNL1       -0.2856
     14 C           1.2848   -0.5632    0.0533 C.3     1  UNL1        0.0168
     15 C           2.3327   -0.2523    1.0682 C.3     1  UNL1       -0.0272
     16 C           3.6414    0.2227    0.5188 C.3     1  UNL1        0.0251
     17 C           4.8037   -0.3690    1.2126 C.ar    1  UNL1        0.1746
     18 N           5.7543    0.3351    1.8435 N.ar    1  UNL1       -0.1986
     19 C           6.6231   -0.5517    2.3380 C.ar    1  UNL1        0.2144
     20 O           6.2027   -1.7584    2.0110 O.2     1  UNL1       -0.3414
     21 N           5.1007   -1.6948    1.3268 N.ar    1  UNL1       -0.0614
     22 C           3.7340   -0.1168   -0.9721 C.3     1  UNL1       -0.0272
     23 C           2.6204    0.7207   -1.6183 C.3     1  UNL1        0.0168
     24 H          -1.2519   -0.4377   -0.7081 H       1  UNL1        0.1505
     25 H          -2.0287    1.1396   -3.2233 H       1  UNL1        0.0505
     26 H          -3.7939   -0.5329   -3.6933 H       1  UNL1        0.0290
     27 H          -3.2063   -1.5134   -2.2643 H       1  UNL1        0.0290
     28 H          -4.2406    1.5145   -2.2629 H       1  UNL1        0.0367
     29 H          -3.2450   -1.5961   -0.2500 H       1  UNL1        0.0620
     30 H          -3.9696   -1.9412    2.0614 H       1  UNL1        0.0618
     31 H          -5.2101   -0.2117    3.2836 H       1  UNL1        0.0618
     32 H          -5.7206    1.8948    2.1601 H       1  UNL1        0.0618
     33 H          -4.9901    2.2687   -0.1763 H       1  UNL1        0.0620
     34 H           1.3233   -1.6565   -0.2201 H       1  UNL1        0.0465
     35 H           0.2921   -0.4325    0.5810 H       1  UNL1        0.0465
     36 H           2.5529   -1.2178    1.6122 H       1  UNL1        0.0287
     37 H           1.9534    0.4247    1.8708 H       1  UNL1        0.0287
     38 H           3.6684    1.3179    0.6143 H       1  UNL1        0.0382
     39 H           7.5043   -0.2803    2.9023 H       1  UNL1        0.1283
     40 H           4.7026    0.2280   -1.3465 H       1  UNL1        0.0287
     41 H           3.5740   -1.1875   -1.1289 H       1  UNL1        0.0287
     42 H           2.7180    0.6690   -2.7212 H       1  UNL1        0.0465
     43 H           2.7468    1.7457   -1.2143 H       1  UNL1        0.0465
@<TRIPOS>BOND
     1     1     2    2
     2     2     3   am
     3     3     4    1
     4     4     5    1
     5     5     6    1
     6     6     7    1
     7     7     8   ar
     8     8     9   ar
     9     9    10   ar
    10    10    11   ar
    11    11    12   ar
    12     2    13   am
    13    13    14    1
    14    14    15    1
    15    15    16    1
    16    16    17    1
    17    17    18   ar
    18    18    19   ar
    19    19    20   ar
    20    20    21   ar
    21    16    22    1
    22    22    23    1
    23     6     4    1
    24    12     7   ar
    25    23    13    1
    26    21    17   ar
    27     3    24    1
    28     4    25    1
    29     5    26    1
    30     5    27    1
    31     6    28    1
    32     8    29    1
    33     9    30    1
    34    10    31    1
    35    11    32    1
    36    12    33    1
    37    14    34    1
    38    14    35    1
    39    15    36    1
    40    15    37    1
    41    16    38    1
    42    19    39    1
    43    22    40    1
    44    22    41    1
    45    23    42    1
    46    23    43    1
