@<TRIPOS>MOLECULE
*****
 48 50 0 0 0
SMALL
GASTEIGER

@<TRIPOS>ATOM
      1 C           9.1014   -2.0840    1.3099 C.3     1  UNL1        0.0004
      2 N           7.6491   -1.9311    1.1594 N.am    1  UNL1       -0.3132
      3 C           7.1116   -0.7856    0.5093 C.2     1  UNL1        0.2623
      4 O           7.8572    0.1021    0.0592 O.2     1  UNL1       -0.2685
      5 C           5.6651   -0.6767    0.3831 C.ar    1  UNL1        0.1288
      6 C           5.1196    0.4365   -0.2498 C.ar    1  UNL1        0.0112
      7 C           3.7607    0.5756   -0.3885 C.ar    1  UNL1        0.1321
      8 O           3.2218    1.6881   -1.0207 O.3     1  UNL1       -0.4559
      9 C           1.8524    1.8232   -1.1577 C.ar    1  UNL1        0.1286
     10 C           1.1799    2.4728   -0.1422 C.ar    1  UNL1       -0.0176
     11 C          -0.1911    2.6284   -0.2415 C.ar    1  UNL1       -0.0370
     12 C          -0.9207    2.1670   -1.3045 C.ar    1  UNL1        0.0350
     13 N          -2.3226    2.3676   -1.3291 N.am    1  UNL1       -0.2692
     14 C          -3.1901    1.3742   -0.7523 C.2     1  UNL1        0.3081
     15 O          -2.6363    0.3849   -0.2604 O.2     1  UNL1       -0.2522
     16 N          -4.5819    1.5245   -0.7508 N.am    1  UNL1       -0.2692
     17 C          -5.4941    0.6187   -0.2178 C.ar    1  UNL1        0.0354
     18 C          -6.8721    0.8974   -0.2851 C.ar    1  UNL1       -0.0390
     19 C          -7.8378    0.0692    0.2100 C.ar    1  UNL1       -0.0411
     20 C          -7.4955   -1.1180    0.8190 C.ar    1  UNL1        0.0527
     21 CL         -8.7264   -2.1854    1.4562 Cl      1  UNL1       -0.0830
     22 C          -6.1602   -1.4307    0.9068 C.ar    1  UNL1        0.0748
     23 C          -5.7987   -2.7109    1.5640 C.3     1  UNL1        0.4188
     24 F          -6.3694   -3.7639    0.8841 F       1  UNL1       -0.1658
     25 F          -6.3029   -2.6953    2.8574 F       1  UNL1       -0.1658
     26 F          -4.4425   -2.9050    1.6392 F       1  UNL1       -0.1658
     27 C          -5.1788   -0.5670    0.3920 C.ar    1  UNL1       -0.0274
     28 C          -0.2394    1.5186   -2.3152 C.ar    1  UNL1       -0.0370
     29 C           1.1426    1.3509   -2.2353 C.ar    1  UNL1       -0.0176
     30 C           2.9216   -0.4145    0.1133 C.ar    1  UNL1       -0.0012
     31 C           3.5192   -1.5033    0.7352 C.ar    1  UNL1        0.0319
     32 N           4.8385   -1.6282    0.8643 N.ar    1  UNL1       -0.2501
     33 H           9.5310   -1.0771    1.2472 H       1  UNL1        0.0426
     34 H           9.5142   -2.7766    0.5593 H       1  UNL1        0.0426
     35 H           9.2764   -2.4983    2.3447 H       1  UNL1        0.0426
     36 H           7.0611   -2.6993    1.5516 H       1  UNL1        0.1487
     37 H           5.7472    1.2257   -0.6516 H       1  UNL1        0.0677
     38 H           1.7134    2.8571    0.7221 H       1  UNL1        0.0655
     39 H          -0.6988    3.1372    0.5591 H       1  UNL1        0.0637
     40 H          -2.7781    3.2039   -1.7456 H       1  UNL1        0.1564
     41 H          -4.9597    2.4129   -1.1995 H       1  UNL1        0.1564
     42 H          -7.1543    1.8255   -0.7604 H       1  UNL1        0.0636
     43 H          -8.8812    0.3398    0.1274 H       1  UNL1        0.0633
     44 H          -4.1740   -0.8926    0.5060 H       1  UNL1        0.0642
     45 H          -0.7794    1.1398   -3.1711 H       1  UNL1        0.0637
     46 H           1.6685    0.8420   -3.0310 H       1  UNL1        0.0655
     47 H           1.8611   -0.3486    0.0283 H       1  UNL1        0.0669
     48 H           2.8726   -2.2915    1.1356 H       1  UNL1        0.0831
@<TRIPOS>BOND
     1     1     2    1
     2     2     3   am
     3     3     4    2
     4     3     5    1
     5     5     6   ar
     6     6     7   ar
     7     7     8    1
     8     8     9    1
     9     9    10   ar
    10    10    11   ar
    11    11    12   ar
    12    12    13    1
    13    13    14   am
    14    14    15    2
    15    14    16   am
    16    16    17    1
    17    17    18   ar
    18    18    19   ar
    19    19    20   ar
    20    20    21    1
    21    20    22   ar
    22    22    23    1
    23    23    24    1
    24    23    25    1
    25    23    26    1
    26    22    27   ar
    27    12    28   ar
    28    28    29   ar
    29     7    30   ar
    30    30    31   ar
    31    31    32   ar
    32    32     5   ar
    33    29     9   ar
    34    27    17   ar
    35     1    33    1
    36     1    34    1
    37     1    35    1
    38     2    36    1
    39     6    37    1
    40    10    38    1
    41    11    39    1
    42    13    40    1
    43    16    41    1
    44    18    42    1
    45    19    43    1
    46    27    44    1
    47    28    45    1
    48    29    46    1
    49    30    47    1
    50    31    48    1
