
     RDKit          3D

 63 66  0  0  0  0  0  0  0  0999 V2000
   -4.3152    3.0741   -0.0054 C   0  0  0  0  0  0  0  0  0  0  0  0
   -3.2753    2.4831    0.8895 C   0  0  0  0  0  0  0  0  0  0  0  0
   -3.2098    1.0548    0.8568 N   0  0  0  0  0  0  0  0  0  0  0  0
   -4.3155    0.3660    1.4010 C   0  0  0  0  0  0  0  0  0  0  0  0
   -5.3116    0.0353    0.3419 C   0  0  0  0  0  0  0  0  0  0  0  0
   -6.6609    0.1754    0.5481 C   0  0  0  0  0  0  0  0  0  0  0  0
   -7.5578   -0.1432   -0.4579 C   0  0  0  0  0  0  0  0  0  0  0  0
   -7.0331   -0.5983   -1.6500 C   0  0  0  0  0  0  0  0  0  0  0  0
   -5.6769   -0.7389   -1.8564 C   0  0  0  0  0  0  0  0  0  0  0  0
   -4.8028   -0.4213   -0.8567 C   0  0  0  0  0  0  0  0  0  0  0  0
   -3.3433   -0.5468   -1.0100 C   0  0  0  0  0  0  0  0  0  0  0  0
   -2.5517    0.4926   -0.2540 C   0  0  2  0  0  0  0  0  0  0  0  0
   -1.3115   -0.2013    0.2192 C   0  0  0  0  0  0  0  0  0  0  0  0
   -1.0270   -0.2423    1.4440 O   0  0  0  0  0  0  0  0  0  0  0  0
   -0.4085   -0.8367   -0.6743 N   0  0  0  0  0  0  0  0  0  0  0  0
    0.7751   -1.4949   -0.1750 C   0  0  0  0  0  0  0  0  0  0  0  0
    0.7375   -2.8186    0.1494 C   0  0  0  0  0  0  0  0  0  0  0  0
    1.8367   -3.4810    0.6304 C   0  0  0  0  0  0  0  0  0  0  0  0
    1.8230   -4.7988    0.9597 F   0  0  0  0  0  0  0  0  0  0  0  0
    3.0239   -2.8080    0.7987 C   0  0  0  0  0  0  0  0  0  0  0  0
    4.2108   -3.4764    1.3033 C   0  0  0  0  0  0  0  0  0  0  0  0
    4.3094   -4.3276    2.3564 C   0  0  0  0  0  0  0  0  0  0  0  0
    5.6146   -4.7128    2.4599 N   0  0  0  0  0  0  0  0  0  0  0  0
    6.2860   -4.1065    1.4903 N   0  0  0  0  0  0  0  0  0  0  0  0
    5.4661   -3.3416    0.7603 C   0  0  0  0  0  0  0  0  0  0  0  0
    3.0473   -1.4541    0.4632 C   0  0  0  0  0  0  0  0  0  0  0  0
    1.9635   -0.7623   -0.0219 C   0  0  0  0  0  0  0  0  0  0  0  0
    1.9096    0.5497   -0.3667 O   0  0  0  0  0  0  0  0  0  0  0  0
    2.8476    1.5476   -0.3721 C   0  0  0  0  0  0  0  0  0  0  0  0
    3.9536    1.2941   -1.3331 C   0  0  0  0  0  0  0  0  0  0  0  0
    4.9393    2.3669   -1.3245 N   0  0  0  0  0  0  0  0  0  0  0  0
    5.6592    2.3889   -0.0661 C   0  0  0  0  0  0  0  0  0  0  0  0
    4.3277    3.6524   -1.5973 C   0  0  0  0  0  0  0  0  0  0  0  0
   -3.9514    4.1013   -0.3045 H   0  0  0  0  0  0  0  0  0  0  0  0
   -4.4552    2.5271   -0.9537 H   0  0  0  0  0  0  0  0  0  0  0  0
   -5.2951    3.2311    0.4510 H   0  0  0  0  0  0  0  0  0  0  0  0
   -3.4920    2.7967    1.9317 H   0  0  0  0  0  0  0  0  0  0  0  0
   -2.2659    2.8772    0.6418 H   0  0  0  0  0  0  0  0  0  0  0  0
   -4.0504   -0.5972    1.9103 H   0  0  0  0  0  0  0  0  0  0  0  0
   -4.8086    0.9944    2.1550 H   0  0  0  0  0  0  0  0  0  0  0  0
   -7.0428    0.5380    1.5028 H   0  0  0  0  0  0  0  0  0  0  0  0
   -8.6320   -0.0460   -0.3345 H   0  0  0  0  0  0  0  0  0  0  0  0
   -7.7136   -0.8529   -2.4486 H   0  0  0  0  0  0  0  0  0  0  0  0
   -5.2786   -1.1029   -2.8118 H   0  0  0  0  0  0  0  0  0  0  0  0
   -3.0623   -1.5894   -0.6773 H   0  0  0  0  0  0  0  0  0  0  0  0
   -3.1110   -0.5131   -2.0948 H   0  0  0  0  0  0  0  0  0  0  0  0
   -2.2870    1.2974   -0.9826 H   0  0  0  0  0  0  0  0  0  0  0  0
   -0.6193   -0.8159   -1.6838 H   0  0  0  0  0  0  0  0  0  0  0  0
   -0.1812   -3.3671    0.0265 H   0  0  0  0  0  0  0  0  0  0  0  0
    3.5450   -4.6790    3.0297 H   0  0  0  0  0  0  0  0  0  0  0  0
    7.2923   -4.2295    1.3487 H   0  0  0  0  0  0  0  0  0  0  0  0
    5.7397   -2.7467   -0.0768 H   0  0  0  0  0  0  0  0  0  0  0  0
    3.9867   -0.9410    0.6267 H   0  0  0  0  0  0  0  0  0  0  0  0
    3.2635    1.7033    0.6603 H   0  0  0  0  0  0  0  0  0  0  0  0
    2.3634    2.5352   -0.6558 H   0  0  0  0  0  0  0  0  0  0  0  0
    3.5228    1.2373   -2.3678 H   0  0  0  0  0  0  0  0  0  0  0  0
    4.4903    0.3796   -1.1045 H   0  0  0  0  0  0  0  0  0  0  0  0
    5.0253    2.7938    0.7662 H   0  0  0  0  0  0  0  0  0  0  0  0
    6.5531    3.0123   -0.2242 H   0  0  0  0  0  0  0  0  0  0  0  0
    5.9527    1.3587    0.1559 H   0  0  0  0  0  0  0  0  0  0  0  0
    5.1467    4.3620   -1.8344 H   0  0  0  0  0  0  0  0  0  0  0  0
    3.7627    4.0361   -0.7250 H   0  0  0  0  0  0  0  0  0  0  0  0
    3.6723    3.5298   -2.4929 H   0  0  0  0  0  0  0  0  0  0  0  0
  1  2  1  0
  2  3  1  0
  3  4  1  0
  4  5  1  0
  5  6  2  0
  6  7  1  0
  7  8  2  0
  8  9  1  0
  9 10  2  0
 10 11  1  0
 11 12  1  0
 12 13  1  0
 13 14  2  0
 13 15  1  0
 15 16  1  0
 16 17  2  0
 17 18  1  0
 18 19  1  0
 18 20  2  0
 20 21  1  0
 21 22  1  0
 22 23  2  0
 23 24  1  0
 24 25  1  0
 20 26  1  0
 26 27  2  0
 27 28  1  0
 28 29  1  0
 29 30  1  0
 30 31  1  0
 31 32  1  0
 31 33  1  0
 12  3  1  0
 27 16  1  0
 10  5  1  0
 25 21  2  0
  1 34  1  0
  1 35  1  0
  1 36  1  0
  2 37  1  0
  2 38  1  0
  4 39  1  0
  4 40  1  0
  6 41  1  0
  7 42  1  0
  8 43  1  0
  9 44  1  0
 11 45  1  0
 11 46  1  0
 12 47  1  6
 15 48  1  0
 17 49  1  0
 22 50  1  0
 24 51  1  0
 25 52  1  0
 26 53  1  0
 29 54  1  0
 29 55  1  0
 30 56  1  0
 30 57  1  0
 32 58  1  0
 32 59  1  0
 32 60  1  0
 33 61  1  0
 33 62  1  0
 33 63  1  0
M  END
$$$$
