@<TRIPOS>MOLECULE
*****
 63 66 0 0 0
SMALL
GASTEIGER

@<TRIPOS>ATOM
      1 C          -4.3152    3.0741   -0.0054 C.3     1  UNL1       -0.0523
      2 C          -3.2753    2.4831    0.8895 C.3     1  UNL1       -0.0029
      3 N          -3.2098    1.0548    0.8568 N.3     1  UNL1       -0.2873
      4 C          -4.3155    0.3660    1.4010 C.3     1  UNL1        0.0250
      5 C          -5.3116    0.0353    0.3419 C.ar    1  UNL1       -0.0301
      6 C          -6.6609    0.1754    0.5481 C.ar    1  UNL1       -0.0571
      7 C          -7.5578   -0.1432   -0.4579 C.ar    1  UNL1       -0.0614
      8 C          -7.0331   -0.5983   -1.6500 C.ar    1  UNL1       -0.0615
      9 C          -5.6769   -0.7389   -1.8564 C.ar    1  UNL1       -0.0582
     10 C          -4.8028   -0.4213   -0.8567 C.ar    1  UNL1       -0.0410
     11 C          -3.3433   -0.5468   -1.0100 C.3     1  UNL1       -0.0032
     12 C          -2.5517    0.4926   -0.2540 C.3     1  UNL1        0.0918
     13 C          -1.3115   -0.2013    0.2192 C.2     1  UNL1        0.2349
     14 O          -1.0270   -0.2423    1.4440 O.2     1  UNL1       -0.2737
     15 N          -0.4085   -0.8367   -0.6743 N.am    1  UNL1       -0.2812
     16 C           0.7751   -1.4949   -0.1750 C.ar    1  UNL1        0.0784
     17 C           0.7375   -2.8186    0.1494 C.ar    1  UNL1       -0.0010
     18 C           1.8367   -3.4810    0.6304 C.ar    1  UNL1        0.1331
     19 F           1.8230   -4.7988    0.9597 F       1  UNL1       -0.2048
     20 C           3.0239   -2.8080    0.7987 C.ar    1  UNL1        0.0238
     21 C           4.2108   -3.4764    1.3033 C.ar    1  UNL1        0.0222
     22 C           4.3094   -4.3276    2.3564 C.ar    1  UNL1        0.0569
     23 N           5.6146   -4.7128    2.4599 N.ar    1  UNL1       -0.1817
     24 N           6.2860   -4.1065    1.4903 N.ar    1  UNL1       -0.2841
     25 C           5.4661   -3.3416    0.7603 C.ar    1  UNL1        0.0301
     26 C           3.0473   -1.4541    0.4632 C.ar    1  UNL1       -0.0075
     27 C           1.9635   -0.7623   -0.0219 C.ar    1  UNL1        0.1424
     28 O           1.9096    0.5497   -0.3667 O.3     1  UNL1       -0.4888
     29 C           2.8476    1.5476   -0.3721 C.3     1  UNL1        0.1023
     30 C           3.9536    1.2941   -1.3331 C.3     1  UNL1        0.0325
     31 N           4.9393    2.3669   -1.3245 N.3     1  UNL1       -0.3051
     32 C           5.6592    2.3889   -0.0661 C.3     1  UNL1       -0.0129
     33 C           4.3277    3.6524   -1.5973 C.3     1  UNL1       -0.0129
     34 H          -3.9514    4.1013   -0.3045 H       1  UNL1        0.0242
     35 H          -4.4552    2.5271   -0.9537 H       1  UNL1        0.0242
     36 H          -5.2951    3.2311    0.4510 H       1  UNL1        0.0242
     37 H          -3.4920    2.7967    1.9317 H       1  UNL1        0.0424
     38 H          -2.2659    2.8772    0.6418 H       1  UNL1        0.0424
     39 H          -4.0504   -0.5972    1.9103 H       1  UNL1        0.0476
     40 H          -4.8086    0.9944    2.1550 H       1  UNL1        0.0476
     41 H          -7.0428    0.5380    1.5028 H       1  UNL1        0.0621
     42 H          -8.6320   -0.0460   -0.3345 H       1  UNL1        0.0618
     43 H          -7.7136   -0.8529   -2.4486 H       1  UNL1        0.0618
     44 H          -5.2786   -1.1029   -2.8118 H       1  UNL1        0.0620
     45 H          -3.0623   -1.5894   -0.6773 H       1  UNL1        0.0333
     46 H          -3.1110   -0.5131   -2.0948 H       1  UNL1        0.0333
     47 H          -2.2870    1.2974   -0.9826 H       1  UNL1        0.0562
     48 H          -0.6193   -0.8159   -1.6838 H       1  UNL1        0.1550
     49 H          -0.1812   -3.3671    0.0265 H       1  UNL1        0.0666
     50 H           3.5450   -4.6790    3.0297 H       1  UNL1        0.0854
     51 H           7.2923   -4.2295    1.3487 H       1  UNL1        0.1882
     52 H           5.7397   -2.7467   -0.0768 H       1  UNL1        0.0830
     53 H           3.9867   -0.9410    0.6267 H       1  UNL1        0.0662
     54 H           3.2635    1.7033    0.6603 H       1  UNL1        0.0709
     55 H           2.3634    2.5352   -0.6558 H       1  UNL1        0.0709
     56 H           3.5228    1.2373   -2.3678 H       1  UNL1        0.0460
     57 H           4.4903    0.3796   -1.1045 H       1  UNL1        0.0460
     58 H           5.0253    2.7938    0.7662 H       1  UNL1        0.0391
     59 H           6.5531    3.0123   -0.2242 H       1  UNL1        0.0391
     60 H           5.9527    1.3587    0.1559 H       1  UNL1        0.0391
     61 H           5.1467    4.3620   -1.8344 H       1  UNL1        0.0391
     62 H           3.7627    4.0361   -0.7250 H       1  UNL1        0.0391
     63 H           3.6723    3.5298   -2.4929 H       1  UNL1        0.0391
@<TRIPOS>BOND
     1     1     2    1
     2     2     3    1
     3     3     4    1
     4     4     5    1
     5     5     6   ar
     6     6     7   ar
     7     7     8   ar
     8     8     9   ar
     9     9    10   ar
    10    10    11    1
    11    11    12    1
    12    12    13    1
    13    13    14    2
    14    13    15   am
    15    15    16    1
    16    16    17   ar
    17    17    18   ar
    18    18    19    1
    19    18    20   ar
    20    20    21    1
    21    21    22   ar
    22    22    23   ar
    23    23    24   ar
    24    24    25   ar
    25    20    26   ar
    26    26    27   ar
    27    27    28    1
    28    28    29    1
    29    29    30    1
    30    30    31    1
    31    31    32    1
    32    31    33    1
    33    12     3    1
    34    27    16   ar
    35    10     5   ar
    36    25    21   ar
    37     1    34    1
    38     1    35    1
    39     1    36    1
    40     2    37    1
    41     2    38    1
    42     4    39    1
    43     4    40    1
    44     6    41    1
    45     7    42    1
    46     8    43    1
    47     9    44    1
    48    11    45    1
    49    11    46    1
    50    12    47    1
    51    15    48    1
    52    17    49    1
    53    22    50    1
    54    24    51    1
    55    25    52    1
    56    26    53    1
    57    29    54    1
    58    29    55    1
    59    30    56    1
    60    30    57    1
    61    32    58    1
    62    32    59    1
    63    32    60    1
    64    33    61    1
    65    33    62    1
    66    33    63    1
