@<TRIPOS>MOLECULE
*****
 82 84 0 0 0
SMALL
GASTEIGER

@<TRIPOS>ATOM
      1 C          11.6173   -0.4937   -0.9716 C.3     1  UNL1       -0.0653
      2 C          10.1803   -0.5361   -1.4763 C.3     1  UNL1       -0.0559
      3 C           9.3264   -1.4977   -0.6861 C.3     1  UNL1       -0.0530
      4 C           9.2434   -1.1436    0.7665 C.3     1  UNL1       -0.0491
      5 C           8.6416    0.1951    1.0549 C.3     1  UNL1       -0.0277
      6 C           7.2435    0.3256    0.5818 C.ar    1  UNL1       -0.0473
      7 C           6.3122   -0.0899    1.5405 C.ar    1  UNL1       -0.0579
      8 C           4.9408   -0.0472    1.2979 C.ar    1  UNL1       -0.0494
      9 C           4.4816    0.4164    0.0809 C.ar    1  UNL1        0.0370
     10 C           5.3915    0.8240   -0.8593 C.ar    1  UNL1       -0.0494
     11 C           6.7235    0.7716   -0.5960 C.ar    1  UNL1       -0.0579
     12 C           3.0449    0.4533   -0.1557 C.2     1  UNL1        0.2483
     13 O           2.2406    0.0725    0.7227 O.2     1  UNL1       -0.2699
     14 N           2.4623    0.9065   -1.3547 N.am    1  UNL1       -0.2815
     15 C           1.0416    0.8721   -1.4103 C.ar    1  UNL1        0.0338
     16 C           0.4056    1.9971   -0.9794 C.ar    1  UNL1       -0.0386
     17 C          -0.9709    2.0409   -1.0030 C.ar    1  UNL1       -0.0336
     18 C          -1.7882    1.0058   -1.4415 C.ar    1  UNL1        0.1056
     19 C          -1.0633   -0.1090   -1.8658 C.ar    1  UNL1       -0.0336
     20 C           0.3122   -0.2052   -1.8632 C.ar    1  UNL1       -0.0386
     21 S          -3.5222    1.0172   -1.4938 S.O2    1  UNL1        0.0616
     22 O          -3.8701    0.1168   -2.7002 O.2     1  UNL1       -0.1528
     23 O          -4.0819    2.3462   -1.9589 O.2     1  UNL1       -0.1528
     24 N          -4.3577    0.4186   -0.1926 N.3     1  UNL1       -0.1632
     25 C          -4.0374   -1.0174   -0.0003 C.3     1  UNL1        0.0341
     26 C          -4.8675   -1.9409   -0.7951 C.3     1  UNL1        0.0135
     27 N          -6.2717   -1.9531   -0.5975 N.3     1  UNL1       -0.2967
     28 C          -6.9729   -2.8089   -1.5413 C.3     1  UNL1        0.0225
     29 C          -8.4005   -2.2851   -1.5977 C.3     1  UNL1        0.0604
     30 O          -8.7695   -1.7306   -0.3726 O.3     1  UNL1       -0.3772
     31 C          -8.2068   -2.3888    0.6994 C.3     1  UNL1        0.0604
     32 C          -6.7044   -2.1940    0.7462 C.3     1  UNL1        0.0225
     33 C          -4.3511    1.0321    1.0727 C.3     1  UNL1        0.1121
     34 C          -4.9831    2.3352    1.3088 C.3     1  UNL1       -0.0209
     35 C          -4.5557    3.5512    0.6248 C.3     1  UNL1       -0.0607
     36 C          -6.4972    2.1365    1.0261 C.3     1  UNL1       -0.0607
     37 C          -3.0372    0.8323    1.8046 C.2     1  UNL1        0.2546
     38 O          -2.0436    0.1698    1.3722 O.2     1  UNL1       -0.2719
     39 N          -2.7611    1.3755    3.0880 N.am    1  UNL1       -0.1961
     40 O          -1.5098    1.0051    3.4364 O.3     1  UNL1       -0.2951
     41 H          11.7271   -1.2237   -0.1559 H       1  UNL1        0.0230
     42 H          11.8454    0.5314   -0.5728 H       1  UNL1        0.0230
     43 H          12.3568   -0.6933   -1.7914 H       1  UNL1        0.0230
     44 H           9.7415    0.4734   -1.4396 H       1  UNL1        0.0263
     45 H          10.2449   -0.9258   -2.5209 H       1  UNL1        0.0263
     46 H           9.8005   -2.5070   -0.8003 H       1  UNL1        0.0265
     47 H           8.3361   -1.5046   -1.1787 H       1  UNL1        0.0265
     48 H          10.2459   -1.2205    1.2261 H       1  UNL1        0.0268
     49 H           8.5838   -1.9323    1.2442 H       1  UNL1        0.0268
     50 H           8.7176    0.3958    2.1397 H       1  UNL1        0.0313
     51 H           9.2665    0.9660    0.5574 H       1  UNL1        0.0313
     52 H           6.5568   -0.4732    2.5337 H       1  UNL1        0.0620
     53 H           4.2115   -0.3656    2.0305 H       1  UNL1        0.0625
     54 H           5.0796    1.1917   -1.8199 H       1  UNL1        0.0625
     55 H           7.4617    1.0833   -1.3048 H       1  UNL1        0.0620
     56 H           3.0663    1.2411   -2.1365 H       1  UNL1        0.1551
     57 H           0.9360    2.8660   -0.6156 H       1  UNL1        0.0637
     58 H          -1.4698    2.9355   -0.6609 H       1  UNL1        0.0638
     59 H          -1.5553   -1.0083   -2.2438 H       1  UNL1        0.0638
     60 H           0.8384   -1.0827   -2.1991 H       1  UNL1        0.0637
     61 H          -2.9842   -1.1092   -0.3400 H       1  UNL1        0.0457
     62 H          -4.0061   -1.2526    1.0870 H       1  UNL1        0.0457
     63 H          -4.6901   -1.7985   -1.8722 H       1  UNL1        0.0440
     64 H          -4.5193   -3.0019   -0.6057 H       1  UNL1        0.0440
     65 H          -6.4523   -2.7589   -2.4931 H       1  UNL1        0.0449
     66 H          -7.0195   -3.8183   -1.0867 H       1  UNL1        0.0449
     67 H          -9.1157   -3.0284   -1.9865 H       1  UNL1        0.0572
     68 H          -8.3879   -1.4382   -2.3272 H       1  UNL1        0.0572
     69 H          -8.4479   -3.4718    0.6030 H       1  UNL1        0.0572
     70 H          -8.6911   -1.9695    1.6117 H       1  UNL1        0.0572
     71 H          -6.2526   -3.1435    1.1502 H       1  UNL1        0.0449
     72 H          -6.5160   -1.4105    1.4762 H       1  UNL1        0.0449
     73 H          -5.0235    0.3339    1.6985 H       1  UNL1        0.0579
     74 H          -4.9782    2.4980    2.4312 H       1  UNL1        0.0316
     75 H          -5.3189    3.8608   -0.1448 H       1  UNL1        0.0233
     76 H          -4.6724    4.4057    1.3839 H       1  UNL1        0.0233
     77 H          -3.5188    3.6548    0.3105 H       1  UNL1        0.0233
     78 H          -6.6513    1.8943   -0.0345 H       1  UNL1        0.0233
     79 H          -7.0723    3.0053    1.3545 H       1  UNL1        0.0233
     80 H          -6.7929    1.2737    1.6572 H       1  UNL1        0.0233
     81 H          -3.4500    1.9376    3.5904 H       1  UNL1        0.1822
     82 H          -1.4158    0.8136    4.4037 H       1  UNL1        0.2414
@<TRIPOS>BOND
     1     1     2    1
     2     2     3    1
     3     3     4    1
     4     4     5    1
     5     5     6    1
     6     6     7   ar
     7     7     8   ar
     8     8     9   ar
     9     9    10   ar
    10    10    11   ar
    11     9    12    1
    12    12    13    2
    13    12    14   am
    14    14    15    1
    15    15    16   ar
    16    16    17   ar
    17    17    18   ar
    18    18    19   ar
    19    19    20   ar
    20    18    21    1
    21    21    22    2
    22    21    23    2
    23    21    24    1
    24    24    25    1
    25    25    26    1
    26    26    27    1
    27    27    28    1
    28    28    29    1
    29    29    30    1
    30    30    31    1
    31    31    32    1
    32    24    33    1
    33    33    34    1
    34    34    35    1
    35    34    36    1
    36    33    37    1
    37    37    38    2
    38    37    39   am
    39    39    40    1
    40    11     6   ar
    41    20    15   ar
    42    32    27    1
    43     1    41    1
    44     1    42    1
    45     1    43    1
    46     2    44    1
    47     2    45    1
    48     3    46    1
    49     3    47    1
    50     4    48    1
    51     4    49    1
    52     5    50    1
    53     5    51    1
    54     7    52    1
    55     8    53    1
    56    10    54    1
    57    11    55    1
    58    14    56    1
    59    16    57    1
    60    17    58    1
    61    19    59    1
    62    20    60    1
    63    25    61    1
    64    25    62    1
    65    26    63    1
    66    26    64    1
    67    28    65    1
    68    28    66    1
    69    29    67    1
    70    29    68    1
    71    31    69    1
    72    31    70    1
    73    32    71    1
    74    32    72    1
    75    33    73    1
    76    34    74    1
    77    35    75    1
    78    35    76    1
    79    35    77    1
    80    36    78    1
    81    36    79    1
    82    36    80    1
    83    39    81    1
    84    40    82    1
