
     RDKit          3D

 82 84  0  0  0  0  0  0  0  0999 V2000
   11.6173   -0.4937   -0.9716 C   0  0  0  0  0  0  0  0  0  0  0  0
   10.1803   -0.5361   -1.4763 C   0  0  0  0  0  0  0  0  0  0  0  0
    9.3264   -1.4977   -0.6861 C   0  0  0  0  0  0  0  0  0  0  0  0
    9.2434   -1.1436    0.7665 C   0  0  0  0  0  0  0  0  0  0  0  0
    8.6416    0.1951    1.0549 C   0  0  0  0  0  0  0  0  0  0  0  0
    7.2435    0.3256    0.5818 C   0  0  0  0  0  0  0  0  0  0  0  0
    6.3122   -0.0899    1.5405 C   0  0  0  0  0  0  0  0  0  0  0  0
    4.9408   -0.0472    1.2979 C   0  0  0  0  0  0  0  0  0  0  0  0
    4.4816    0.4164    0.0809 C   0  0  0  0  0  0  0  0  0  0  0  0
    5.3915    0.8240   -0.8593 C   0  0  0  0  0  0  0  0  0  0  0  0
    6.7235    0.7716   -0.5960 C   0  0  0  0  0  0  0  0  0  0  0  0
    3.0449    0.4533   -0.1557 C   0  0  0  0  0  0  0  0  0  0  0  0
    2.2406    0.0725    0.7227 O   0  0  0  0  0  0  0  0  0  0  0  0
    2.4623    0.9065   -1.3547 N   0  0  0  0  0  0  0  0  0  0  0  0
    1.0416    0.8721   -1.4103 C   0  0  0  0  0  0  0  0  0  0  0  0
    0.4056    1.9971   -0.9794 C   0  0  0  0  0  0  0  0  0  0  0  0
   -0.9709    2.0409   -1.0030 C   0  0  0  0  0  0  0  0  0  0  0  0
   -1.7882    1.0058   -1.4415 C   0  0  0  0  0  0  0  0  0  0  0  0
   -1.0633   -0.1090   -1.8658 C   0  0  0  0  0  0  0  0  0  0  0  0
    0.3122   -0.2052   -1.8632 C   0  0  0  0  0  0  0  0  0  0  0  0
   -3.5222    1.0172   -1.4938 S   0  0  0  0  0  0  0  0  0  0  0  0
   -3.8701    0.1168   -2.7002 O   0  0  0  0  0  0  0  0  0  0  0  0
   -4.0819    2.3462   -1.9589 O   0  0  0  0  0  0  0  0  0  0  0  0
   -4.3577    0.4186   -0.1926 N   0  0  0  0  0  0  0  0  0  0  0  0
   -4.0374   -1.0174   -0.0003 C   0  0  0  0  0  0  0  0  0  0  0  0
   -4.8675   -1.9409   -0.7951 C   0  0  0  0  0  0  0  0  0  0  0  0
   -6.2717   -1.9531   -0.5975 N   0  0  0  0  0  0  0  0  0  0  0  0
   -6.9729   -2.8089   -1.5413 C   0  0  0  0  0  0  0  0  0  0  0  0
   -8.4005   -2.2851   -1.5977 C   0  0  0  0  0  0  0  0  0  0  0  0
   -8.7695   -1.7306   -0.3726 O   0  0  0  0  0  0  0  0  0  0  0  0
   -8.2068   -2.3888    0.6994 C   0  0  0  0  0  0  0  0  0  0  0  0
   -6.7044   -2.1940    0.7462 C   0  0  0  0  0  0  0  0  0  0  0  0
   -4.3511    1.0321    1.0727 C   0  0  2  0  0  0  0  0  0  0  0  0
   -4.9831    2.3352    1.3088 C   0  0  0  0  0  0  0  0  0  0  0  0
   -4.5557    3.5512    0.6248 C   0  0  0  0  0  0  0  0  0  0  0  0
   -6.4972    2.1365    1.0261 C   0  0  0  0  0  0  0  0  0  0  0  0
   -3.0372    0.8323    1.8046 C   0  0  0  0  0  0  0  0  0  0  0  0
   -2.0436    0.1698    1.3722 O   0  0  0  0  0  0  0  0  0  0  0  0
   -2.7611    1.3755    3.0880 N   0  0  0  0  0  0  0  0  0  0  0  0
   -1.5098    1.0051    3.4364 O   0  0  0  0  0  0  0  0  0  0  0  0
   11.7271   -1.2237   -0.1559 H   0  0  0  0  0  0  0  0  0  0  0  0
   11.8454    0.5314   -0.5728 H   0  0  0  0  0  0  0  0  0  0  0  0
   12.3568   -0.6933   -1.7914 H   0  0  0  0  0  0  0  0  0  0  0  0
    9.7415    0.4734   -1.4396 H   0  0  0  0  0  0  0  0  0  0  0  0
   10.2449   -0.9258   -2.5209 H   0  0  0  0  0  0  0  0  0  0  0  0
    9.8005   -2.5070   -0.8003 H   0  0  0  0  0  0  0  0  0  0  0  0
    8.3361   -1.5046   -1.1787 H   0  0  0  0  0  0  0  0  0  0  0  0
   10.2459   -1.2205    1.2261 H   0  0  0  0  0  0  0  0  0  0  0  0
    8.5838   -1.9323    1.2442 H   0  0  0  0  0  0  0  0  0  0  0  0
    8.7176    0.3958    2.1397 H   0  0  0  0  0  0  0  0  0  0  0  0
    9.2665    0.9660    0.5574 H   0  0  0  0  0  0  0  0  0  0  0  0
    6.5568   -0.4732    2.5337 H   0  0  0  0  0  0  0  0  0  0  0  0
    4.2115   -0.3656    2.0305 H   0  0  0  0  0  0  0  0  0  0  0  0
    5.0796    1.1917   -1.8199 H   0  0  0  0  0  0  0  0  0  0  0  0
    7.4617    1.0833   -1.3048 H   0  0  0  0  0  0  0  0  0  0  0  0
    3.0663    1.2411   -2.1365 H   0  0  0  0  0  0  0  0  0  0  0  0
    0.9360    2.8660   -0.6156 H   0  0  0  0  0  0  0  0  0  0  0  0
   -1.4698    2.9355   -0.6609 H   0  0  0  0  0  0  0  0  0  0  0  0
   -1.5553   -1.0083   -2.2438 H   0  0  0  0  0  0  0  0  0  0  0  0
    0.8384   -1.0827   -2.1991 H   0  0  0  0  0  0  0  0  0  0  0  0
   -2.9842   -1.1092   -0.3400 H   0  0  0  0  0  0  0  0  0  0  0  0
   -4.0061   -1.2526    1.0870 H   0  0  0  0  0  0  0  0  0  0  0  0
   -4.6901   -1.7985   -1.8722 H   0  0  0  0  0  0  0  0  0  0  0  0
   -4.5193   -3.0019   -0.6057 H   0  0  0  0  0  0  0  0  0  0  0  0
   -6.4523   -2.7589   -2.4931 H   0  0  0  0  0  0  0  0  0  0  0  0
   -7.0195   -3.8183   -1.0867 H   0  0  0  0  0  0  0  0  0  0  0  0
   -9.1157   -3.0284   -1.9865 H   0  0  0  0  0  0  0  0  0  0  0  0
   -8.3879   -1.4382   -2.3272 H   0  0  0  0  0  0  0  0  0  0  0  0
   -8.4479   -3.4718    0.6030 H   0  0  0  0  0  0  0  0  0  0  0  0
   -8.6911   -1.9695    1.6117 H   0  0  0  0  0  0  0  0  0  0  0  0
   -6.2526   -3.1435    1.1502 H   0  0  0  0  0  0  0  0  0  0  0  0
   -6.5160   -1.4105    1.4762 H   0  0  0  0  0  0  0  0  0  0  0  0
   -5.0235    0.3339    1.6985 H   0  0  0  0  0  0  0  0  0  0  0  0
   -4.9782    2.4980    2.4312 H   0  0  0  0  0  0  0  0  0  0  0  0
   -5.3189    3.8608   -0.1448 H   0  0  0  0  0  0  0  0  0  0  0  0
   -4.6724    4.4057    1.3839 H   0  0  0  0  0  0  0  0  0  0  0  0
   -3.5188    3.6548    0.3105 H   0  0  0  0  0  0  0  0  0  0  0  0
   -6.6513    1.8943   -0.0345 H   0  0  0  0  0  0  0  0  0  0  0  0
   -7.0723    3.0053    1.3545 H   0  0  0  0  0  0  0  0  0  0  0  0
   -6.7929    1.2737    1.6572 H   0  0  0  0  0  0  0  0  0  0  0  0
   -3.4500    1.9376    3.5904 H   0  0  0  0  0  0  0  0  0  0  0  0
   -1.4158    0.8136    4.4037 H   0  0  0  0  0  0  0  0  0  0  0  0
  1  2  1  0
  2  3  1  0
  3  4  1  0
  4  5  1  0
  5  6  1  0
  6  7  2  0
  7  8  1  0
  8  9  2  0
  9 10  1  0
 10 11  2  0
  9 12  1  0
 12 13  2  0
 12 14  1  0
 14 15  1  0
 15 16  2  0
 16 17  1  0
 17 18  2  0
 18 19  1  0
 19 20  2  0
 18 21  1  0
 21 22  2  0
 21 23  2  0
 21 24  1  0
 24 25  1  0
 25 26  1  0
 26 27  1  0
 27 28  1  0
 28 29  1  0
 29 30  1  0
 30 31  1  0
 31 32  1  0
 24 33  1  0
 33 34  1  0
 34 35  1  0
 34 36  1  0
 33 37  1  0
 37 38  2  0
 37 39  1  0
 39 40  1  0
 11  6  1  0
 20 15  1  0
 32 27  1  0
  1 41  1  0
  1 42  1  0
  1 43  1  0
  2 44  1  0
  2 45  1  0
  3 46  1  0
  3 47  1  0
  4 48  1  0
  4 49  1  0
  5 50  1  0
  5 51  1  0
  7 52  1  0
  8 53  1  0
 10 54  1  0
 11 55  1  0
 14 56  1  0
 16 57  1  0
 17 58  1  0
 19 59  1  0
 20 60  1  0
 25 61  1  0
 25 62  1  0
 26 63  1  0
 26 64  1  0
 28 65  1  0
 28 66  1  0
 29 67  1  0
 29 68  1  0
 31 69  1  0
 31 70  1  0
 32 71  1  0
 32 72  1  0
 33 73  1  1
 34 74  1  0
 35 75  1  0
 35 76  1  0
 35 77  1  0
 36 78  1  0
 36 79  1  0
 36 80  1  0
 39 81  1  0
 40 82  1  0
M  END
$$$$
