@<TRIPOS>MOLECULE
*****
 31 33 0 0 0
SMALL
GASTEIGER

@<TRIPOS>ATOM
      1 N          -3.8716    0.3337   -1.9154 N.pl3   1  UNL1       -0.3574
      2 C          -3.3764   -0.0178   -0.6295 C.ar    1  UNL1        0.0375
      3 C          -4.2983   -0.3297    0.3471 C.ar    1  UNL1       -0.0403
      4 C          -3.8318   -0.6782    1.6190 C.ar    1  UNL1       -0.0593
      5 C          -2.4794   -0.7115    1.8979 C.ar    1  UNL1       -0.0488
      6 C          -1.5411   -0.3983    0.9185 C.ar    1  UNL1        0.0512
      7 C          -2.0168   -0.0567   -0.3300 C.ar    1  UNL1        0.0700
      8 C          -0.9298    0.2476   -1.2604 C.2     1  UNL1        0.2563
      9 O          -0.9257    0.5901   -2.4544 O.2     1  UNL1       -0.2694
     10 N           0.2713    0.0664   -0.4837 N.am    1  UNL1       -0.2220
     11 C           1.6729    0.2190   -0.8469 C.3     1  UNL1        0.1109
     12 C           2.2570    1.2997   -0.0001 C.3     1  UNL1       -0.0170
     13 C           3.7499    1.1847    0.1896 C.3     1  UNL1        0.0265
     14 C           4.1558   -0.1345    0.7162 C.2     1  UNL1        0.2193
     15 O           5.0630   -0.2183    1.5980 O.2     1  UNL1       -0.2754
     16 N           3.4712   -1.2637    0.1735 N.am    1  UNL1       -0.2548
     17 C           2.3979   -1.0706   -0.7289 C.2     1  UNL1        0.2402
     18 O           2.0060   -2.0005   -1.4826 O.2     1  UNL1       -0.2733
     19 C          -0.0718   -0.3264    0.8448 C.2     1  UNL1        0.2546
     20 O           0.6033   -0.5946    1.8616 O.2     1  UNL1       -0.2695
     21 H          -3.5381   -0.3070   -2.6884 H       1  UNL1        0.1423
     22 H          -4.4986    1.1721   -1.9487 H       1  UNL1        0.1423
     23 H          -5.3424   -0.3038    0.1309 H       1  UNL1        0.0636
     24 H          -4.5529   -0.9304    2.4116 H       1  UNL1        0.0618
     25 H          -2.0914   -0.9816    2.8868 H       1  UNL1        0.0625
     26 H           1.7662    0.5272   -1.9104 H       1  UNL1        0.0602
     27 H           2.0991    2.2689   -0.5181 H       1  UNL1        0.0293
     28 H           1.7761    1.2702    1.0144 H       1  UNL1        0.0293
     29 H           4.2552    1.4017   -0.7932 H       1  UNL1        0.0359
     30 H           4.0400    1.9666    0.9227 H       1  UNL1        0.0359
     31 H           3.7813   -2.2245    0.4579 H       1  UNL1        0.1575
@<TRIPOS>BOND
     1     1     2    1
     2     2     3   ar
     3     3     4   ar
     4     4     5   ar
     5     5     6   ar
     6     6     7   ar
     7     7     8    1
     8     8     9    2
     9     8    10   am
    10    10    11    1
    11    11    12    1
    12    12    13    1
    13    13    14    1
    14    14    15    2
    15    14    16   am
    16    16    17   am
    17    17    18    2
    18    10    19   am
    19    19    20    2
    20     7     2   ar
    21    17    11    1
    22    19     6    1
    23     1    21    1
    24     1    22    1
    25     3    23    1
    26     4    24    1
    27     5    25    1
    28    11    26    1
    29    12    27    1
    30    12    28    1
    31    13    29    1
    32    13    30    1
    33    16    31    1
