@<TRIPOS>MOLECULE
*****
 47 50 0 0 0
SMALL
GASTEIGER

@<TRIPOS>ATOM
      1 N          -2.2924   -1.9831    0.9258 N.3     1  UNL1       -0.3294
      2 C          -1.2908   -1.0884    1.4204 C.3     1  UNL1       -0.0009
      3 C          -1.0305    0.1173    0.5824 C.3     1  UNL1       -0.0101
      4 C          -2.2002    1.0249    0.3721 C.3     1  UNL1       -0.0208
      5 C          -3.3639    0.4147   -0.2868 C.ar    1  UNL1       -0.0467
      6 C          -4.3901   -0.1862    0.4432 C.ar    1  UNL1       -0.0572
      7 C          -5.5043   -0.7768   -0.1178 C.ar    1  UNL1       -0.0431
      8 C          -5.6434   -0.7911   -1.4863 C.ar    1  UNL1        0.0410
      9 CL         -7.0116   -1.5123   -2.2634 Cl      1  UNL1       -0.0835
     10 C          -4.6548   -0.2086   -2.2650 C.ar    1  UNL1       -0.0431
     11 C          -3.5575    0.3703   -1.6532 C.ar    1  UNL1       -0.0572
     12 C          -0.4334   -0.3492   -0.7222 C.3     1  UNL1       -0.0300
     13 C           1.0569   -0.6194   -0.5905 C.3     1  UNL1        0.0141
     14 N           1.7527    0.5897   -0.2745 N.pl3   1  UNL1       -0.3145
     15 C           0.8561    1.6250    0.2508 C.3     1  UNL1        0.0141
     16 C           0.0254    0.9497    1.3216 C.3     1  UNL1       -0.0300
     17 C           3.1346    0.8330   -0.4232 C.ar    1  UNL1        0.1337
     18 C           4.1932    0.1708    0.1650 C.ar    1  UNL1        0.0585
     19 C           4.1162   -0.8884    1.0391 C.ar    1  UNL1       -0.0318
     20 C           5.4547   -1.1745    1.3265 C.ar    1  UNL1        0.0042
     21 N           6.2521   -0.3165    0.6463 N.ar    1  UNL1       -0.3457
     22 C           5.4987    0.5375   -0.0893 C.ar    1  UNL1        0.1432
     23 N           5.7207    1.5677   -0.9337 N.ar    1  UNL1       -0.2178
     24 C           4.6887    2.2297   -1.5207 C.ar    1  UNL1        0.1204
     25 N           3.4168    1.8570   -1.2602 N.ar    1  UNL1       -0.2200
     26 H          -1.8528   -2.7609    0.3758 H       1  UNL1        0.1182
     27 H          -2.7802   -2.4072    1.7564 H       1  UNL1        0.1182
     28 H          -0.3206   -1.6241    1.5260 H       1  UNL1        0.0427
     29 H          -1.5175   -0.7190    2.4551 H       1  UNL1        0.0427
     30 H          -2.5714    1.4803    1.3129 H       1  UNL1        0.0319
     31 H          -1.7998    1.9031   -0.2117 H       1  UNL1        0.0319
     32 H          -4.3603   -0.2168    1.5375 H       1  UNL1        0.0621
     33 H          -6.2705   -1.2286    0.4930 H       1  UNL1        0.0632
     34 H          -4.7321   -0.2014   -3.3566 H       1  UNL1        0.0632
     35 H          -2.8113    0.8124   -2.2958 H       1  UNL1        0.0621
     36 H          -0.9257   -1.2833   -1.0811 H       1  UNL1        0.0286
     37 H          -0.5808    0.3973   -1.5126 H       1  UNL1        0.0286
     38 H           1.2052   -1.4256    0.1556 H       1  UNL1        0.0464
     39 H           1.3725   -1.0195   -1.5842 H       1  UNL1        0.0464
     40 H           0.2041    2.0141   -0.5528 H       1  UNL1        0.0464
     41 H           1.4878    2.4360    0.6656 H       1  UNL1        0.0464
     42 H          -0.5058    1.6701    1.9676 H       1  UNL1        0.0286
     43 H           0.6583    0.2684    1.9413 H       1  UNL1        0.0286
     44 H           3.2456   -1.3832    1.4160 H       1  UNL1        0.0640
     45 H           5.8393   -1.9357    1.9713 H       1  UNL1        0.0807
     46 H           7.2933   -0.2280    0.6124 H       1  UNL1        0.1668
     47 H           4.9288    3.0588   -2.1980 H       1  UNL1        0.1048
@<TRIPOS>BOND
     1     1     2    1
     2     2     3    1
     3     3     4    1
     4     4     5    1
     5     5     6   ar
     6     6     7   ar
     7     7     8   ar
     8     8     9    1
     9     8    10   ar
    10    10    11   ar
    11     3    12    1
    12    12    13    1
    13    13    14    1
    14    14    15    1
    15    15    16    1
    16    14    17    1
    17    17    18   ar
    18    18    19   ar
    19    19    20   ar
    20    20    21   ar
    21    21    22   ar
    22    22    23   ar
    23    23    24   ar
    24    24    25   ar
    25    16     3    1
    26    25    17   ar
    27    11     5   ar
    28    22    18   ar
    29     1    26    1
    30     1    27    1
    31     2    28    1
    32     2    29    1
    33     4    30    1
    34     4    31    1
    35     6    32    1
    36     7    33    1
    37    10    34    1
    38    11    35    1
    39    12    36    1
    40    12    37    1
    41    13    38    1
    42    13    39    1
    43    15    40    1
    44    15    41    1
    45    16    42    1
    46    16    43    1
    47    19    44    1
    48    20    45    1
    49    21    46    1
    50    24    47    1
