
     RDKit          3D

 47 50  0  0  0  0  0  0  0  0999 V2000
   -2.2924   -1.9831    0.9258 N   0  0  0  0  0  0  0  0  0  0  0  0
   -1.2908   -1.0884    1.4204 C   0  0  0  0  0  0  0  0  0  0  0  0
   -1.0305    0.1173    0.5824 C   0  0  0  0  0  0  0  0  0  0  0  0
   -2.2002    1.0249    0.3721 C   0  0  0  0  0  0  0  0  0  0  0  0
   -3.3639    0.4147   -0.2868 C   0  0  0  0  0  0  0  0  0  0  0  0
   -4.3901   -0.1862    0.4432 C   0  0  0  0  0  0  0  0  0  0  0  0
   -5.5043   -0.7768   -0.1178 C   0  0  0  0  0  0  0  0  0  0  0  0
   -5.6434   -0.7911   -1.4863 C   0  0  0  0  0  0  0  0  0  0  0  0
   -7.0116   -1.5123   -2.2634 Cl  0  0  0  0  0  0  0  0  0  0  0  0
   -4.6548   -0.2086   -2.2650 C   0  0  0  0  0  0  0  0  0  0  0  0
   -3.5575    0.3703   -1.6532 C   0  0  0  0  0  0  0  0  0  0  0  0
   -0.4334   -0.3492   -0.7222 C   0  0  0  0  0  0  0  0  0  0  0  0
    1.0569   -0.6194   -0.5905 C   0  0  0  0  0  0  0  0  0  0  0  0
    1.7527    0.5897   -0.2745 N   0  0  0  0  0  0  0  0  0  0  0  0
    0.8561    1.6250    0.2508 C   0  0  0  0  0  0  0  0  0  0  0  0
    0.0254    0.9497    1.3216 C   0  0  0  0  0  0  0  0  0  0  0  0
    3.1346    0.8330   -0.4232 C   0  0  0  0  0  0  0  0  0  0  0  0
    4.1932    0.1708    0.1650 C   0  0  0  0  0  0  0  0  0  0  0  0
    4.1162   -0.8884    1.0391 C   0  0  0  0  0  0  0  0  0  0  0  0
    5.4547   -1.1745    1.3265 C   0  0  0  0  0  0  0  0  0  0  0  0
    6.2521   -0.3165    0.6463 N   0  0  0  0  0  0  0  0  0  0  0  0
    5.4987    0.5375   -0.0893 C   0  0  0  0  0  0  0  0  0  0  0  0
    5.7207    1.5677   -0.9337 N   0  0  0  0  0  0  0  0  0  0  0  0
    4.6887    2.2297   -1.5207 C   0  0  0  0  0  0  0  0  0  0  0  0
    3.4168    1.8570   -1.2602 N   0  0  0  0  0  0  0  0  0  0  0  0
   -1.8528   -2.7609    0.3758 H   0  0  0  0  0  0  0  0  0  0  0  0
   -2.7802   -2.4072    1.7564 H   0  0  0  0  0  0  0  0  0  0  0  0
   -0.3206   -1.6241    1.5260 H   0  0  0  0  0  0  0  0  0  0  0  0
   -1.5175   -0.7190    2.4551 H   0  0  0  0  0  0  0  0  0  0  0  0
   -2.5714    1.4803    1.3129 H   0  0  0  0  0  0  0  0  0  0  0  0
   -1.7998    1.9031   -0.2117 H   0  0  0  0  0  0  0  0  0  0  0  0
   -4.3603   -0.2168    1.5375 H   0  0  0  0  0  0  0  0  0  0  0  0
   -6.2705   -1.2286    0.4930 H   0  0  0  0  0  0  0  0  0  0  0  0
   -4.7321   -0.2014   -3.3566 H   0  0  0  0  0  0  0  0  0  0  0  0
   -2.8113    0.8124   -2.2958 H   0  0  0  0  0  0  0  0  0  0  0  0
   -0.9257   -1.2833   -1.0811 H   0  0  0  0  0  0  0  0  0  0  0  0
   -0.5808    0.3973   -1.5126 H   0  0  0  0  0  0  0  0  0  0  0  0
    1.2052   -1.4256    0.1556 H   0  0  0  0  0  0  0  0  0  0  0  0
    1.3725   -1.0195   -1.5842 H   0  0  0  0  0  0  0  0  0  0  0  0
    0.2041    2.0141   -0.5528 H   0  0  0  0  0  0  0  0  0  0  0  0
    1.4878    2.4360    0.6656 H   0  0  0  0  0  0  0  0  0  0  0  0
   -0.5058    1.6701    1.9676 H   0  0  0  0  0  0  0  0  0  0  0  0
    0.6583    0.2684    1.9413 H   0  0  0  0  0  0  0  0  0  0  0  0
    3.2456   -1.3832    1.4160 H   0  0  0  0  0  0  0  0  0  0  0  0
    5.8393   -1.9357    1.9713 H   0  0  0  0  0  0  0  0  0  0  0  0
    7.2933   -0.2280    0.6124 H   0  0  0  0  0  0  0  0  0  0  0  0
    4.9288    3.0588   -2.1980 H   0  0  0  0  0  0  0  0  0  0  0  0
  1  2  1  0
  2  3  1  0
  3  4  1  0
  4  5  1  0
  5  6  2  0
  6  7  1  0
  7  8  2  0
  8  9  1  0
  8 10  1  0
 10 11  2  0
  3 12  1  0
 12 13  1  0
 13 14  1  0
 14 15  1  0
 15 16  1  0
 14 17  1  0
 17 18  2  0
 18 19  1  0
 19 20  2  0
 20 21  1  0
 21 22  1  0
 22 23  2  0
 23 24  1  0
 24 25  2  0
 16  3  1  0
 25 17  1  0
 11  5  1  0
 22 18  1  0
  1 26  1  0
  1 27  1  0
  2 28  1  0
  2 29  1  0
  4 30  1  0
  4 31  1  0
  6 32  1  0
  7 33  1  0
 10 34  1  0
 11 35  1  0
 12 36  1  0
 12 37  1  0
 13 38  1  0
 13 39  1  0
 15 40  1  0
 15 41  1  0
 16 42  1  0
 16 43  1  0
 19 44  1  0
 20 45  1  0
 21 46  1  0
 24 47  1  0
M  END
$$$$
