@<TRIPOS>MOLECULE
*****
 70 72 0 0 0
SMALL
GASTEIGER

@<TRIPOS>ATOM
      1 C          -5.5474   -3.6090    0.8451 C.3     1  UNL1       -0.0379
      2 C          -6.2361   -2.4188    1.3968 C.ar    1  UNL1       -0.0282
      3 C          -7.4297   -2.6362    2.0957 C.ar    1  UNL1       -0.0397
      4 C          -8.1615   -1.6061    2.6206 C.ar    1  UNL1        0.0521
      5 C          -9.3879   -1.7823    3.3453 C.1     1  UNL1        0.0992
      6 N         -10.3695   -1.9368    3.9317 N.1     1  UNL1       -0.1909
      7 C          -7.7204   -0.3049    2.4622 C.ar    1  UNL1       -0.0426
      8 C          -6.5613   -0.0541    1.7875 C.ar    1  UNL1       -0.0392
      9 C          -5.8116   -1.1262    1.2505 C.ar    1  UNL1        0.0328
     10 N          -4.5876   -0.8390    0.6083 N.pl3   1  UNL1       -0.3271
     11 C          -4.4418    0.4947    0.0057 C.3     1  UNL1        0.0267
     12 C          -3.1538    0.5731   -0.7963 C.3     1  UNL1        0.0373
     13 N          -2.0059    0.2783    0.0399 N.3     1  UNL1       -0.1636
     14 S          -1.4826    1.6550    0.9257 S.O2    1  UNL1        0.0978
     15 O          -2.5126    2.1254    1.9099 O.2     1  UNL1       -0.1411
     16 O          -0.2748    1.2539    1.7311 O.2     1  UNL1       -0.1411
     17 N          -0.9715    2.9516   -0.1077 N.3     1  UNL1       -0.1678
     18 C           0.1870    2.4670   -0.9082 C.3     1  UNL1        0.1078
     19 C           1.3459    3.3092   -0.4825 C.3     1  UNL1       -0.0259
     20 C           2.6585    3.0349   -1.1044 C.3     1  UNL1       -0.0354
     21 C           3.1514    1.6232   -0.8540 C.3     1  UNL1        0.0148
     22 N           4.4343    1.4800   -1.5042 N.am    1  UNL1       -0.2811
     23 C           5.1184    0.2126   -1.4220 C.2     1  UNL1        0.4006
     24 O           4.5565   -0.6920   -0.7924 O.2     1  UNL1       -0.2265
     25 O           6.3327    0.0730   -2.0307 O.3     1  UNL1       -0.4456
     26 C           7.0964   -1.0813   -2.0348 C.3     1  UNL1        0.1191
     27 C           7.4737   -1.5360   -0.6826 C.ar    1  UNL1       -0.0103
     28 C           8.5792   -0.9696   -0.0630 C.ar    1  UNL1       -0.0554
     29 C           8.9333   -1.4121    1.1846 C.ar    1  UNL1       -0.0614
     30 C           8.2236   -2.3919    1.8225 C.ar    1  UNL1       -0.0617
     31 C           7.1276   -2.9585    1.2142 C.ar    1  UNL1       -0.0614
     32 C           6.7526   -2.5275   -0.0436 C.ar    1  UNL1       -0.0554
     33 C          -0.1352    2.5880   -2.3393 C.2     1  UNL1        0.2541
     34 O          -1.2072    3.1919   -2.6550 O.2     1  UNL1       -0.2720
     35 N           0.6309    2.0944   -3.4096 N.am    1  UNL1       -0.1962
     36 O           0.2007    2.2891   -4.6957 O.3     1  UNL1       -0.2951
     37 C          -2.2351   -0.7995    0.9438 C.3     1  UNL1        0.0373
     38 C          -3.4360   -1.6844    0.5117 C.3     1  UNL1        0.0267
     39 H          -6.3952   -4.3349    0.5824 H       1  UNL1        0.0278
     40 H          -5.0372   -3.4534   -0.1034 H       1  UNL1        0.0278
     41 H          -4.9871   -4.1652    1.6166 H       1  UNL1        0.0278
     42 H          -7.7706   -3.6554    2.2159 H       1  UNL1        0.0634
     43 H          -8.2646    0.5450    2.8573 H       1  UNL1        0.0631
     44 H          -6.1744    0.9666    1.6385 H       1  UNL1        0.0636
     45 H          -4.3726    1.2892    0.7671 H       1  UNL1        0.0477
     46 H          -5.2844    0.6028   -0.7003 H       1  UNL1        0.0477
     47 H          -3.0579    1.6264   -1.1317 H       1  UNL1        0.0460
     48 H          -3.1931   -0.0559   -1.7090 H       1  UNL1        0.0460
     49 H          -0.6466    3.7061    0.5152 H       1  UNL1        0.1499
     50 H           0.3873    1.4253   -0.6352 H       1  UNL1        0.0574
     51 H           1.4138    3.2391    0.6404 H       1  UNL1        0.0286
     52 H           1.0742    4.3652   -0.7022 H       1  UNL1        0.0286
     53 H           2.6631    3.2998   -2.1662 H       1  UNL1        0.0281
     54 H           3.4018    3.7228   -0.6090 H       1  UNL1        0.0281
     55 H           2.4716    0.8380   -1.1714 H       1  UNL1        0.0463
     56 H           3.2535    1.4889    0.2632 H       1  UNL1        0.0463
     57 H           4.9027    2.2525   -2.0391 H       1  UNL1        0.1520
     58 H           6.5013   -1.8674   -2.5749 H       1  UNL1        0.0749
     59 H           8.0353   -0.9509   -2.6166 H       1  UNL1        0.0749
     60 H           9.1264   -0.1994   -0.5789 H       1  UNL1        0.0621
     61 H           9.8013   -0.9921    1.7113 H       1  UNL1        0.0618
     62 H           8.5208   -2.7359    2.8255 H       1  UNL1        0.0618
     63 H           6.5595   -3.7416    1.7210 H       1  UNL1        0.0618
     64 H           5.9008   -2.9861   -0.5140 H       1  UNL1        0.0621
     65 H           1.5071    1.5772   -3.2084 H       1  UNL1        0.1822
     66 H           0.8780    1.8862   -5.2882 H       1  UNL1        0.2414
     67 H          -1.3547   -1.4704    0.9344 H       1  UNL1        0.0460
     68 H          -2.3975   -0.4752    1.9894 H       1  UNL1        0.0460
     69 H          -3.3953   -2.5040    1.2699 H       1  UNL1        0.0477
     70 H          -3.2006   -2.0348   -0.5063 H       1  UNL1        0.0477
@<TRIPOS>BOND
     1     1     2    1
     2     2     3   ar
     3     3     4   ar
     4     4     5    1
     5     5     6    3
     6     4     7   ar
     7     7     8   ar
     8     8     9   ar
     9     9    10    1
    10    10    11    1
    11    11    12    1
    12    12    13    1
    13    13    14    1
    14    14    15    2
    15    14    16    2
    16    14    17    1
    17    17    18    1
    18    18    19    1
    19    19    20    1
    20    20    21    1
    21    21    22    1
    22    22    23   am
    23    23    24    2
    24    23    25    1
    25    25    26    1
    26    26    27    1
    27    27    28   ar
    28    28    29   ar
    29    29    30   ar
    30    30    31   ar
    31    31    32   ar
    32    18    33    1
    33    33    34    2
    34    33    35   am
    35    35    36    1
    36    13    37    1
    37    37    38    1
    38     9     2   ar
    39    38    10    1
    40    32    27   ar
    41     1    39    1
    42     1    40    1
    43     1    41    1
    44     3    42    1
    45     7    43    1
    46     8    44    1
    47    11    45    1
    48    11    46    1
    49    12    47    1
    50    12    48    1
    51    17    49    1
    52    18    50    1
    53    19    51    1
    54    19    52    1
    55    20    53    1
    56    20    54    1
    57    21    55    1
    58    21    56    1
    59    22    57    1
    60    26    58    1
    61    26    59    1
    62    28    60    1
    63    29    61    1
    64    30    62    1
    65    31    63    1
    66    32    64    1
    67    35    65    1
    68    36    66    1
    69    37    67    1
    70    37    68    1
    71    38    69    1
    72    38    70    1
