@<TRIPOS>MOLECULE
*****
 52 52 0 0 0
SMALL
GASTEIGER

@<TRIPOS>ATOM
      1 C          -6.9077    2.7134    0.0967 C.3     1  UNL1       -0.0306
      2 C          -5.9324    2.3063   -0.9722 C.3     1  UNL1        0.0900
      3 O          -5.0676    1.2638   -0.5339 O.3     1  UNL1       -0.4614
      4 C          -5.5508    0.0323   -0.1176 C.2     1  UNL1        0.3393
      5 O          -6.7827   -0.1597   -0.1294 O.2     1  UNL1       -0.2450
      6 C          -4.6562   -1.0342    0.3296 C.ar    1  UNL1        0.0622
      7 C          -5.1947   -2.2450    0.7383 C.ar    1  UNL1       -0.0296
      8 C          -4.3163   -3.2209    1.1470 C.ar    1  UNL1        0.0287
      9 N          -2.9868   -3.0438    1.1632 N.ar    1  UNL1       -0.2586
     10 C          -2.4096   -1.8672    0.7692 C.ar    1  UNL1        0.0558
     11 C          -0.9297   -1.7139    0.7990 C.3     1  UNL1        0.0389
     12 N          -0.4244   -2.1236   -0.5011 N.3     1  UNL1       -0.3027
     13 C           0.9975   -2.1071   -0.5894 C.3     1  UNL1        0.0737
     14 C           1.6195   -0.7745   -0.5532 C.2     1  UNL1        0.2295
     15 O           0.8839    0.2351   -0.4655 O.2     1  UNL1       -0.2742
     16 N           3.0132   -0.6412   -0.6145 N.am    1  UNL1       -0.2995
     17 C           3.8380   -1.8134   -0.7137 C.3     1  UNL1        0.0119
     18 C           4.2365   -2.3590    0.6385 C.3     1  UNL1       -0.0493
     19 C           3.6210    0.6639   -0.5816 C.3     1  UNL1        0.0274
     20 C           3.8894    1.0748    0.8290 C.3     1  UNL1        0.0141
     21 N           4.5067    2.3556    0.9081 N.3     1  UNL1       -0.3069
     22 C           3.6744    3.4601    0.5137 C.3     1  UNL1       -0.0130
     23 C           5.7430    2.3849    0.1806 C.3     1  UNL1       -0.0130
     24 C          -3.2841   -0.8871    0.3591 C.ar    1  UNL1       -0.0252
     25 H          -6.5180    2.4848    1.1153 H       1  UNL1        0.0262
     26 H          -7.9077    2.2448   -0.0391 H       1  UNL1        0.0262
     27 H          -7.0287    3.8109    0.0509 H       1  UNL1        0.0262
     28 H          -6.4545    1.9502   -1.8611 H       1  UNL1        0.0695
     29 H          -5.3111    3.1889   -1.2577 H       1  UNL1        0.0695
     30 H          -6.2749   -2.4018    0.7304 H       1  UNL1        0.0641
     31 H          -4.7215   -4.1691    1.4703 H       1  UNL1        0.0830
     32 H          -0.6865   -0.6697    0.9547 H       1  UNL1        0.0489
     33 H          -0.4688   -2.2862    1.6245 H       1  UNL1        0.0489
     34 H          -0.8572   -1.4132   -1.1705 H       1  UNL1        0.1228
     35 H           1.2664   -2.6404   -1.5513 H       1  UNL1        0.0520
     36 H           1.3911   -2.7926    0.2053 H       1  UNL1        0.0520
     37 H           4.7732   -1.6519   -1.2958 H       1  UNL1        0.0462
     38 H           3.2810   -2.6510   -1.2329 H       1  UNL1        0.0462
     39 H           4.0823   -3.4628    0.7081 H       1  UNL1        0.0245
     40 H           5.3111   -2.1965    0.8210 H       1  UNL1        0.0245
     41 H           3.6022   -1.9306    1.4650 H       1  UNL1        0.0245
     42 H           4.6167    0.6676   -1.1105 H       1  UNL1        0.0477
     43 H           3.0131    1.4372   -1.0860 H       1  UNL1        0.0477
     44 H           4.5119    0.3090    1.3205 H       1  UNL1        0.0442
     45 H           2.8996    1.0899    1.3627 H       1  UNL1        0.0442
     46 H           3.2977    3.3390   -0.5066 H       1  UNL1        0.0391
     47 H           2.8686    3.6780    1.2527 H       1  UNL1        0.0391
     48 H           4.3615    4.3597    0.4698 H       1  UNL1        0.0391
     49 H           5.5899    2.7708   -0.8446 H       1  UNL1        0.0391
     50 H           6.1372    1.3423    0.1385 H       1  UNL1        0.0391
     51 H           6.5016    3.0278    0.7154 H       1  UNL1        0.0391
     52 H          -2.8561    0.0649    0.0378 H       1  UNL1        0.0644
@<TRIPOS>BOND
     1     1     2    1
     2     2     3    1
     3     3     4    1
     4     4     5    2
     5     4     6    1
     6     6     7   ar
     7     7     8   ar
     8     8     9   ar
     9     9    10   ar
    10    10    11    1
    11    11    12    1
    12    12    13    1
    13    13    14    1
    14    14    15    2
    15    14    16   am
    16    16    17    1
    17    17    18    1
    18    16    19    1
    19    19    20    1
    20    20    21    1
    21    21    22    1
    22    21    23    1
    23    10    24   ar
    24    24     6   ar
    25     1    25    1
    26     1    26    1
    27     1    27    1
    28     2    28    1
    29     2    29    1
    30     7    30    1
    31     8    31    1
    32    11    32    1
    33    11    33    1
    34    12    34    1
    35    13    35    1
    36    13    36    1
    37    17    37    1
    38    17    38    1
    39    18    39    1
    40    18    40    1
    41    18    41    1
    42    19    42    1
    43    19    43    1
    44    20    44    1
    45    20    45    1
    46    22    46    1
    47    22    47    1
    48    22    48    1
    49    23    49    1
    50    23    50    1
    51    23    51    1
    52    24    52    1
