
     RDKit          3D

 52 52  0  0  0  0  0  0  0  0999 V2000
   -6.9077    2.7134    0.0967 C   0  0  0  0  0  0  0  0  0  0  0  0
   -5.9324    2.3063   -0.9722 C   0  0  0  0  0  0  0  0  0  0  0  0
   -5.0676    1.2638   -0.5339 O   0  0  0  0  0  0  0  0  0  0  0  0
   -5.5508    0.0323   -0.1176 C   0  0  0  0  0  0  0  0  0  0  0  0
   -6.7827   -0.1597   -0.1294 O   0  0  0  0  0  0  0  0  0  0  0  0
   -4.6562   -1.0342    0.3296 C   0  0  0  0  0  0  0  0  0  0  0  0
   -5.1947   -2.2450    0.7383 C   0  0  0  0  0  0  0  0  0  0  0  0
   -4.3163   -3.2209    1.1470 C   0  0  0  0  0  0  0  0  0  0  0  0
   -2.9868   -3.0438    1.1632 N   0  0  0  0  0  0  0  0  0  0  0  0
   -2.4096   -1.8672    0.7692 C   0  0  0  0  0  0  0  0  0  0  0  0
   -0.9297   -1.7139    0.7990 C   0  0  0  0  0  0  0  0  0  0  0  0
   -0.4244   -2.1236   -0.5011 N   0  0  0  0  0  0  0  0  0  0  0  0
    0.9975   -2.1071   -0.5894 C   0  0  0  0  0  0  0  0  0  0  0  0
    1.6195   -0.7745   -0.5532 C   0  0  0  0  0  0  0  0  0  0  0  0
    0.8839    0.2351   -0.4655 O   0  0  0  0  0  0  0  0  0  0  0  0
    3.0132   -0.6412   -0.6145 N   0  0  0  0  0  0  0  0  0  0  0  0
    3.8380   -1.8134   -0.7137 C   0  0  0  0  0  0  0  0  0  0  0  0
    4.2365   -2.3590    0.6385 C   0  0  0  0  0  0  0  0  0  0  0  0
    3.6210    0.6639   -0.5816 C   0  0  0  0  0  0  0  0  0  0  0  0
    3.8894    1.0748    0.8290 C   0  0  0  0  0  0  0  0  0  0  0  0
    4.5067    2.3556    0.9081 N   0  0  0  0  0  0  0  0  0  0  0  0
    3.6744    3.4601    0.5137 C   0  0  0  0  0  0  0  0  0  0  0  0
    5.7430    2.3849    0.1806 C   0  0  0  0  0  0  0  0  0  0  0  0
   -3.2841   -0.8871    0.3591 C   0  0  0  0  0  0  0  0  0  0  0  0
   -6.5180    2.4848    1.1153 H   0  0  0  0  0  0  0  0  0  0  0  0
   -7.9077    2.2448   -0.0391 H   0  0  0  0  0  0  0  0  0  0  0  0
   -7.0287    3.8109    0.0509 H   0  0  0  0  0  0  0  0  0  0  0  0
   -6.4545    1.9502   -1.8611 H   0  0  0  0  0  0  0  0  0  0  0  0
   -5.3111    3.1889   -1.2577 H   0  0  0  0  0  0  0  0  0  0  0  0
   -6.2749   -2.4018    0.7304 H   0  0  0  0  0  0  0  0  0  0  0  0
   -4.7215   -4.1691    1.4703 H   0  0  0  0  0  0  0  0  0  0  0  0
   -0.6865   -0.6697    0.9547 H   0  0  0  0  0  0  0  0  0  0  0  0
   -0.4688   -2.2862    1.6245 H   0  0  0  0  0  0  0  0  0  0  0  0
   -0.8572   -1.4132   -1.1705 H   0  0  0  0  0  0  0  0  0  0  0  0
    1.2664   -2.6404   -1.5513 H   0  0  0  0  0  0  0  0  0  0  0  0
    1.3911   -2.7926    0.2053 H   0  0  0  0  0  0  0  0  0  0  0  0
    4.7732   -1.6519   -1.2958 H   0  0  0  0  0  0  0  0  0  0  0  0
    3.2810   -2.6510   -1.2329 H   0  0  0  0  0  0  0  0  0  0  0  0
    4.0823   -3.4628    0.7081 H   0  0  0  0  0  0  0  0  0  0  0  0
    5.3111   -2.1965    0.8210 H   0  0  0  0  0  0  0  0  0  0  0  0
    3.6022   -1.9306    1.4650 H   0  0  0  0  0  0  0  0  0  0  0  0
    4.6167    0.6676   -1.1105 H   0  0  0  0  0  0  0  0  0  0  0  0
    3.0131    1.4372   -1.0860 H   0  0  0  0  0  0  0  0  0  0  0  0
    4.5119    0.3090    1.3205 H   0  0  0  0  0  0  0  0  0  0  0  0
    2.8996    1.0899    1.3627 H   0  0  0  0  0  0  0  0  0  0  0  0
    3.2977    3.3390   -0.5066 H   0  0  0  0  0  0  0  0  0  0  0  0
    2.8686    3.6780    1.2527 H   0  0  0  0  0  0  0  0  0  0  0  0
    4.3615    4.3597    0.4698 H   0  0  0  0  0  0  0  0  0  0  0  0
    5.5899    2.7708   -0.8446 H   0  0  0  0  0  0  0  0  0  0  0  0
    6.1372    1.3423    0.1385 H   0  0  0  0  0  0  0  0  0  0  0  0
    6.5016    3.0278    0.7154 H   0  0  0  0  0  0  0  0  0  0  0  0
   -2.8561    0.0649    0.0378 H   0  0  0  0  0  0  0  0  0  0  0  0
  1  2  1  0
  2  3  1  0
  3  4  1  0
  4  5  2  0
  4  6  1  0
  6  7  2  0
  7  8  1  0
  8  9  2  0
  9 10  1  0
 10 11  1  0
 11 12  1  0
 12 13  1  0
 13 14  1  0
 14 15  2  0
 14 16  1  0
 16 17  1  0
 17 18  1  0
 16 19  1  0
 19 20  1  0
 20 21  1  0
 21 22  1  0
 21 23  1  0
 10 24  2  0
 24  6  1  0
  1 25  1  0
  1 26  1  0
  1 27  1  0
  2 28  1  0
  2 29  1  0
  7 30  1  0
  8 31  1  0
 11 32  1  0
 11 33  1  0
 12 34  1  0
 13 35  1  0
 13 36  1  0
 17 37  1  0
 17 38  1  0
 18 39  1  0
 18 40  1  0
 18 41  1  0
 19 42  1  0
 19 43  1  0
 20 44  1  0
 20 45  1  0
 22 46  1  0
 22 47  1  0
 22 48  1  0
 23 49  1  0
 23 50  1  0
 23 51  1  0
 24 52  1  0
M  END
$$$$
