@<TRIPOS>MOLECULE
*****
 54 53 0 0 0
SMALL
GASTEIGER

@<TRIPOS>ATOM
      1 C           8.3779    0.8660   -0.0344 C.3     1  UNL1       -0.0653
      2 C           7.5693   -0.3727    0.2431 C.3     1  UNL1       -0.0559
      3 C           6.1840   -0.0692    0.7827 C.3     1  UNL1       -0.0533
      4 C           5.4271    0.7572   -0.2229 C.3     1  UNL1       -0.0528
      5 C           4.0321    1.0956    0.2524 C.3     1  UNL1       -0.0496
      6 C           3.2103   -0.1506    0.5061 C.3     1  UNL1       -0.0348
      7 C           1.8475    0.1879    0.9716 C.2     1  UNL1       -0.0879
      8 C           0.6624   -0.1131    0.4032 C.2     1  UNL1       -0.0879
      9 C           0.5676   -0.8736   -0.8460 C.3     1  UNL1       -0.0348
     10 C          -0.2153   -2.1453   -0.6096 C.3     1  UNL1       -0.0496
     11 C          -1.6198   -1.8717   -0.1227 C.3     1  UNL1       -0.0528
     12 C          -2.4375   -1.0652   -1.0678 C.3     1  UNL1       -0.0530
     13 C          -3.8691   -0.7987   -0.5799 C.3     1  UNL1       -0.0531
     14 C          -3.9268   -0.0620    0.6778 C.3     1  UNL1       -0.0530
     15 C          -5.1537    0.2294    1.4219 C.3     1  UNL1       -0.0526
     16 C          -6.3233    0.9693    0.9590 C.3     1  UNL1       -0.0430
     17 C          -7.2638    0.4821   -0.0591 C.3     1  UNL1        0.0448
     18 C          -6.8701    0.1893   -1.4164 C.2     1  UNL1        0.3047
     19 O          -6.5596    1.2238   -2.2883 O.3     1  UNL1       -0.4806
     20 O          -6.8138   -1.0321   -1.7972 O.2     1  UNL1       -0.2510
     21 H           9.4504    0.5382   -0.0999 H       1  UNL1        0.0230
     22 H           8.2411    1.6183    0.7516 H       1  UNL1        0.0230
     23 H           8.0785    1.3105   -1.0124 H       1  UNL1        0.0230
     24 H           7.4040   -0.9570   -0.6926 H       1  UNL1        0.0263
     25 H           8.1303   -0.9984    0.9895 H       1  UNL1        0.0263
     26 H           5.6838   -1.0492    0.9144 H       1  UNL1        0.0265
     27 H           6.2150    0.3968    1.7821 H       1  UNL1        0.0265
     28 H           5.9676    1.7155   -0.3689 H       1  UNL1        0.0265
     29 H           5.4295    0.2195   -1.1897 H       1  UNL1        0.0265
     30 H           4.1165    1.7171    1.1507 H       1  UNL1        0.0268
     31 H           3.5269    1.6667   -0.5501 H       1  UNL1        0.0268
     32 H           3.7058   -0.6358    1.3965 H       1  UNL1        0.0307
     33 H           3.2782   -0.8853   -0.2866 H       1  UNL1        0.0307
     34 H           1.8179    0.7607    1.9057 H       1  UNL1        0.0569
     35 H          -0.2445    0.2233    0.8906 H       1  UNL1        0.0569
     36 H          -0.0028   -0.2644   -1.6028 H       1  UNL1        0.0307
     37 H           1.5210   -1.1019   -1.3238 H       1  UNL1        0.0307
     38 H          -0.1574   -2.8484   -1.4527 H       1  UNL1        0.0268
     39 H           0.3000   -2.6450    0.2562 H       1  UNL1        0.0268
     40 H          -1.5093   -1.3662    0.8454 H       1  UNL1        0.0265
     41 H          -2.1060   -2.8678    0.0121 H       1  UNL1        0.0265
     42 H          -1.9873   -0.0556   -1.2097 H       1  UNL1        0.0265
     43 H          -2.5382   -1.5129   -2.0736 H       1  UNL1        0.0265
     44 H          -4.4515   -1.7135   -0.5718 H       1  UNL1        0.0265
     45 H          -4.2999   -0.1276   -1.4017 H       1  UNL1        0.0265
     46 H          -3.1928   -0.4793    1.4540 H       1  UNL1        0.0265
     47 H          -3.4345    0.9860    0.5182 H       1  UNL1        0.0265
     48 H          -4.8574    0.6834    2.4591 H       1  UNL1        0.0265
     49 H          -5.5336   -0.8021    1.8420 H       1  UNL1        0.0265
     50 H          -6.9559    1.3206    1.8784 H       1  UNL1        0.0270
     51 H          -5.9207    2.0024    0.5943 H       1  UNL1        0.0270
     52 H          -7.7651   -0.4547    0.4204 H       1  UNL1        0.0377
     53 H          -8.1160    1.2634   -0.0903 H       1  UNL1        0.0377
     54 H          -6.6188    1.0697   -3.3079 H       1  UNL1        0.2951
@<TRIPOS>BOND
     1     1     2    1
     2     2     3    1
     3     3     4    1
     4     4     5    1
     5     5     6    1
     6     6     7    1
     7     7     8    2
     8     8     9    1
     9     9    10    1
    10    10    11    1
    11    11    12    1
    12    12    13    1
    13    13    14    1
    14    14    15    1
    15    15    16    1
    16    16    17    1
    17    17    18    1
    18    18    19    1
    19    18    20    2
    20     1    21    1
    21     1    22    1
    22     1    23    1
    23     2    24    1
    24     2    25    1
    25     3    26    1
    26     3    27    1
    27     4    28    1
    28     4    29    1
    29     5    30    1
    30     5    31    1
    31     6    32    1
    32     6    33    1
    33     7    34    1
    34     8    35    1
    35     9    36    1
    36     9    37    1
    37    10    38    1
    38    10    39    1
    39    11    40    1
    40    11    41    1
    41    12    42    1
    42    12    43    1
    43    13    44    1
    44    13    45    1
    45    14    46    1
    46    14    47    1
    47    15    48    1
    48    15    49    1
    49    16    50    1
    50    16    51    1
    51    17    52    1
    52    17    53    1
    53    19    54    1
