@<TRIPOS>MOLECULE
*****
 54 58 0 0 0
SMALL
GASTEIGER

@<TRIPOS>ATOM
      1 O          -2.0415   -0.7874    2.9411 O.2     1  UNL1       -0.2699
      2 C          -2.0397   -0.7474    1.6891 C.2     1  UNL1        0.2491
      3 C          -3.0099    0.1734    1.0573 C.ar    1  UNL1        0.0653
      4 C          -4.2331   -0.2749    0.6297 C.ar    1  UNL1       -0.0292
      5 C          -5.1357    0.5543    0.0188 C.ar    1  UNL1        0.0418
      6 CL         -6.6935   -0.1082   -0.5025 Cl      1  UNL1       -0.0835
      7 C          -4.8207    1.8741   -0.1778 C.ar    1  UNL1       -0.0413
      8 C          -3.5973    2.3174    0.2517 C.ar    1  UNL1       -0.0324
      9 C          -2.6669    1.4865    0.8760 C.ar    1  UNL1        0.0983
     10 N          -1.4272    1.9831    1.3291 N.ar    1  UNL1       -0.1496
     11 N          -0.6925    1.4575    2.2829 N.ar    1  UNL1       -0.1556
     12 C           0.4217    2.1979    2.4673 C.ar    1  UNL1        0.0697
     13 C           0.3550    3.2217    1.5789 C.ar    1  UNL1        0.0697
     14 N          -0.8107    3.0519    0.8893 N.ar    1  UNL1       -0.1556
     15 N          -1.1603   -1.5406    0.9018 N.am    1  UNL1       -0.2897
     16 C          -1.2435   -1.4279   -0.5405 C.3     1  UNL1        0.0388
     17 C          -0.8660   -2.7517   -1.1979 C.3     1  UNL1        0.0635
     18 O          -1.0809   -3.8114   -0.3629 O.3     1  UNL1       -0.3764
     19 C          -0.3483   -3.8418    0.8013 C.3     1  UNL1        0.0666
     20 C          -0.2177   -2.4613    1.4664 C.3     1  UNL1        0.0537
     21 C           1.1775   -2.0183    1.6244 C.3     1  UNL1       -0.0068
     22 C           1.9648   -1.6288    0.4736 C.ar    1  UNL1       -0.0449
     23 C           2.7528   -2.5397   -0.1932 C.ar    1  UNL1       -0.0585
     24 C           3.5172   -2.2217   -1.2880 C.ar    1  UNL1       -0.0608
     25 C           3.5218   -0.9352   -1.7732 C.ar    1  UNL1       -0.0510
     26 C           2.7381    0.0242   -1.1295 C.ar    1  UNL1        0.0194
     27 C           2.7825    1.3674   -1.6896 C.ar    1  UNL1        0.1597
     28 N           2.0325    2.3028   -1.0875 N.ar    1  UNL1       -0.2357
     29 C           1.9704    3.5805   -1.4878 C.ar    1  UNL1        0.0314
     30 C           2.7150    3.9595   -2.5759 C.ar    1  UNL1       -0.0254
     31 C           3.4849    2.9864   -3.1891 C.ar    1  UNL1        0.0314
     32 N           3.5093    1.7119   -2.7422 N.ar    1  UNL1       -0.2357
     33 C           1.9888   -0.3455   -0.0348 C.ar    1  UNL1       -0.0478
     34 H          -4.5122   -1.3089    0.7694 H       1  UNL1        0.0640
     35 H          -5.5347    2.5105   -0.6565 H       1  UNL1        0.0633
     36 H          -3.3498    3.3510    0.0982 H       1  UNL1        0.0640
     37 H           1.1952    1.9857    3.1917 H       1  UNL1        0.0864
     38 H           1.0554    4.0231    1.4188 H       1  UNL1        0.0864
     39 H          -2.3141   -1.2592   -0.8710 H       1  UNL1        0.0487
     40 H          -0.7027   -0.5693   -0.9657 H       1  UNL1        0.0487
     41 H          -1.4589   -2.9249   -2.1216 H       1  UNL1        0.0575
     42 H           0.1847   -2.7284   -1.5081 H       1  UNL1        0.0575
     43 H          -0.9163   -4.5578    1.4774 H       1  UNL1        0.0578
     44 H           0.6323   -4.3444    0.6901 H       1  UNL1        0.0578
     45 H          -0.5855   -2.6425    2.5294 H       1  UNL1        0.0526
     46 H           1.2420   -1.2215    2.4333 H       1  UNL1        0.0332
     47 H           1.7237   -2.8798    2.1280 H       1  UNL1        0.0332
     48 H           2.7801   -3.5515    0.1602 H       1  UNL1        0.0620
     49 H           4.1043   -2.9922   -1.7510 H       1  UNL1        0.0618
     50 H           4.1269   -0.6777   -2.6419 H       1  UNL1        0.0625
     51 H           1.3373    4.2904   -0.9497 H       1  UNL1        0.0831
     52 H           2.6741    4.9863   -2.9090 H       1  UNL1        0.0648
     53 H           4.0662    3.2864   -4.0403 H       1  UNL1        0.0831
     54 H           1.4053    0.4160    0.4252 H       1  UNL1        0.0627
@<TRIPOS>BOND
     1     1     2    2
     2     2     3    1
     3     3     4   ar
     4     4     5   ar
     5     5     6    1
     6     5     7   ar
     7     7     8   ar
     8     8     9   ar
     9     9    10    1
    10    10    11   ar
    11    11    12   ar
    12    12    13   ar
    13    13    14   ar
    14     2    15   am
    15    15    16    1
    16    16    17    1
    17    17    18    1
    18    18    19    1
    19    19    20    1
    20    20    21    1
    21    21    22    1
    22    22    23   ar
    23    23    24   ar
    24    24    25   ar
    25    25    26   ar
    26    26    27    1
    27    27    28   ar
    28    28    29   ar
    29    29    30   ar
    30    30    31   ar
    31    31    32   ar
    32    26    33   ar
    33     9     3   ar
    34    14    10   ar
    35    20    15    1
    36    33    22   ar
    37    32    27   ar
    38     4    34    1
    39     7    35    1
    40     8    36    1
    41    12    37    1
    42    13    38    1
    43    16    39    1
    44    16    40    1
    45    17    41    1
    46    17    42    1
    47    19    43    1
    48    19    44    1
    49    20    45    1
    50    21    46    1
    51    21    47    1
    52    23    48    1
    53    24    49    1
    54    25    50    1
    55    29    51    1
    56    30    52    1
    57    31    53    1
    58    33    54    1
