
     RDKit          3D

 54 58  0  0  0  0  0  0  0  0999 V2000
   -2.0415   -0.7874    2.9411 O   0  0  0  0  0  0  0  0  0  0  0  0
   -2.0397   -0.7474    1.6891 C   0  0  0  0  0  0  0  0  0  0  0  0
   -3.0099    0.1734    1.0573 C   0  0  0  0  0  0  0  0  0  0  0  0
   -4.2331   -0.2749    0.6297 C   0  0  0  0  0  0  0  0  0  0  0  0
   -5.1357    0.5543    0.0188 C   0  0  0  0  0  0  0  0  0  0  0  0
   -6.6935   -0.1082   -0.5025 Cl  0  0  0  0  0  0  0  0  0  0  0  0
   -4.8207    1.8741   -0.1778 C   0  0  0  0  0  0  0  0  0  0  0  0
   -3.5973    2.3174    0.2517 C   0  0  0  0  0  0  0  0  0  0  0  0
   -2.6669    1.4865    0.8760 C   0  0  0  0  0  0  0  0  0  0  0  0
   -1.4272    1.9831    1.3291 N   0  0  0  0  0  0  0  0  0  0  0  0
   -0.6925    1.4575    2.2829 N   0  0  0  0  0  0  0  0  0  0  0  0
    0.4217    2.1979    2.4673 C   0  0  0  0  0  0  0  0  0  0  0  0
    0.3550    3.2217    1.5789 C   0  0  0  0  0  0  0  0  0  0  0  0
   -0.8107    3.0519    0.8893 N   0  0  0  0  0  0  0  0  0  0  0  0
   -1.1603   -1.5406    0.9018 N   0  0  0  0  0  0  0  0  0  0  0  0
   -1.2435   -1.4279   -0.5405 C   0  0  0  0  0  0  0  0  0  0  0  0
   -0.8660   -2.7517   -1.1979 C   0  0  0  0  0  0  0  0  0  0  0  0
   -1.0809   -3.8114   -0.3629 O   0  0  0  0  0  0  0  0  0  0  0  0
   -0.3483   -3.8418    0.8013 C   0  0  0  0  0  0  0  0  0  0  0  0
   -0.2177   -2.4613    1.4664 C   0  0  1  0  0  0  0  0  0  0  0  0
    1.1775   -2.0183    1.6244 C   0  0  0  0  0  0  0  0  0  0  0  0
    1.9648   -1.6288    0.4736 C   0  0  0  0  0  0  0  0  0  0  0  0
    2.7528   -2.5397   -0.1932 C   0  0  0  0  0  0  0  0  0  0  0  0
    3.5172   -2.2217   -1.2880 C   0  0  0  0  0  0  0  0  0  0  0  0
    3.5218   -0.9352   -1.7732 C   0  0  0  0  0  0  0  0  0  0  0  0
    2.7381    0.0242   -1.1295 C   0  0  0  0  0  0  0  0  0  0  0  0
    2.7825    1.3674   -1.6896 C   0  0  0  0  0  0  0  0  0  0  0  0
    2.0325    2.3028   -1.0875 N   0  0  0  0  0  0  0  0  0  0  0  0
    1.9704    3.5805   -1.4878 C   0  0  0  0  0  0  0  0  0  0  0  0
    2.7150    3.9595   -2.5759 C   0  0  0  0  0  0  0  0  0  0  0  0
    3.4849    2.9864   -3.1891 C   0  0  0  0  0  0  0  0  0  0  0  0
    3.5093    1.7119   -2.7422 N   0  0  0  0  0  0  0  0  0  0  0  0
    1.9888   -0.3455   -0.0348 C   0  0  0  0  0  0  0  0  0  0  0  0
   -4.5122   -1.3089    0.7694 H   0  0  0  0  0  0  0  0  0  0  0  0
   -5.5347    2.5105   -0.6565 H   0  0  0  0  0  0  0  0  0  0  0  0
   -3.3498    3.3510    0.0982 H   0  0  0  0  0  0  0  0  0  0  0  0
    1.1952    1.9857    3.1917 H   0  0  0  0  0  0  0  0  0  0  0  0
    1.0554    4.0231    1.4188 H   0  0  0  0  0  0  0  0  0  0  0  0
   -2.3141   -1.2592   -0.8710 H   0  0  0  0  0  0  0  0  0  0  0  0
   -0.7027   -0.5693   -0.9657 H   0  0  0  0  0  0  0  0  0  0  0  0
   -1.4589   -2.9249   -2.1216 H   0  0  0  0  0  0  0  0  0  0  0  0
    0.1847   -2.7284   -1.5081 H   0  0  0  0  0  0  0  0  0  0  0  0
   -0.9163   -4.5578    1.4774 H   0  0  0  0  0  0  0  0  0  0  0  0
    0.6323   -4.3444    0.6901 H   0  0  0  0  0  0  0  0  0  0  0  0
   -0.5855   -2.6425    2.5294 H   0  0  0  0  0  0  0  0  0  0  0  0
    1.2420   -1.2215    2.4333 H   0  0  0  0  0  0  0  0  0  0  0  0
    1.7237   -2.8798    2.1280 H   0  0  0  0  0  0  0  0  0  0  0  0
    2.7801   -3.5515    0.1602 H   0  0  0  0  0  0  0  0  0  0  0  0
    4.1043   -2.9922   -1.7510 H   0  0  0  0  0  0  0  0  0  0  0  0
    4.1269   -0.6777   -2.6419 H   0  0  0  0  0  0  0  0  0  0  0  0
    1.3373    4.2904   -0.9497 H   0  0  0  0  0  0  0  0  0  0  0  0
    2.6741    4.9863   -2.9090 H   0  0  0  0  0  0  0  0  0  0  0  0
    4.0662    3.2864   -4.0403 H   0  0  0  0  0  0  0  0  0  0  0  0
    1.4053    0.4160    0.4252 H   0  0  0  0  0  0  0  0  0  0  0  0
  1  2  2  0
  2  3  1  0
  3  4  2  0
  4  5  1  0
  5  6  1  0
  5  7  2  0
  7  8  1  0
  8  9  2  0
  9 10  1  0
 10 11  1  0
 11 12  2  0
 12 13  1  0
 13 14  2  0
  2 15  1  0
 15 16  1  0
 16 17  1  0
 17 18  1  0
 18 19  1  0
 19 20  1  0
 20 21  1  0
 21 22  1  0
 22 23  2  0
 23 24  1  0
 24 25  2  0
 25 26  1  0
 26 27  1  0
 27 28  2  0
 28 29  1  0
 29 30  2  0
 30 31  1  0
 31 32  2  0
 26 33  2  0
  9  3  1  0
 14 10  1  0
 20 15  1  0
 33 22  1  0
 32 27  1  0
  4 34  1  0
  7 35  1  0
  8 36  1  0
 12 37  1  0
 13 38  1  0
 16 39  1  0
 16 40  1  0
 17 41  1  0
 17 42  1  0
 19 43  1  0
 19 44  1  0
 20 45  1  1
 21 46  1  0
 21 47  1  0
 23 48  1  0
 24 49  1  0
 25 50  1  0
 29 51  1  0
 30 52  1  0
 31 53  1  0
 33 54  1  0
M  END
$$$$
