@<TRIPOS>MOLECULE
*****
 50 52 0 0 0
SMALL
GASTEIGER

@<TRIPOS>ATOM
      1 C           8.1655    0.9586   -0.7633 C.3     1  UNL1       -0.0370
      2 C           7.2039    0.2973    0.1875 C.ar    1  UNL1       -0.0150
      3 C           7.2504    0.5000    1.5557 C.ar    1  UNL1        0.1263
      4 F           8.1922    1.3171    2.0521 F       1  UNL1       -0.2052
      5 C           6.3122   -0.1613    2.3177 C.ar    1  UNL1       -0.0259
      6 C           5.3468   -0.9994    1.8019 C.ar    1  UNL1       -0.0543
      7 C           5.2738   -1.2221    0.4467 C.ar    1  UNL1       -0.0299
      8 C           4.3267   -2.0647   -0.3187 C.3     1  UNL1        0.0372
      9 N           3.1819   -1.3173   -0.7696 N.am    1  UNL1       -0.3060
     10 C           2.0357   -0.8986   -0.0467 C.2     1  UNL1        0.2628
     11 O           2.0689   -1.2641    1.1679 O.2     1  UNL1       -0.2685
     12 C           0.9924   -0.1312   -0.7427 C.ar    1  UNL1        0.1292
     13 C          -0.1333    0.2480   -0.0397 C.ar    1  UNL1       -0.0006
     14 C          -1.1386    0.9670   -0.6463 C.ar    1  UNL1        0.1292
     15 N          -0.9375    1.2614   -1.9466 N.ar    1  UNL1       -0.2308
     16 C           0.1581    0.8917   -2.6281 C.ar    1  UNL1        0.1176
     17 N           1.1472    0.1900   -2.0508 N.ar    1  UNL1       -0.2308
     18 C          -2.3514    1.3960    0.0391 C.2     1  UNL1        0.2628
     19 O          -2.4603    1.0496    1.2652 O.2     1  UNL1       -0.2685
     20 N          -3.3159    2.1531   -0.6723 N.am    1  UNL1       -0.3060
     21 C          -4.5633    2.6211   -0.0660 C.3     1  UNL1        0.0372
     22 C          -5.5484    1.4975    0.0160 C.ar    1  UNL1       -0.0299
     23 C          -5.7837    0.5848    1.0171 C.ar    1  UNL1       -0.0514
     24 C          -6.7388   -0.3683    0.8727 C.ar    1  UNL1       -0.0150
     25 C          -6.9377   -1.3208    2.0043 C.3     1  UNL1       -0.0370
     26 C          -7.5280   -0.5031   -0.2463 C.ar    1  UNL1        0.1263
     27 F          -8.4728   -1.4719   -0.3495 F       1  UNL1       -0.2052
     28 C          -7.3234    0.3871   -1.2649 C.ar    1  UNL1       -0.0259
     29 C          -6.3499    1.3623   -1.1227 C.ar    1  UNL1       -0.0543
     30 C           6.2245   -0.5533   -0.3411 C.ar    1  UNL1       -0.0514
     31 H           8.3792    1.9636   -0.4021 H       1  UNL1        0.0278
     32 H           7.6662    1.0717   -1.7636 H       1  UNL1        0.0278
     33 H           9.0513    0.3204   -0.9403 H       1  UNL1        0.0278
     34 H           6.3434   -0.0087    3.3875 H       1  UNL1        0.0646
     35 H           4.6092   -1.5245    2.3674 H       1  UNL1        0.0622
     36 H           3.9840   -2.9166    0.3070 H       1  UNL1        0.0512
     37 H           4.8796   -2.5284   -1.1542 H       1  UNL1        0.0512
     38 H           3.2162   -1.0459   -1.7971 H       1  UNL1        0.1494
     39 H          -0.2446   -0.0109    0.9869 H       1  UNL1        0.0663
     40 H           0.3459    1.1142   -3.6712 H       1  UNL1        0.1047
     41 H          -3.1121    2.3794   -1.6713 H       1  UNL1        0.1494
     42 H          -4.3275    2.9055    0.9984 H       1  UNL1        0.0512
     43 H          -4.9886    3.4412   -0.6361 H       1  UNL1        0.0512
     44 H          -5.1286    0.7409    1.8771 H       1  UNL1        0.0624
     45 H          -6.8647   -0.7605    2.9558 H       1  UNL1        0.0278
     46 H          -6.1900   -2.1425    2.0104 H       1  UNL1        0.0278
     47 H          -7.9651   -1.7245    1.9629 H       1  UNL1        0.0278
     48 H          -7.9343    0.2884   -2.1409 H       1  UNL1        0.0646
     49 H          -6.2544    2.0293   -1.9829 H       1  UNL1        0.0622
     50 H           6.2371   -0.6736   -1.4219 H       1  UNL1        0.0624
@<TRIPOS>BOND
     1     1     2    1
     2     2     3   ar
     3     3     4    1
     4     3     5   ar
     5     5     6   ar
     6     6     7   ar
     7     7     8    1
     8     8     9    1
     9     9    10   am
    10    10    11    2
    11    10    12    1
    12    12    13   ar
    13    13    14   ar
    14    14    15   ar
    15    15    16   ar
    16    16    17   ar
    17    14    18    1
    18    18    19    2
    19    18    20   am
    20    20    21    1
    21    21    22    1
    22    22    23   ar
    23    23    24   ar
    24    24    25    1
    25    24    26   ar
    26    26    27    1
    27    26    28   ar
    28    28    29   ar
    29     7    30   ar
    30    30     2   ar
    31    17    12   ar
    32    29    22   ar
    33     1    31    1
    34     1    32    1
    35     1    33    1
    36     5    34    1
    37     6    35    1
    38     8    36    1
    39     8    37    1
    40     9    38    1
    41    13    39    1
    42    16    40    1
    43    20    41    1
    44    21    42    1
    45    21    43    1
    46    23    44    1
    47    25    45    1
    48    25    46    1
    49    25    47    1
    50    28    48    1
    51    29    49    1
    52    30    50    1
