@<TRIPOS>MOLECULE
*****
 38 41 0 0 0
SMALL
GASTEIGER

@<TRIPOS>ATOM
      1 O          -5.5864   -2.7175    1.5824 O.3     1  UNL1       -0.4771
      2 C          -5.4023   -1.3406    1.5379 C.2     1  UNL1        0.3368
      3 O          -6.3387   -0.7481    2.1270 O.2     1  UNL1       -0.2451
      4 C          -4.2752   -0.6836    0.8940 C.ar    1  UNL1        0.0589
      5 C          -3.2674   -1.3983    0.2575 C.ar    1  UNL1       -0.0472
      6 C          -2.2471   -0.6731   -0.3209 C.ar    1  UNL1       -0.0532
      7 C          -2.1729    0.7043   -0.3028 C.ar    1  UNL1       -0.0158
      8 C          -3.2071    1.3859    0.3481 C.ar    1  UNL1       -0.0532
      9 C          -4.2670    0.7014    0.9522 C.ar    1  UNL1       -0.0472
     10 C          -1.1029    1.4856   -0.9100 C.ar    1  UNL1        0.0087
     11 C          -1.4236    2.6094   -1.6761 C.ar    1  UNL1        0.0118
     12 N          -0.2700    3.1421   -2.1163 N.ar    1  UNL1       -0.3452
     13 C           0.7889    2.4515   -1.6963 C.ar    1  UNL1        0.1387
     14 C           0.2706    1.4134   -0.9406 C.ar    1  UNL1        0.0269
     15 C           1.0443    0.4540   -0.3159 C.ar    1  UNL1       -0.0413
     16 C           2.4022    0.5286   -0.4479 C.ar    1  UNL1        0.0009
     17 C           2.9090    1.5715   -1.2063 C.ar    1  UNL1        0.0376
     18 N           2.1409    2.5050   -1.8132 N.ar    1  UNL1       -0.2369
     19 C           3.3003   -0.4507    0.1854 C.ar    1  UNL1       -0.0164
     20 C           4.4925   -0.7817   -0.3968 C.ar    1  UNL1       -0.0540
     21 C           5.3906   -1.6823    0.1234 C.ar    1  UNL1       -0.0612
     22 C           5.0162   -2.2712    1.3259 C.ar    1  UNL1       -0.0617
     23 C           3.8286   -1.9769    1.9580 C.ar    1  UNL1       -0.0612
     24 C           2.9741   -1.0612    1.3768 C.ar    1  UNL1       -0.0540
     25 H          -6.4756   -3.1331    1.3361 H       1  UNL1        0.2954
     26 H          -3.2978   -2.4811    0.2266 H       1  UNL1        0.0626
     27 H          -1.4396   -1.2138   -0.8294 H       1  UNL1        0.0624
     28 H          -3.1497    2.4852    0.3635 H       1  UNL1        0.0624
     29 H          -5.0292    1.2969    1.4361 H       1  UNL1        0.0626
     30 H          -2.3858    3.0227   -1.9079 H       1  UNL1        0.0814
     31 H          -0.1871    3.9913   -2.7145 H       1  UNL1        0.1668
     32 H           0.6188   -0.3525    0.2728 H       1  UNL1        0.0631
     33 H           3.9746    1.6858   -1.3491 H       1  UNL1        0.0836
     34 H           4.7308   -0.2809   -1.3483 H       1  UNL1        0.0624
     35 H           6.3109   -1.8909   -0.3950 H       1  UNL1        0.0618
     36 H           5.6997   -2.9950    1.7783 H       1  UNL1        0.0618
     37 H           3.6030   -2.4839    2.9067 H       1  UNL1        0.0618
     38 H           2.0293   -0.8184    1.8664 H       1  UNL1        0.0624
@<TRIPOS>BOND
     1     1     2    1
     2     2     3    2
     3     2     4    1
     4     4     5   ar
     5     5     6   ar
     6     6     7   ar
     7     7     8   ar
     8     8     9   ar
     9     7    10    1
    10    10    11   ar
    11    11    12   ar
    12    12    13   ar
    13    13    14   ar
    14    14    15   ar
    15    15    16   ar
    16    16    17   ar
    17    17    18   ar
    18    16    19    1
    19    19    20   ar
    20    20    21   ar
    21    21    22   ar
    22    22    23   ar
    23    23    24   ar
    24     9     4   ar
    25    14    10   ar
    26    24    19   ar
    27    18    13   ar
    28     1    25    1
    29     5    26    1
    30     6    27    1
    31     8    28    1
    32     9    29    1
    33    11    30    1
    34    12    31    1
    35    15    32    1
    36    17    33    1
    37    20    34    1
    38    21    35    1
    39    22    36    1
    40    23    37    1
    41    24    38    1
