@<TRIPOS>MOLECULE
*****
 47 50 0 0 0
SMALL
GASTEIGER

@<TRIPOS>ATOM
      1 C           4.0233    0.4357   -3.3469 C.3     1  UNL1        0.0789
      2 O           3.6786    0.4209   -2.0157 O.3     1  UNL1       -0.4928
      3 C           4.3315    0.9192   -0.9147 C.ar    1  UNL1        0.1517
      4 C           5.5453    1.5652   -1.0838 C.ar    1  UNL1        0.0012
      5 C           6.2270    2.0740   -0.0268 C.ar    1  UNL1        0.0733
      6 C           7.5048    2.7571   -0.1560 C.1     1  UNL1        0.1008
      7 N           8.5116    3.2812   -0.2487 N.1     1  UNL1       -0.1908
      8 C           5.6800    1.9324    1.2198 C.ar    1  UNL1        0.0460
      9 N           4.5191    1.3171    1.3978 N.ar    1  UNL1       -0.2455
     10 C           3.8105    0.7940    0.3513 C.ar    1  UNL1        0.1672
     11 C           2.5485    0.1157    0.6430 C.2     1  UNL1        0.2702
     12 O           2.1564    0.1434    1.8658 O.2     1  UNL1       -0.2680
     13 N           1.7339   -0.5568   -0.2730 N.am    1  UNL1       -0.2801
     14 C           0.5238   -1.1783    0.1577 C.ar    1  UNL1        0.0356
     15 C           0.4896   -2.4762    0.5896 C.ar    1  UNL1       -0.0193
     16 C          -0.6873   -3.0752    0.9944 C.ar    1  UNL1        0.0782
     17 CL         -0.6655   -4.7402    1.5308 Cl      1  UNL1       -0.0805
     18 C          -1.8690   -2.3741    0.9743 C.ar    1  UNL1        0.1473
     19 F          -3.0599   -2.8777    1.3501 F       1  UNL1       -0.2036
     20 C          -1.8681   -1.0380    0.5364 C.ar    1  UNL1        0.0213
     21 C          -3.1327   -0.2737    0.4803 C.3     1  UNL1        0.1285
     22 C          -2.8877    1.1194   -0.0106 C.3     1  UNL1        0.1199
     23 F          -2.0505    1.8081    0.8395 F       1  UNL1       -0.2462
     24 N          -3.9897   -0.9766   -0.4554 N.2     1  UNL1       -0.2225
     25 C          -5.2505   -0.8455   -0.4664 C.2     1  UNL1        0.2763
     26 N          -6.1240   -1.5033   -1.3526 N.pl3   1  UNL1       -0.3134
     27 O          -5.7792    0.0351    0.5010 O.2     1  UNL1       -0.4622
     28 C          -5.2514   -0.0884    1.8169 C.3     1  UNL1        0.1090
     29 C          -4.3992    1.0359    2.3033 C.3     1  UNL1       -0.0065
     30 C          -3.7961   -0.2429    1.8445 C.3     1  UNL1        0.0315
     31 C          -0.6933   -0.4769    0.1440 C.ar    1  UNL1       -0.0321
     32 H           3.8050   -0.5556   -3.8308 H       1  UNL1        0.0660
     33 H           5.0842    0.6350   -3.5230 H       1  UNL1        0.0660
     34 H           3.3986    1.1725   -3.9129 H       1  UNL1        0.0660
     35 H           5.9696    1.6743   -2.0854 H       1  UNL1        0.0668
     36 H           6.2047    2.3292    2.0746 H       1  UNL1        0.0843
     37 H           1.9799   -0.6242   -1.2625 H       1  UNL1        0.1552
     38 H           1.4354   -3.0278    0.6022 H       1  UNL1        0.0652
     39 H          -3.8508    1.6678   -0.1768 H       1  UNL1        0.0643
     40 H          -2.3850    1.0319   -1.0256 H       1  UNL1        0.0643
     41 H          -6.8554   -0.9791   -1.8534 H       1  UNL1        0.1466
     42 H          -6.0321   -2.5243   -1.5042 H       1  UNL1        0.1466
     43 H          -5.8727   -0.6896    2.5185 H       1  UNL1        0.0737
     44 H          -4.4971    1.2365    3.4040 H       1  UNL1        0.0306
     45 H          -4.2625    1.9477    1.7234 H       1  UNL1        0.0306
     46 H          -3.2996   -0.8786    2.6058 H       1  UNL1        0.0365
     47 H          -0.6022    0.5534   -0.2193 H       1  UNL1        0.0640
@<TRIPOS>BOND
     1     1     2    1
     2     2     3    1
     3     3     4   ar
     4     4     5   ar
     5     5     6    1
     6     6     7    3
     7     5     8   ar
     8     8     9   ar
     9     9    10   ar
    10    10    11    1
    11    11    12    2
    12    11    13   am
    13    13    14    1
    14    14    15   ar
    15    15    16   ar
    16    16    17    1
    17    16    18   ar
    18    18    19    1
    19    18    20   ar
    20    20    21    1
    21    21    22    1
    22    22    23    1
    23    21    24    1
    24    24    25    2
    25    25    26    1
    26    25    27    1
    27    27    28    1
    28    28    29    1
    29    29    30    1
    30    20    31   ar
    31    10     3   ar
    32    31    14   ar
    33    30    21    1
    34    30    28    1
    35     1    32    1
    36     1    33    1
    37     1    34    1
    38     4    35    1
    39     8    36    1
    40    13    37    1
    41    15    38    1
    42    22    39    1
    43    22    40    1
    44    26    41    1
    45    26    42    1
    46    28    43    1
    47    29    44    1
    48    29    45    1
    49    30    46    1
    50    31    47    1
