
     RDKit          3D

 47 50  0  0  0  0  0  0  0  0999 V2000
    4.0233    0.4357   -3.3469 C   0  0  0  0  0  0  0  0  0  0  0  0
    3.6786    0.4209   -2.0157 O   0  0  0  0  0  0  0  0  0  0  0  0
    4.3315    0.9192   -0.9147 C   0  0  0  0  0  0  0  0  0  0  0  0
    5.5453    1.5652   -1.0838 C   0  0  0  0  0  0  0  0  0  0  0  0
    6.2270    2.0740   -0.0268 C   0  0  0  0  0  0  0  0  0  0  0  0
    7.5048    2.7571   -0.1560 C   0  0  0  0  0  0  0  0  0  0  0  0
    8.5116    3.2812   -0.2487 N   0  0  0  0  0  0  0  0  0  0  0  0
    5.6800    1.9324    1.2198 C   0  0  0  0  0  0  0  0  0  0  0  0
    4.5191    1.3171    1.3978 N   0  0  0  0  0  0  0  0  0  0  0  0
    3.8105    0.7940    0.3513 C   0  0  0  0  0  0  0  0  0  0  0  0
    2.5485    0.1157    0.6430 C   0  0  0  0  0  0  0  0  0  0  0  0
    2.1564    0.1434    1.8658 O   0  0  0  0  0  0  0  0  0  0  0  0
    1.7339   -0.5568   -0.2730 N   0  0  0  0  0  0  0  0  0  0  0  0
    0.5238   -1.1783    0.1577 C   0  0  0  0  0  0  0  0  0  0  0  0
    0.4896   -2.4762    0.5896 C   0  0  0  0  0  0  0  0  0  0  0  0
   -0.6873   -3.0752    0.9944 C   0  0  0  0  0  0  0  0  0  0  0  0
   -0.6655   -4.7402    1.5308 Cl  0  0  0  0  0  0  0  0  0  0  0  0
   -1.8690   -2.3741    0.9743 C   0  0  0  0  0  0  0  0  0  0  0  0
   -3.0599   -2.8777    1.3501 F   0  0  0  0  0  0  0  0  0  0  0  0
   -1.8681   -1.0380    0.5364 C   0  0  0  0  0  0  0  0  0  0  0  0
   -3.1327   -0.2737    0.4803 C   0  0  1  0  0  0  0  0  0  0  0  0
   -2.8877    1.1194   -0.0106 C   0  0  0  0  0  0  0  0  0  0  0  0
   -2.0505    1.8081    0.8395 F   0  0  0  0  0  0  0  0  0  0  0  0
   -3.9897   -0.9766   -0.4554 N   0  0  0  0  0  0  0  0  0  0  0  0
   -5.2505   -0.8455   -0.4664 C   0  0  0  0  0  0  0  0  0  0  0  0
   -6.1240   -1.5033   -1.3526 N   0  0  0  0  0  0  0  0  0  0  0  0
   -5.7792    0.0351    0.5010 O   0  0  0  0  0  0  0  0  0  0  0  0
   -5.2514   -0.0884    1.8169 C   0  0  2  0  0  0  0  0  0  0  0  0
   -4.3992    1.0359    2.3033 C   0  0  0  0  0  0  0  0  0  0  0  0
   -3.7961   -0.2429    1.8445 C   0  0  2  0  0  0  0  0  0  0  0  0
   -0.6933   -0.4769    0.1440 C   0  0  0  0  0  0  0  0  0  0  0  0
    3.8050   -0.5556   -3.8308 H   0  0  0  0  0  0  0  0  0  0  0  0
    5.0842    0.6350   -3.5230 H   0  0  0  0  0  0  0  0  0  0  0  0
    3.3986    1.1725   -3.9129 H   0  0  0  0  0  0  0  0  0  0  0  0
    5.9696    1.6743   -2.0854 H   0  0  0  0  0  0  0  0  0  0  0  0
    6.2047    2.3292    2.0746 H   0  0  0  0  0  0  0  0  0  0  0  0
    1.9799   -0.6242   -1.2625 H   0  0  0  0  0  0  0  0  0  0  0  0
    1.4354   -3.0278    0.6022 H   0  0  0  0  0  0  0  0  0  0  0  0
   -3.8508    1.6678   -0.1768 H   0  0  0  0  0  0  0  0  0  0  0  0
   -2.3850    1.0319   -1.0256 H   0  0  0  0  0  0  0  0  0  0  0  0
   -6.8554   -0.9791   -1.8534 H   0  0  0  0  0  0  0  0  0  0  0  0
   -6.0321   -2.5243   -1.5042 H   0  0  0  0  0  0  0  0  0  0  0  0
   -5.8727   -0.6896    2.5185 H   0  0  0  0  0  0  0  0  0  0  0  0
   -4.4971    1.2365    3.4040 H   0  0  0  0  0  0  0  0  0  0  0  0
   -4.2625    1.9477    1.7234 H   0  0  0  0  0  0  0  0  0  0  0  0
   -3.2996   -0.8786    2.6058 H   0  0  0  0  0  0  0  0  0  0  0  0
   -0.6022    0.5534   -0.2193 H   0  0  0  0  0  0  0  0  0  0  0  0
  1  2  1  0
  2  3  1  0
  3  4  2  0
  4  5  1  0
  5  6  1  0
  6  7  3  0
  5  8  2  0
  8  9  1  0
  9 10  2  0
 10 11  1  0
 11 12  2  0
 11 13  1  0
 13 14  1  0
 14 15  2  0
 15 16  1  0
 16 17  1  0
 16 18  2  0
 18 19  1  0
 18 20  1  0
 20 21  1  0
 21 22  1  6
 22 23  1  0
 21 24  1  0
 24 25  2  0
 25 26  1  0
 25 27  1  0
 27 28  1  0
 28 29  1  0
 29 30  1  0
 20 31  2  0
 10  3  1  0
 31 14  1  0
 30 21  1  0
 30 28  1  0
  1 32  1  0
  1 33  1  0
  1 34  1  0
  4 35  1  0
  8 36  1  0
 13 37  1  0
 15 38  1  0
 22 39  1  0
 22 40  1  0
 26 41  1  0
 26 42  1  0
 28 43  1  1
 29 44  1  0
 29 45  1  0
 30 46  1  1
 31 47  1  0
M  END
$$$$
