
     RDKit          3D

 53 55  0  0  0  0  0  0  0  0999 V2000
    8.9047    1.4565   -1.2715 C   0  0  0  0  0  0  0  0  0  0  0  0
    7.8341    1.2112   -1.9890 C   0  0  0  0  0  0  0  0  0  0  0  0
    6.5661    0.8681   -1.3962 C   0  0  0  0  0  0  0  0  0  0  0  0
    5.5580    0.6400   -2.1526 O   0  0  0  0  0  0  0  0  0  0  0  0
    6.3006    0.7504   -0.0096 N   0  0  0  0  0  0  0  0  0  0  0  0
    5.0162    0.4064    0.4941 C   0  0  0  0  0  0  0  0  0  0  0  0
    4.0495    1.3559    0.8018 C   0  0  0  0  0  0  0  0  0  0  0  0
    2.8130    0.9810    1.2893 C   0  0  0  0  0  0  0  0  0  0  0  0
    2.5218   -0.3455    1.4773 C   0  0  0  0  0  0  0  0  0  0  0  0
    0.9838   -0.8146    2.0839 S   0  0  0  0  0  6  0  0  0  0  0  0
    0.4104    0.2017    3.0509 O   0  0  0  0  0  0  0  0  0  0  0  0
    1.1557   -2.0873    2.8768 O   0  0  0  0  0  0  0  0  0  0  0  0
   -0.1886   -1.0913    0.8733 N   0  0  0  0  0  0  0  0  0  0  0  0
   -0.4785    0.0632    0.0805 C   0  0  0  0  0  0  0  0  0  0  0  0
   -1.4972   -0.3311   -0.9759 C   0  0  0  0  0  0  0  0  0  0  0  0
   -2.1611   -1.5511   -0.5613 N   0  0  0  0  0  0  0  0  0  0  0  0
   -3.5504   -1.5472   -0.3316 C   0  0  0  0  0  0  0  0  0  0  0  0
   -4.2158   -2.5356    0.0254 O   0  0  0  0  0  0  0  0  0  0  0  0
   -4.2960   -0.3899   -0.4966 O   0  0  0  0  0  0  0  0  0  0  0  0
   -5.6501   -0.2502   -0.3067 C   0  0  0  0  0  0  0  0  0  0  0  0
   -5.8392    0.7440    0.8509 C   0  0  0  0  0  0  0  0  0  0  0  0
   -5.9462    2.0959    0.1840 C   0  0  0  0  0  0  0  0  0  0  0  0
   -6.0745    1.8666   -1.2872 C   0  0  0  0  0  0  0  0  0  0  0  0
   -6.4360    0.4054   -1.3821 C   0  0  0  0  0  0  0  0  0  0  0  0
   -1.3635   -2.7411   -0.3967 C   0  0  0  0  0  0  0  0  0  0  0  0
    0.0063   -2.2969    0.1298 C   0  0  0  0  0  0  0  0  0  0  0  0
    3.4655   -1.3002    1.1785 C   0  0  0  0  0  0  0  0  0  0  0  0
    4.7164   -0.9109    0.6847 C   0  0  0  0  0  0  0  0  0  0  0  0
    8.8346    1.3998   -0.2015 H   0  0  0  0  0  0  0  0  0  0  0  0
    9.8554    1.7150   -1.7518 H   0  0  0  0  0  0  0  0  0  0  0  0
    7.9153    1.2709   -3.0644 H   0  0  0  0  0  0  0  0  0  0  0  0
    7.0835    0.9245    0.6597 H   0  0  0  0  0  0  0  0  0  0  0  0
    4.3252    2.3874    0.6371 H   0  0  0  0  0  0  0  0  0  0  0  0
    2.0669    1.7143    1.5268 H   0  0  0  0  0  0  0  0  0  0  0  0
    0.4237    0.5186   -0.3712 H   0  0  0  0  0  0  0  0  0  0  0  0
   -0.9628    0.8367    0.7128 H   0  0  0  0  0  0  0  0  0  0  0  0
   -2.2293    0.4893   -1.1217 H   0  0  0  0  0  0  0  0  0  0  0  0
   -1.0211   -0.5006   -1.9701 H   0  0  0  0  0  0  0  0  0  0  0  0
   -6.1777   -1.1763    0.0120 H   0  0  0  0  0  0  0  0  0  0  0  0
   -6.7168    0.4947    1.4579 H   0  0  0  0  0  0  0  0  0  0  0  0
   -4.9437    0.7539    1.5022 H   0  0  0  0  0  0  0  0  0  0  0  0
   -6.8235    2.6075    0.6032 H   0  0  0  0  0  0  0  0  0  0  0  0
   -5.0205    2.7092    0.3596 H   0  0  0  0  0  0  0  0  0  0  0  0
   -6.9172    2.4803   -1.6634 H   0  0  0  0  0  0  0  0  0  0  0  0
   -5.1731    2.1237   -1.8700 H   0  0  0  0  0  0  0  0  0  0  0  0
   -7.5098    0.3339   -1.0987 H   0  0  0  0  0  0  0  0  0  0  0  0
   -6.3409   -0.0193   -2.3772 H   0  0  0  0  0  0  0  0  0  0  0  0
   -1.2361   -3.2789   -1.3556 H   0  0  0  0  0  0  0  0  0  0  0  0
   -1.8045   -3.3854    0.3821 H   0  0  0  0  0  0  0  0  0  0  0  0
    0.3994   -3.0652    0.8320 H   0  0  0  0  0  0  0  0  0  0  0  0
    0.6390   -2.1543   -0.7495 H   0  0  0  0  0  0  0  0  0  0  0  0
    3.2800   -2.3555    1.3107 H   0  0  0  0  0  0  0  0  0  0  0  0
    5.4487   -1.6775    0.4545 H   0  0  0  0  0  0  0  0  0  0  0  0
  1  2  2  3
  2  3  1  0
  3  4  2  0
  3  5  1  0
  5  6  1  0
  6  7  2  0
  7  8  1  0
  8  9  2  0
  9 10  1  0
 10 11  2  0
 10 12  2  0
 10 13  1  0
 13 14  1  0
 14 15  1  0
 15 16  1  0
 16 17  1  0
 17 18  2  0
 17 19  1  0
 19 20  1  0
 20 21  1  0
 21 22  1  0
 22 23  1  0
 23 24  1  0
 16 25  1  0
 25 26  1  0
  9 27  1  0
 27 28  2  0
 28  6  1  0
 26 13  1  0
 24 20  1  0
  1 29  1  0
  1 30  1  0
  2 31  1  0
  5 32  1  0
  7 33  1  0
  8 34  1  0
 14 35  1  0
 14 36  1  0
 15 37  1  0
 15 38  1  0
 20 39  1  0
 21 40  1  0
 21 41  1  0
 22 42  1  0
 22 43  1  0
 23 44  1  0
 23 45  1  0
 24 46  1  0
 24 47  1  0
 25 48  1  0
 25 49  1  0
 26 50  1  0
 26 51  1  0
 27 52  1  0
 28 53  1  0
M  END
$$$$
