@<TRIPOS>MOLECULE
*****
 53 55 0 0 0
SMALL
GASTEIGER

@<TRIPOS>ATOM
      1 C           8.9047    1.4565   -1.2715 C.2     1  UNL1       -0.0938
      2 C           7.8341    1.2112   -1.9890 C.2     1  UNL1       -0.0066
      3 C           6.5661    0.8681   -1.3962 C.2     1  UNL1        0.2405
      4 O           5.5580    0.6400   -2.1526 O.2     1  UNL1       -0.2705
      5 N           6.3006    0.7504   -0.0096 N.am    1  UNL1       -0.2820
      6 C           5.0162    0.4064    0.4941 C.ar    1  UNL1        0.0338
      7 C           4.0495    1.3559    0.8018 C.ar    1  UNL1       -0.0386
      8 C           2.8130    0.9810    1.2893 C.ar    1  UNL1       -0.0336
      9 C           2.5218   -0.3455    1.4773 C.ar    1  UNL1        0.1056
     10 S           0.9838   -0.8146    2.0839 S.O2    1  UNL1        0.0609
     11 O           0.4104    0.2017    3.0509 O.2     1  UNL1       -0.1528
     12 O           1.1557   -2.0873    2.8768 O.2     1  UNL1       -0.1528
     13 N          -0.1886   -1.0913    0.8733 N.3     1  UNL1       -0.1736
     14 C          -0.4785    0.0632    0.0805 C.3     1  UNL1        0.0364
     15 C          -1.4972   -0.3311   -0.9759 C.3     1  UNL1        0.0323
     16 N          -2.1611   -1.5511   -0.5613 N.am    1  UNL1       -0.2649
     17 C          -3.5504   -1.5472   -0.3316 C.2     1  UNL1        0.4032
     18 O          -4.2158   -2.5356    0.0254 O.2     1  UNL1       -0.2262
     19 O          -4.2960   -0.3899   -0.4966 O.3     1  UNL1       -0.4470
     20 C          -5.6501   -0.2502   -0.3067 C.3     1  UNL1        0.1047
     21 C          -5.8392    0.7440    0.8509 C.3     1  UNL1       -0.0156
     22 C          -5.9462    2.0959    0.1840 C.3     1  UNL1       -0.0496
     23 C          -6.0745    1.8666   -1.2872 C.3     1  UNL1       -0.0496
     24 C          -6.4360    0.4054   -1.3821 C.3     1  UNL1       -0.0156
     25 C          -1.3635   -2.7411   -0.3967 C.3     1  UNL1        0.0323
     26 C           0.0063   -2.2969    0.1298 C.3     1  UNL1        0.0364
     27 C           3.4655   -1.3002    1.1785 C.ar    1  UNL1       -0.0336
     28 C           4.7164   -0.9109    0.6847 C.ar    1  UNL1       -0.0386
     29 H           8.8346    1.3998   -0.2015 H       1  UNL1        0.0536
     30 H           9.8554    1.7150   -1.7518 H       1  UNL1        0.0536
     31 H           7.9153    1.2709   -3.0644 H       1  UNL1        0.0663
     32 H           7.0835    0.9245    0.6597 H       1  UNL1        0.1551
     33 H           4.3252    2.3874    0.6371 H       1  UNL1        0.0637
     34 H           2.0669    1.7143    1.5268 H       1  UNL1        0.0638
     35 H           0.4237    0.5186   -0.3712 H       1  UNL1        0.0459
     36 H          -0.9628    0.8367    0.7128 H       1  UNL1        0.0459
     37 H          -2.2293    0.4893   -1.1217 H       1  UNL1        0.0479
     38 H          -1.0211   -0.5006   -1.9701 H       1  UNL1        0.0479
     39 H          -6.1777   -1.1763    0.0120 H       1  UNL1        0.0734
     40 H          -6.7168    0.4947    1.4579 H       1  UNL1        0.0301
     41 H          -4.9437    0.7539    1.5022 H       1  UNL1        0.0301
     42 H          -6.8235    2.6075    0.6032 H       1  UNL1        0.0266
     43 H          -5.0205    2.7092    0.3596 H       1  UNL1        0.0266
     44 H          -6.9172    2.4803   -1.6634 H       1  UNL1        0.0266
     45 H          -5.1731    2.1237   -1.8700 H       1  UNL1        0.0266
     46 H          -7.5098    0.3339   -1.0987 H       1  UNL1        0.0301
     47 H          -6.3409   -0.0193   -2.3772 H       1  UNL1        0.0301
     48 H          -1.2361   -3.2789   -1.3556 H       1  UNL1        0.0479
     49 H          -1.8045   -3.3854    0.3821 H       1  UNL1        0.0479
     50 H           0.3994   -3.0652    0.8320 H       1  UNL1        0.0459
     51 H           0.6390   -2.1543   -0.7495 H       1  UNL1        0.0459
     52 H           3.2800   -2.3555    1.3107 H       1  UNL1        0.0638
     53 H           5.4487   -1.6775    0.4545 H       1  UNL1        0.0637
@<TRIPOS>BOND
     1     1     2    2
     2     2     3    1
     3     3     4    2
     4     3     5   am
     5     5     6    1
     6     6     7   ar
     7     7     8   ar
     8     8     9   ar
     9     9    10    1
    10    10    11    2
    11    10    12    2
    12    10    13    1
    13    13    14    1
    14    14    15    1
    15    15    16    1
    16    16    17   am
    17    17    18    2
    18    17    19    1
    19    19    20    1
    20    20    21    1
    21    21    22    1
    22    22    23    1
    23    23    24    1
    24    16    25    1
    25    25    26    1
    26     9    27   ar
    27    27    28   ar
    28    28     6   ar
    29    26    13    1
    30    24    20    1
    31     1    29    1
    32     1    30    1
    33     2    31    1
    34     5    32    1
    35     7    33    1
    36     8    34    1
    37    14    35    1
    38    14    36    1
    39    15    37    1
    40    15    38    1
    41    20    39    1
    42    21    40    1
    43    21    41    1
    44    22    42    1
    45    22    43    1
    46    23    44    1
    47    23    45    1
    48    24    46    1
    49    24    47    1
    50    25    48    1
    51    25    49    1
    52    26    50    1
    53    26    51    1
    54    27    52    1
    55    28    53    1
