@<TRIPOS>MOLECULE
*****
 60 60 0 0 0
SMALL
GASTEIGER

@<TRIPOS>ATOM
      1 C          -1.2535    1.3693    0.3797 C.3     1  UNL1        0.1262
      2 C          -1.2674    2.1428   -0.8959 C.3     1  UNL1       -0.0339
      3 N          -0.4401    0.2427    0.4479 N.2     1  UNL1       -0.2404
      4 C           0.1110   -0.5614   -0.3289 C.2     1  UNL1        0.2090
      5 O           0.0208   -0.5032   -1.7094 O.2     1  UNL1       -0.4942
      6 C           0.9158   -1.6489    0.3274 C.3     1  UNL1        0.1346
      7 N           2.3152   -1.5056    0.0392 N.2     1  UNL1       -0.2034
      8 C           3.0035   -2.3364   -0.7026 C.2     1  UNL1        0.3844
      9 O           2.1148   -3.3004   -1.1011 O.2     1  UNL1       -0.4658
     10 O           4.3354   -2.0123   -0.8532 O.2     1  UNL1       -0.4452
     11 C           4.9773   -1.0962    0.0480 C.3     1  UNL1        0.1193
     12 C           6.2692   -0.6869   -0.5065 C.ar    1  UNL1       -0.0102
     13 C           6.1602    0.4491   -1.3175 C.ar    1  UNL1       -0.0554
     14 C           7.2600    1.0086   -1.9427 C.ar    1  UNL1       -0.0614
     15 C           8.4766    0.3840   -1.7218 C.ar    1  UNL1       -0.0617
     16 C           8.6412   -0.7323   -0.9355 C.ar    1  UNL1       -0.0614
     17 C           7.4983   -1.2523   -0.3325 C.ar    1  UNL1       -0.0554
     18 C           0.6922   -1.7407    1.8000 C.3     1  UNL1       -0.0154
     19 C          -0.7533   -2.0389    2.0942 C.3     1  UNL1       -0.0603
     20 C           1.1620   -0.4987    2.5246 C.3     1  UNL1       -0.0603
     21 C          -2.6261    0.9941    0.8331 C.2     1  UNL1        0.2083
     22 O          -3.0366    0.2685    1.9657 O.2     1  UNL1       -0.4942
     23 N          -3.5849    1.3772    0.1034 N.2     1  UNL1       -0.2413
     24 C          -4.9952    1.1372    0.3340 C.3     1  UNL1        0.1246
     25 C          -5.6399    2.5018    0.4139 C.3     1  UNL1        0.0741
     26 C          -7.0852    2.4661    0.6495 C.2     1  UNL1        0.3072
     27 O          -7.7256    3.6945    0.7376 O.3     1  UNL1       -0.4806
     28 O          -7.8569    1.5039    0.7882 O.2     1  UNL1       -0.2509
     29 C          -5.5603    0.3109   -0.7647 C.2     1  UNL1        0.1886
     30 O          -4.9246   -0.1329   -1.6942 O.2     1  UNL1       -0.2924
     31 C          -6.5441   -0.4358   -1.5874 C.3     1  UNL1        0.1501
     32 F          -5.8536   -0.9858   -2.6542 F       1  UNL1       -0.2409
     33 H          -0.9052    2.1024    1.1833 H       1  UNL1        0.0640
     34 H          -0.2266    2.4412   -1.1374 H       1  UNL1        0.0255
     35 H          -1.7936    3.1101   -0.7005 H       1  UNL1        0.0255
     36 H          -1.7313    1.5892   -1.7309 H       1  UNL1        0.0255
     37 H           0.2297    0.3655   -2.1973 H       1  UNL1        0.2935
     38 H           0.5805   -2.6120   -0.1507 H       1  UNL1        0.0647
     39 H           1.4707   -3.1254   -1.8836 H       1  UNL1        0.2969
     40 H           4.2998   -0.2695    0.2586 H       1  UNL1        0.0749
     41 H           5.1565   -1.6895    0.9825 H       1  UNL1        0.0749
     42 H           5.2372    1.0009   -1.5430 H       1  UNL1        0.0621
     43 H           7.2157    1.8866   -2.5785 H       1  UNL1        0.0618
     44 H           9.3774    0.7753   -2.1835 H       1  UNL1        0.0618
     45 H           9.5538   -1.2576   -0.7281 H       1  UNL1        0.0618
     46 H           7.4911   -2.1170    0.3016 H       1  UNL1        0.0621
     47 H           1.2963   -2.5943    2.1752 H       1  UNL1        0.0321
     48 H          -1.3641   -1.7712    1.2273 H       1  UNL1        0.0233
     49 H          -1.1235   -1.4594    2.9604 H       1  UNL1        0.0233
     50 H          -0.8869   -3.1213    2.3791 H       1  UNL1        0.0233
     51 H           0.2814    0.1562    2.7099 H       1  UNL1        0.0233
     52 H           1.6290   -0.7640    3.5003 H       1  UNL1        0.0233
     53 H           1.8962    0.0566    1.9290 H       1  UNL1        0.0233
     54 H          -3.6165   -0.5361    1.9067 H       1  UNL1        0.2935
     55 H          -5.1799    0.5766    1.2795 H       1  UNL1        0.0631
     56 H          -5.1722    3.0281    1.2728 H       1  UNL1        0.0403
     57 H          -5.4434    2.9932   -0.5586 H       1  UNL1        0.0403
     58 H          -8.7216    3.8225    0.5663 H       1  UNL1        0.2951
     59 H          -7.0180   -1.2242   -0.9705 H       1  UNL1        0.0696
     60 H          -7.3389    0.2549   -1.9591 H       1  UNL1        0.0696
@<TRIPOS>BOND
     1     1     2    1
     2     1     3    1
     3     3     4    2
     4     4     5    1
     5     4     6    1
     6     6     7    1
     7     7     8    2
     8     8     9    1
     9     8    10    1
    10    10    11    1
    11    11    12    1
    12    12    13   ar
    13    13    14   ar
    14    14    15   ar
    15    15    16   ar
    16    16    17   ar
    17     6    18    1
    18    18    19    1
    19    18    20    1
    20     1    21    1
    21    21    22    1
    22    21    23    2
    23    23    24    1
    24    24    25    1
    25    25    26    1
    26    26    27    1
    27    26    28    2
    28    24    29    1
    29    29    30    2
    30    29    31    1
    31    31    32    1
    32    17    12   ar
    33     1    33    1
    34     2    34    1
    35     2    35    1
    36     2    36    1
    37     5    37    1
    38     6    38    1
    39     9    39    1
    40    11    40    1
    41    11    41    1
    42    13    42    1
    43    14    43    1
    44    15    44    1
    45    16    45    1
    46    17    46    1
    47    18    47    1
    48    19    48    1
    49    19    49    1
    50    19    50    1
    51    20    51    1
    52    20    52    1
    53    20    53    1
    54    22    54    1
    55    24    55    1
    56    25    56    1
    57    25    57    1
    58    27    58    1
    59    31    59    1
    60    31    60    1
