
     RDKit          3D

 60 60  0  0  0  0  0  0  0  0999 V2000
   -1.2535    1.3693    0.3797 C   0  0  2  0  0  0  0  0  0  0  0  0
   -1.2674    2.1428   -0.8959 C   0  0  0  0  0  0  0  0  0  0  0  0
   -0.4401    0.2427    0.4479 N   0  0  0  0  0  0  0  0  0  0  0  0
    0.1110   -0.5614   -0.3289 C   0  0  0  0  0  0  0  0  0  0  0  0
    0.0208   -0.5032   -1.7094 O   0  0  0  0  0  0  0  0  0  0  0  0
    0.9158   -1.6489    0.3274 C   0  0  1  0  0  0  0  0  0  0  0  0
    2.3152   -1.5056    0.0392 N   0  0  0  0  0  0  0  0  0  0  0  0
    3.0035   -2.3364   -0.7026 C   0  0  0  0  0  0  0  0  0  0  0  0
    2.1148   -3.3004   -1.1011 O   0  0  0  0  0  0  0  0  0  0  0  0
    4.3354   -2.0123   -0.8532 O   0  0  0  0  0  0  0  0  0  0  0  0
    4.9773   -1.0962    0.0480 C   0  0  0  0  0  0  0  0  0  0  0  0
    6.2692   -0.6869   -0.5065 C   0  0  0  0  0  0  0  0  0  0  0  0
    6.1602    0.4491   -1.3175 C   0  0  0  0  0  0  0  0  0  0  0  0
    7.2600    1.0086   -1.9427 C   0  0  0  0  0  0  0  0  0  0  0  0
    8.4766    0.3840   -1.7218 C   0  0  0  0  0  0  0  0  0  0  0  0
    8.6412   -0.7323   -0.9355 C   0  0  0  0  0  0  0  0  0  0  0  0
    7.4983   -1.2523   -0.3325 C   0  0  0  0  0  0  0  0  0  0  0  0
    0.6922   -1.7407    1.8000 C   0  0  0  0  0  0  0  0  0  0  0  0
   -0.7533   -2.0389    2.0942 C   0  0  0  0  0  0  0  0  0  0  0  0
    1.1620   -0.4987    2.5246 C   0  0  0  0  0  0  0  0  0  0  0  0
   -2.6261    0.9941    0.8331 C   0  0  0  0  0  0  0  0  0  0  0  0
   -3.0366    0.2685    1.9657 O   0  0  0  0  0  0  0  0  0  0  0  0
   -3.5849    1.3772    0.1034 N   0  0  0  0  0  0  0  0  0  0  0  0
   -4.9952    1.1372    0.3340 C   0  0  1  0  0  0  0  0  0  0  0  0
   -5.6399    2.5018    0.4139 C   0  0  0  0  0  0  0  0  0  0  0  0
   -7.0852    2.4661    0.6495 C   0  0  0  0  0  0  0  0  0  0  0  0
   -7.7256    3.6945    0.7376 O   0  0  0  0  0  0  0  0  0  0  0  0
   -7.8569    1.5039    0.7882 O   0  0  0  0  0  0  0  0  0  0  0  0
   -5.5603    0.3109   -0.7647 C   0  0  0  0  0  0  0  0  0  0  0  0
   -4.9246   -0.1329   -1.6942 O   0  0  0  0  0  0  0  0  0  0  0  0
   -6.5441   -0.4358   -1.5874 C   0  0  0  0  0  0  0  0  0  0  0  0
   -5.8536   -0.9858   -2.6542 F   0  0  0  0  0  0  0  0  0  0  0  0
   -0.9052    2.1024    1.1833 H   0  0  0  0  0  0  0  0  0  0  0  0
   -0.2266    2.4412   -1.1374 H   0  0  0  0  0  0  0  0  0  0  0  0
   -1.7936    3.1101   -0.7005 H   0  0  0  0  0  0  0  0  0  0  0  0
   -1.7313    1.5892   -1.7309 H   0  0  0  0  0  0  0  0  0  0  0  0
    0.2297    0.3655   -2.1973 H   0  0  0  0  0  0  0  0  0  0  0  0
    0.5805   -2.6120   -0.1507 H   0  0  0  0  0  0  0  0  0  0  0  0
    1.4707   -3.1254   -1.8836 H   0  0  0  0  0  0  0  0  0  0  0  0
    4.2998   -0.2695    0.2586 H   0  0  0  0  0  0  0  0  0  0  0  0
    5.1565   -1.6895    0.9825 H   0  0  0  0  0  0  0  0  0  0  0  0
    5.2372    1.0009   -1.5430 H   0  0  0  0  0  0  0  0  0  0  0  0
    7.2157    1.8866   -2.5785 H   0  0  0  0  0  0  0  0  0  0  0  0
    9.3774    0.7753   -2.1835 H   0  0  0  0  0  0  0  0  0  0  0  0
    9.5538   -1.2576   -0.7281 H   0  0  0  0  0  0  0  0  0  0  0  0
    7.4911   -2.1170    0.3016 H   0  0  0  0  0  0  0  0  0  0  0  0
    1.2963   -2.5943    2.1752 H   0  0  0  0  0  0  0  0  0  0  0  0
   -1.3641   -1.7712    1.2273 H   0  0  0  0  0  0  0  0  0  0  0  0
   -1.1235   -1.4594    2.9604 H   0  0  0  0  0  0  0  0  0  0  0  0
   -0.8869   -3.1213    2.3791 H   0  0  0  0  0  0  0  0  0  0  0  0
    0.2814    0.1562    2.7099 H   0  0  0  0  0  0  0  0  0  0  0  0
    1.6290   -0.7640    3.5003 H   0  0  0  0  0  0  0  0  0  0  0  0
    1.8962    0.0566    1.9290 H   0  0  0  0  0  0  0  0  0  0  0  0
   -3.6165   -0.5361    1.9067 H   0  0  0  0  0  0  0  0  0  0  0  0
   -5.1799    0.5766    1.2795 H   0  0  0  0  0  0  0  0  0  0  0  0
   -5.1722    3.0281    1.2728 H   0  0  0  0  0  0  0  0  0  0  0  0
   -5.4434    2.9932   -0.5586 H   0  0  0  0  0  0  0  0  0  0  0  0
   -8.7216    3.8225    0.5663 H   0  0  0  0  0  0  0  0  0  0  0  0
   -7.0180   -1.2242   -0.9705 H   0  0  0  0  0  0  0  0  0  0  0  0
   -7.3389    0.2549   -1.9591 H   0  0  0  0  0  0  0  0  0  0  0  0
  1  2  1  0
  1  3  1  0
  3  4  2  3
  4  5  1  0
  4  6  1  0
  6  7  1  0
  7  8  2  3
  8  9  1  0
  8 10  1  0
 10 11  1  0
 11 12  1  0
 12 13  2  0
 13 14  1  0
 14 15  2  0
 15 16  1  0
 16 17  2  0
  6 18  1  0
 18 19  1  0
 18 20  1  0
  1 21  1  0
 21 22  1  0
 21 23  2  3
 23 24  1  0
 24 25  1  0
 25 26  1  0
 26 27  1  0
 26 28  2  0
 24 29  1  0
 29 30  2  0
 29 31  1  0
 31 32  1  0
 17 12  1  0
  1 33  1  1
  2 34  1  0
  2 35  1  0
  2 36  1  0
  5 37  1  0
  6 38  1  6
  9 39  1  0
 11 40  1  0
 11 41  1  0
 13 42  1  0
 14 43  1  0
 15 44  1  0
 16 45  1  0
 17 46  1  0
 18 47  1  0
 19 48  1  0
 19 49  1  0
 19 50  1  0
 20 51  1  0
 20 52  1  0
 20 53  1  0
 22 54  1  0
 24 55  1  1
 25 56  1  0
 25 57  1  0
 27 58  1  0
 31 59  1  0
 31 60  1  0
M  END
$$$$
