
     RDKit          3D

 58 60  0  0  0  0  0  0  0  0999 V2000
    0.2288    0.8566    1.9148 C   0  0  2  0  0  0  0  0  0  0  0  0
    0.7056   -0.4067    2.5321 C   0  0  0  0  0  0  0  0  0  0  0  0
   -0.1466   -1.5241    2.0329 C   0  0  0  0  0  0  0  0  0  0  0  0
   -1.2867   -0.8595    1.2956 C   0  0  0  0  0  0  0  0  0  0  0  0
   -0.9703    0.5452    1.1685 N   0  0  0  0  0  0  0  0  0  0  0  0
   -1.8010    1.3647    0.3979 C   0  0  0  0  0  0  0  0  0  0  0  0
   -1.2843    2.5518    0.4503 O   0  0  0  0  0  0  0  0  0  0  0  0
   -2.9661    1.5545   -0.4421 C   0  0  0  0  0  0  0  0  0  0  0  0
   -3.8106    0.5337   -0.7201 O   0  0  0  0  0  0  0  0  0  0  0  0
   -4.4878   -0.0935    0.2791 C   0  0  0  0  0  0  0  0  0  0  0  0
   -4.5135   -1.5709    0.0265 C   0  0  0  0  0  0  0  0  0  0  0  0
   -4.7138   -1.6913   -1.4973 C   0  0  0  0  0  0  0  0  0  0  0  0
   -6.1453   -1.3143   -1.7499 C   0  0  0  0  0  0  0  0  0  0  0  0
   -6.5065    0.0256   -1.2056 C   0  0  0  0  0  0  0  0  0  0  0  0
   -6.0057    0.2832    0.1738 C   0  0  0  0  0  0  0  0  0  0  0  0
    1.2560    1.4306    0.9887 C   0  0  0  0  0  0  0  0  0  0  0  0
    1.0464    1.5699   -0.2347 O   0  0  0  0  0  0  0  0  0  0  0  0
    2.5255    1.8434    1.4784 N   0  0  0  0  0  0  0  0  0  0  0  0
    3.6089    2.4084    0.7272 C   0  0  0  0  0  0  0  0  0  0  0  0
    4.3175    1.3755   -0.0458 C   0  0  0  0  0  0  0  0  0  0  0  0
    5.3745    0.7477    0.6226 C   0  0  0  0  0  0  0  0  0  0  0  0
    6.1472   -0.2341    0.0612 C   0  0  0  0  0  0  0  0  0  0  0  0
    5.8634   -0.6209   -1.2337 C   0  0  0  0  0  0  0  0  0  0  0  0
    4.8434   -0.0392   -1.9273 C   0  0  0  0  0  0  0  0  0  0  0  0
    4.0880    0.9450   -1.3293 C   0  0  0  0  0  0  0  0  0  0  0  0
    6.6569   -1.6667   -1.8864 C   0  0  0  0  0  0  0  0  0  0  0  0
    7.2282   -2.6842   -1.0505 N   0  0  0  0  0  0  0  0  0  0  0  0
    6.9259   -1.8084   -3.1572 N   0  0  0  0  0  0  0  0  0  0  0  0
   -0.0436    1.6406    2.6799 H   0  0  0  0  0  0  0  0  0  0  0  0
    0.6127   -0.3624    3.6535 H   0  0  0  0  0  0  0  0  0  0  0  0
    1.7908   -0.5604    2.3205 H   0  0  0  0  0  0  0  0  0  0  0  0
    0.4788   -2.1726    1.3791 H   0  0  0  0  0  0  0  0  0  0  0  0
   -0.5265   -2.1573    2.8489 H   0  0  0  0  0  0  0  0  0  0  0  0
   -2.2152   -0.9580    1.8839 H   0  0  0  0  0  0  0  0  0  0  0  0
   -1.3298   -1.3580    0.3018 H   0  0  0  0  0  0  0  0  0  0  0  0
   -2.5617    1.8781   -1.4666 H   0  0  0  0  0  0  0  0  0  0  0  0
   -3.5353    2.4883   -0.1407 H   0  0  0  0  0  0  0  0  0  0  0  0
   -4.2430    0.1646    1.3047 H   0  0  0  0  0  0  0  0  0  0  0  0
   -5.4205   -2.0511    0.4991 H   0  0  0  0  0  0  0  0  0  0  0  0
   -3.5990   -2.0751    0.2893 H   0  0  0  0  0  0  0  0  0  0  0  0
   -4.5170   -2.7055   -1.8413 H   0  0  0  0  0  0  0  0  0  0  0  0
   -4.0307   -0.9392   -1.9426 H   0  0  0  0  0  0  0  0  0  0  0  0
   -6.8099   -2.1079   -1.3279 H   0  0  0  0  0  0  0  0  0  0  0  0
   -6.3224   -1.2987   -2.8572 H   0  0  0  0  0  0  0  0  0  0  0  0
   -6.2058    0.8476   -1.9111 H   0  0  0  0  0  0  0  0  0  0  0  0
   -7.6142    0.0761   -1.1653 H   0  0  0  0  0  0  0  0  0  0  0  0
   -6.5023   -0.4134    0.8745 H   0  0  0  0  0  0  0  0  0  0  0  0
   -6.1829    1.3066    0.4787 H   0  0  0  0  0  0  0  0  0  0  0  0
    2.6561    1.7057    2.5163 H   0  0  0  0  0  0  0  0  0  0  0  0
    3.2251    3.1927    0.0263 H   0  0  0  0  0  0  0  0  0  0  0  0
    4.3019    2.9285    1.4100 H   0  0  0  0  0  0  0  0  0  0  0  0
    5.6546    1.0038    1.6484 H   0  0  0  0  0  0  0  0  0  0  0  0
    6.9605   -0.7193    0.5713 H   0  0  0  0  0  0  0  0  0  0  0  0
    4.5793   -0.3047   -2.9432 H   0  0  0  0  0  0  0  0  0  0  0  0
    3.2691    1.4426   -1.8296 H   0  0  0  0  0  0  0  0  0  0  0  0
    8.0888   -2.6714   -0.4657 H   0  0  0  0  0  0  0  0  0  0  0  0
    7.2981   -3.6144   -0.5966 H   0  0  0  0  0  0  0  0  0  0  0  0
    6.5658   -1.1295   -3.8681 H   0  0  0  0  0  0  0  0  0  0  0  0
  1  2  1  0
  2  3  1  0
  3  4  1  0
  4  5  1  0
  5  6  1  0
  6  7  2  0
  6  8  1  0
  8  9  1  0
  9 10  1  0
 10 11  1  0
 11 12  1  0
 12 13  1  0
 13 14  1  0
 14 15  1  0
  1 16  1  0
 16 17  2  0
 16 18  1  0
 18 19  1  0
 19 20  1  0
 20 21  2  0
 21 22  1  0
 22 23  2  0
 23 24  1  0
 24 25  2  0
 23 26  1  0
 26 27  1  0
 26 28  2  3
  5  1  1  0
 15 10  1  0
 25 20  1  0
  1 29  1  1
  2 30  1  0
  2 31  1  0
  3 32  1  0
  3 33  1  0
  4 34  1  0
  4 35  1  0
  8 36  1  0
  8 37  1  0
 10 38  1  0
 11 39  1  0
 11 40  1  0
 12 41  1  0
 12 42  1  0
 13 43  1  0
 13 44  1  0
 14 45  1  0
 14 46  1  0
 15 47  1  0
 15 48  1  0
 18 49  1  0
 19 50  1  0
 19 51  1  0
 21 52  1  0
 22 53  1  0
 24 54  1  0
 25 55  1  0
 27 56  1  0
 27 57  1  0
 28 58  1  0
M  END
$$$$
