@<TRIPOS>MOLECULE
*****
 68 70 0 0 0
SMALL
GASTEIGER

@<TRIPOS>ATOM
      1 C          -6.7801    0.5413   -1.8174 C.3     1  UNL1       -0.0370
      2 C          -5.9268   -0.6210   -1.4107 C.3     1  UNL1        0.0766
      3 C          -5.7272   -1.5316   -2.5877 C.3     1  UNL1       -0.0370
      4 O          -4.7058   -0.1574   -0.8974 O.3     1  UNL1       -0.2731
      5 N          -4.5203   -0.5463    0.3569 N.3     1  UNL1       -0.0419
      6 C          -4.1933    0.4898    1.2939 C.3     1  UNL1        0.1387
      7 C          -3.7562    1.7447    0.6372 C.2     1  UNL1        0.2570
      8 O          -3.7146    1.9064   -0.5966 O.2     1  UNL1       -0.2718
      9 N          -3.3634    2.8192    1.4797 N.am    1  UNL1       -0.1961
     10 O          -2.9476    4.0103    0.9903 O.3     1  UNL1       -0.2951
     11 C          -5.3344    0.8251    2.2189 C.3     1  UNL1       -0.0185
     12 C          -5.7564   -0.3832    3.0308 C.3     1  UNL1       -0.0607
     13 C          -6.5028    1.4526    1.5164 C.3     1  UNL1       -0.0607
     14 S          -3.5166   -1.9310    0.5139 S.O2    1  UNL1        0.0832
     15 O          -3.9226   -3.0279   -0.4186 O.2     1  UNL1       -0.1509
     16 O          -3.6805   -2.4626    1.9127 O.2     1  UNL1       -0.1509
     17 C          -1.8232   -1.5662    0.2147 C.ar    1  UNL1        0.1077
     18 C          -1.2895   -1.6326   -1.0694 C.ar    1  UNL1       -0.0347
     19 C           0.0589   -1.3437   -1.3052 C.ar    1  UNL1       -0.0522
     20 C           0.8944   -0.9855   -0.2699 C.ar    1  UNL1       -0.0178
     21 C           2.3149   -0.6719   -0.4623 C.ar    1  UNL1       -0.0177
     22 C           3.2190   -0.9541    0.5618 C.ar    1  UNL1       -0.0506
     23 C           4.5565   -0.6758    0.4248 C.ar    1  UNL1       -0.0194
     24 C           5.0636   -0.1075   -0.7258 C.ar    1  UNL1        0.1210
     25 O           6.4023    0.1585   -0.8326 O.3     1  UNL1       -0.4874
     26 C           7.2699   -0.1445    0.2270 C.3     1  UNL1        0.1146
     27 C           8.6532    0.2427   -0.1485 C.ar    1  UNL1       -0.0103
     28 C           9.4487   -0.6904   -0.7786 C.ar    1  UNL1       -0.0540
     29 C          10.7463   -0.3614   -1.1424 C.ar    1  UNL1       -0.0430
     30 C          11.2195    0.8969   -0.8668 C.ar    1  UNL1        0.0410
     31 CL         12.8499    1.3568   -1.3068 Cl      1  UNL1       -0.0835
     32 C          10.4062    1.8047   -0.2391 C.ar    1  UNL1       -0.0430
     33 C           9.1298    1.5036    0.1268 C.ar    1  UNL1       -0.0540
     34 C           4.1490    0.1651   -1.7311 C.ar    1  UNL1       -0.0194
     35 C           2.8016   -0.1093   -1.6074 C.ar    1  UNL1       -0.0506
     36 C           0.3517   -0.9241    0.9957 C.ar    1  UNL1       -0.0522
     37 C          -0.9876   -1.2078    1.2511 C.ar    1  UNL1       -0.0347
     38 H          -7.7678    0.4637   -1.3360 H       1  UNL1        0.0255
     39 H          -6.2635    1.4892   -1.5507 H       1  UNL1        0.0255
     40 H          -6.9613    0.4960   -2.9211 H       1  UNL1        0.0255
     41 H          -6.4758   -1.2104   -0.6473 H       1  UNL1        0.0611
     42 H          -5.9303   -2.6117   -2.3274 H       1  UNL1        0.0255
     43 H          -4.7322   -1.4233   -3.0647 H       1  UNL1        0.0255
     44 H          -6.4749   -1.2853   -3.3691 H       1  UNL1        0.0255
     45 H          -3.3464    0.1411    1.9164 H       1  UNL1        0.0604
     46 H          -3.3743    2.7421    2.5241 H       1  UNL1        0.1822
     47 H          -3.4926    4.2015    0.1934 H       1  UNL1        0.2414
     48 H          -4.9616    1.5655    2.9552 H       1  UNL1        0.0317
     49 H          -4.9110   -0.7266    3.6504 H       1  UNL1        0.0233
     50 H          -6.0773   -1.2063    2.3862 H       1  UNL1        0.0233
     51 H          -6.5863   -0.1375    3.7164 H       1  UNL1        0.0233
     52 H          -7.0508    2.0736    2.2779 H       1  UNL1        0.0233
     53 H          -6.1287    2.1381    0.7541 H       1  UNL1        0.0233
     54 H          -7.2235    0.6942    1.1406 H       1  UNL1        0.0233
     55 H          -1.9587   -1.9139   -1.8610 H       1  UNL1        0.0637
     56 H           0.4526   -1.3991   -2.2953 H       1  UNL1        0.0624
     57 H           2.8574   -1.4043    1.4878 H       1  UNL1        0.0625
     58 H           5.2690   -0.8986    1.2331 H       1  UNL1        0.0654
     59 H           6.9190    0.4183    1.1241 H       1  UNL1        0.0748
     60 H           7.2188   -1.2216    0.5293 H       1  UNL1        0.0748
     61 H           9.0816   -1.6824   -0.9980 H       1  UNL1        0.0622
     62 H          11.3719   -1.0991   -1.6392 H       1  UNL1        0.0632
     63 H          10.7738    2.8107   -0.0148 H       1  UNL1        0.0632
     64 H           8.4563    2.1821    0.6201 H       1  UNL1        0.0622
     65 H           4.4996    0.6046   -2.6372 H       1  UNL1        0.0654
     66 H           2.0924    0.1059   -2.3960 H       1  UNL1        0.0625
     67 H           0.9995   -0.6427    1.8179 H       1  UNL1        0.0624
     68 H          -1.3614   -1.1451    2.2674 H       1  UNL1        0.0637
@<TRIPOS>BOND
     1     1     2    1
     2     2     3    1
     3     2     4    1
     4     4     5    1
     5     5     6    1
     6     6     7    1
     7     7     8    2
     8     7     9   am
     9     9    10    1
    10     6    11    1
    11    11    12    1
    12    11    13    1
    13     5    14    1
    14    14    15    2
    15    14    16    2
    16    14    17    1
    17    17    18   ar
    18    18    19   ar
    19    19    20   ar
    20    20    21    1
    21    21    22   ar
    22    22    23   ar
    23    23    24   ar
    24    24    25    1
    25    25    26    1
    26    26    27    1
    27    27    28   ar
    28    28    29   ar
    29    29    30   ar
    30    30    31    1
    31    30    32   ar
    32    32    33   ar
    33    24    34   ar
    34    34    35   ar
    35    20    36   ar
    36    36    37   ar
    37    37    17   ar
    38    35    21   ar
    39    33    27   ar
    40     1    38    1
    41     1    39    1
    42     1    40    1
    43     2    41    1
    44     3    42    1
    45     3    43    1
    46     3    44    1
    47     6    45    1
    48     9    46    1
    49    10    47    1
    50    11    48    1
    51    12    49    1
    52    12    50    1
    53    12    51    1
    54    13    52    1
    55    13    53    1
    56    13    54    1
    57    18    55    1
    58    19    56    1
    59    22    57    1
    60    23    58    1
    61    26    59    1
    62    26    60    1
    63    28    61    1
    64    29    62    1
    65    32    63    1
    66    33    64    1
    67    34    65    1
    68    35    66    1
    69    36    67    1
    70    37    68    1
