@<TRIPOS>MOLECULE
*****
 57 61 0 0 0
SMALL
GASTEIGER

@<TRIPOS>ATOM
      1 C           4.7812   -3.9984    4.1745 C.3     1  UNL1       -0.0206
      2 C           3.9531   -3.1638    3.2463 C.ar    1  UNL1        0.0611
      3 C           2.6117   -2.9725    3.2041 C.ar    1  UNL1       -0.0084
      4 C           2.3324   -2.0966    2.1425 C.ar    1  UNL1        0.1296
      5 C           0.9841   -1.6825    1.8207 C.2     1  UNL1        0.2667
      6 O           0.0312   -2.1448    2.5439 O.2     1  UNL1       -0.2682
      7 N           0.5733   -0.8196    0.7951 N.am    1  UNL1       -0.2802
      8 C          -0.7887   -0.4688    0.5551 C.ar    1  UNL1        0.0338
      9 C          -1.6085   -1.1797   -0.2815 C.ar    1  UNL1       -0.0399
     10 C          -2.9366   -0.8214   -0.5034 C.ar    1  UNL1       -0.0522
     11 C          -3.4718    0.2787    0.1232 C.ar    1  UNL1       -0.0159
     12 C          -4.8465    0.6959   -0.1102 C.ar    1  UNL1        0.0084
     13 C          -5.8198    0.5090    0.8847 C.ar    1  UNL1       -0.0522
     14 C          -7.1283    0.8722    0.6528 C.ar    1  UNL1       -0.0611
     15 C          -7.4772    1.4208   -0.5630 C.ar    1  UNL1       -0.0599
     16 C          -6.5462    1.6154   -1.5532 C.ar    1  UNL1       -0.0348
     17 C          -5.2193    1.2437   -1.3077 C.ar    1  UNL1        0.1127
     18 S          -4.0643    1.5481   -2.5706 S.O2    1  UNL1        0.0565
     19 N          -4.8687    2.3021   -3.9333 N.3     1  UNL1       -0.2035
     20 O          -3.0206    2.5464   -2.1385 O.2     1  UNL1       -0.1532
     21 O          -3.4059    0.3330   -3.1066 O.2     1  UNL1       -0.1532
     22 C          -2.6484    1.0162    0.9819 C.ar    1  UNL1       -0.0522
     23 C          -1.3427    0.6294    1.1747 C.ar    1  UNL1       -0.0399
     24 N           3.4894   -1.7956    1.5922 N.ar    1  UNL1       -0.2246
     25 C           3.7123   -0.9349    0.4756 C.ar    1  UNL1        0.1019
     26 C           3.9471    0.4212    0.6292 C.ar    1  UNL1       -0.0257
     27 C           4.1852    1.2688   -0.4321 C.ar    1  UNL1       -0.0157
     28 C           4.4183    2.6231   -0.2619 C.ar    1  UNL1       -0.0540
     29 C           4.6542    3.4517   -1.3409 C.ar    1  UNL1       -0.0612
     30 C           4.6673    2.9642   -2.6317 C.ar    1  UNL1       -0.0612
     31 C           4.4351    1.6135   -2.8046 C.ar    1  UNL1       -0.0539
     32 C           4.1981    0.7810   -1.7222 C.ar    1  UNL1       -0.0150
     33 C           3.9658   -0.5683   -1.8917 C.ar    1  UNL1       -0.0166
     34 C           3.7278   -1.4157   -0.8303 C.ar    1  UNL1        0.1493
     35 F           3.5046   -2.7242   -1.0210 F       1  UNL1       -0.2032
     36 N           4.4687   -2.4435    2.2630 N.ar    1  UNL1       -0.1709
     37 H           4.1888   -4.7972    4.6504 H       1  UNL1        0.0293
     38 H           5.6599   -4.3918    3.6079 H       1  UNL1        0.0293
     39 H           5.1992   -3.2966    4.9393 H       1  UNL1        0.0293
     40 H           1.9151   -3.4335    3.8876 H       1  UNL1        0.0659
     41 H           1.2858   -0.4081    0.1715 H       1  UNL1        0.1552
     42 H          -1.1675   -2.0522   -0.7734 H       1  UNL1        0.0636
     43 H          -3.5395   -1.4453   -1.1649 H       1  UNL1        0.0624
     44 H          -5.5090    0.0799    1.8155 H       1  UNL1        0.0624
     45 H          -7.8887    0.7264    1.4295 H       1  UNL1        0.0618
     46 H          -8.5263    1.6917   -0.6985 H       1  UNL1        0.0618
     47 H          -6.8100    2.0432   -2.5061 H       1  UNL1        0.0637
     48 H          -5.3756    3.1560   -3.5746 H       1  UNL1        0.1442
     49 H          -5.4879    1.5988   -4.3551 H       1  UNL1        0.1442
     50 H          -3.0918    1.8877    1.4722 H       1  UNL1        0.0624
     51 H          -0.7523    1.2469    1.8569 H       1  UNL1        0.0636
     52 H           3.9366    0.8057    1.6488 H       1  UNL1        0.0646
     53 H           4.4048    2.9899    0.7557 H       1  UNL1        0.0624
     54 H           4.8363    4.5121   -1.2018 H       1  UNL1        0.0618
     55 H           4.8525    3.6133   -3.4807 H       1  UNL1        0.0618
     56 H           4.4410    1.2091   -3.8122 H       1  UNL1        0.0624
     57 H           3.9810   -0.9318   -2.9229 H       1  UNL1        0.0653
@<TRIPOS>BOND
     1     1     2    1
     2     2     3   ar
     3     3     4   ar
     4     4     5    1
     5     5     6    2
     6     5     7   am
     7     7     8    1
     8     8     9   ar
     9     9    10   ar
    10    10    11   ar
    11    11    12    1
    12    12    13   ar
    13    13    14   ar
    14    14    15   ar
    15    15    16   ar
    16    16    17   ar
    17    17    18    1
    18    18    19    1
    19    18    20    2
    20    18    21    2
    21    11    22   ar
    22    22    23   ar
    23     4    24   ar
    24    24    25    1
    25    25    26   ar
    26    26    27   ar
    27    27    28   ar
    28    28    29   ar
    29    29    30   ar
    30    30    31   ar
    31    31    32   ar
    32    32    33   ar
    33    33    34   ar
    34    34    35    1
    35    24    36   ar
    36    36     2   ar
    37    23     8   ar
    38    34    25   ar
    39    17    12   ar
    40    32    27   ar
    41     1    37    1
    42     1    38    1
    43     1    39    1
    44     3    40    1
    45     7    41    1
    46     9    42    1
    47    10    43    1
    48    13    44    1
    49    14    45    1
    50    15    46    1
    51    16    47    1
    52    19    48    1
    53    19    49    1
    54    22    50    1
    55    23    51    1
    56    26    52    1
    57    28    53    1
    58    29    54    1
    59    30    55    1
    60    31    56    1
    61    33    57    1
