
     RDKit          3D

 69 71  0  0  0  0  0  0  0  0999 V2000
   -3.3549    3.6976    1.8511 C   0  0  0  0  0  0  0  0  0  0  0  0
   -3.5168    3.1486    0.4790 C   0  0  0  0  0  0  0  0  0  0  0  0
   -4.9949    3.0372    0.0922 C   0  0  0  0  0  0  0  0  0  0  0  0
   -2.7807    2.0019    0.0983 N   0  0  0  0  0  0  0  0  0  0  0  0
   -3.0405    1.7799   -1.3184 C   0  0  0  0  0  0  0  0  0  0  0  0
   -2.9356    0.8017    0.8711 C   0  0  2  0  0  0  0  0  0  0  0  0
   -2.2033    0.9042    2.1398 C   0  0  0  0  0  0  0  0  0  0  0  0
   -1.8030   -0.3307    2.8490 C   0  0  0  0  0  0  0  0  0  0  0  0
   -1.3851   -1.4156    1.9358 C   0  0  2  0  0  0  0  0  0  0  0  0
   -0.0246   -1.4457    1.5157 N   0  0  0  0  0  0  0  0  0  0  0  0
    0.9280   -2.4805    1.9696 C   0  0  0  0  0  0  0  0  0  0  0  0
    1.7462   -2.7052    0.7337 C   0  0  0  0  0  0  0  0  0  0  0  0
    1.7155   -1.4432   -0.0475 C   0  0  2  0  0  0  0  0  0  0  0  0
    3.0011   -0.8041   -0.1867 N   0  0  0  0  0  0  0  0  0  0  0  0
    3.5424   -0.4734   -1.4518 C   0  0  0  0  0  0  0  0  0  0  0  0
    2.7997   -0.7870   -2.4493 O   0  0  0  0  0  0  0  0  0  0  0  0
    4.8302    0.1697   -1.6607 C   0  0  0  0  0  0  0  0  0  0  0  0
    5.2708    0.4537   -2.9210 C   0  0  0  0  0  0  0  0  0  0  0  0
    6.4992    1.0656   -3.1096 C   0  0  0  0  0  0  0  0  0  0  0  0
    7.2722    1.3856   -2.0240 C   0  0  0  0  0  0  0  0  0  0  0  0
    6.8509    1.1104   -0.7521 C   0  0  0  0  0  0  0  0  0  0  0  0
    7.7019    1.4644    0.4030 C   0  0  0  0  0  0  0  0  0  0  0  0
    7.1847    2.5539    1.1042 F   0  0  0  0  0  0  0  0  0  0  0  0
    8.9768    1.6880   -0.0430 F   0  0  0  0  0  0  0  0  0  0  0  0
    7.7509    0.4058    1.2942 F   0  0  0  0  0  0  0  0  0  0  0  0
    5.6189    0.4980   -0.5879 C   0  0  0  0  0  0  0  0  0  0  0  0
    0.7362   -0.6221    0.6778 C   0  0  0  0  0  0  0  0  0  0  0  0
    0.6267    0.6021    0.5450 O   0  0  0  0  0  0  0  0  0  0  0  0
   -2.4068   -1.6574    0.8547 C   0  0  2  0  0  0  0  0  0  0  0  0
   -1.9961   -2.8725    0.1090 C   0  0  0  0  0  0  0  0  0  0  0  0
   -2.9837   -3.4290   -1.2054 S   0  0  0  0  0  6  0  0  0  0  0  0
   -3.1630   -2.2770   -2.5295 C   0  0  0  0  0  0  0  0  0  0  0  0
   -2.2573   -4.6355   -1.8054 O   0  0  0  0  0  0  0  0  0  0  0  0
   -4.3141   -3.9842   -0.7626 O   0  0  0  0  0  0  0  0  0  0  0  0
   -2.7333   -0.4453    0.0586 C   0  0  0  0  0  0  0  0  0  0  0  0
   -2.3301    3.6531    2.2155 H   0  0  0  0  0  0  0  0  0  0  0  0
   -4.1408    3.3390    2.5565 H   0  0  0  0  0  0  0  0  0  0  0  0
   -3.5692    4.8297    1.8373 H   0  0  0  0  0  0  0  0  0  0  0  0
   -3.1505    3.9834   -0.2121 H   0  0  0  0  0  0  0  0  0  0  0  0
   -5.5197    2.2703    0.6675 H   0  0  0  0  0  0  0  0  0  0  0  0
   -5.4888    4.0170    0.3226 H   0  0  0  0  0  0  0  0  0  0  0  0
   -5.0649    2.9199   -1.0063 H   0  0  0  0  0  0  0  0  0  0  0  0
   -2.1364    1.3723   -1.8508 H   0  0  0  0  0  0  0  0  0  0  0  0
   -3.9539    1.2064   -1.5116 H   0  0  0  0  0  0  0  0  0  0  0  0
   -3.1831    2.7826   -1.7749 H   0  0  0  0  0  0  0  0  0  0  0  0
   -4.0430    0.8201    1.1657 H   0  0  0  0  0  0  0  0  0  0  0  0
   -2.8368    1.4576    2.9218 H   0  0  0  0  0  0  0  0  0  0  0  0
   -1.2988    1.5713    2.0963 H   0  0  0  0  0  0  0  0  0  0  0  0
   -2.6077   -0.7095    3.5369 H   0  0  0  0  0  0  0  0  0  0  0  0
   -0.9146   -0.0961    3.4996 H   0  0  0  0  0  0  0  0  0  0  0  0
   -1.5013   -2.3525    2.5985 H   0  0  0  0  0  0  0  0  0  0  0  0
    1.5040   -2.0985    2.8201 H   0  0  0  0  0  0  0  0  0  0  0  0
    0.3923   -3.3924    2.2957 H   0  0  0  0  0  0  0  0  0  0  0  0
    1.2577   -3.5219    0.1476 H   0  0  0  0  0  0  0  0  0  0  0  0
    2.7662   -3.0807    0.9491 H   0  0  0  0  0  0  0  0  0  0  0  0
    1.3040   -1.5956   -1.0677 H   0  0  0  0  0  0  0  0  0  0  0  0
    3.5545   -0.5765    0.6826 H   0  0  0  0  0  0  0  0  0  0  0  0
    4.6663    0.2036   -3.7755 H   0  0  0  0  0  0  0  0  0  0  0  0
    6.8362    1.2845   -4.1044 H   0  0  0  0  0  0  0  0  0  0  0  0
    8.2444    1.8697   -2.1712 H   0  0  0  0  0  0  0  0  0  0  0  0
    5.3418    0.3066    0.4405 H   0  0  0  0  0  0  0  0  0  0  0  0
   -3.3540   -1.9219    1.4037 H   0  0  0  0  0  0  0  0  0  0  0  0
   -1.8405   -3.7527    0.8049 H   0  0  0  0  0  0  0  0  0  0  0  0
   -0.9521   -2.7397   -0.3190 H   0  0  0  0  0  0  0  0  0  0  0  0
   -3.1385   -2.8025   -3.5377 H   0  0  0  0  0  0  0  0  0  0  0  0
   -2.2941   -1.5925   -2.5852 H   0  0  0  0  0  0  0  0  0  0  0  0
   -4.1489   -1.7645   -2.5520 H   0  0  0  0  0  0  0  0  0  0  0  0
   -3.6369   -0.5888   -0.5596 H   0  0  0  0  0  0  0  0  0  0  0  0
   -1.9214   -0.2612   -0.6673 H   0  0  0  0  0  0  0  0  0  0  0  0
  1  2  1  0
  2  3  1  0
  2  4  1  0
  4  5  1  0
  4  6  1  0
  6  7  1  0
  7  8  1  0
  8  9  1  0
  9 10  1  0
 10 11  1  0
 11 12  1  0
 12 13  1  0
 13 14  1  0
 14 15  1  0
 15 16  2  0
 15 17  1  0
 17 18  2  0
 18 19  1  0
 19 20  2  0
 20 21  1  0
 21 22  1  0
 22 23  1  0
 22 24  1  0
 22 25  1  0
 21 26  2  0
 13 27  1  0
 27 28  2  0
  9 29  1  0
 29 30  1  0
 30 31  1  0
 31 32  1  0
 31 33  2  0
 31 34  2  0
 29 35  1  0
 35  6  1  0
 27 10  1  0
 26 17  1  0
  1 36  1  0
  1 37  1  0
  1 38  1  0
  2 39  1  0
  3 40  1  0
  3 41  1  0
  3 42  1  0
  5 43  1  0
  5 44  1  0
  5 45  1  0
  6 46  1  1
  7 47  1  0
  7 48  1  0
  8 49  1  0
  8 50  1  0
  9 51  1  1
 11 52  1  0
 11 53  1  0
 12 54  1  0
 12 55  1  0
 13 56  1  6
 14 57  1  0
 18 58  1  0
 19 59  1  0
 20 60  1  0
 26 61  1  0
 29 62  1  1
 30 63  1  0
 30 64  1  0
 32 65  1  0
 32 66  1  0
 32 67  1  0
 35 68  1  0
 35 69  1  0
M  END
$$$$
