@<TRIPOS>MOLECULE
*****
 52 55 0 0 0
SMALL
GASTEIGER

@<TRIPOS>ATOM
      1 C           4.4092   -2.3424    0.2723 C.3     1  UNL1       -0.0234
      2 C           3.9081   -0.9214    0.0743 C.3     1  UNL1        0.1253
      3 O           3.3563   -0.3938    1.2413 O.3     1  UNL1       -0.4810
      4 C           2.0569   -0.0040    1.4662 C.ar    1  UNL1        0.1613
      5 C           1.0592   -0.0782    0.5213 C.ar    1  UNL1       -0.0072
      6 C          -0.2487    0.3332    0.8053 C.ar    1  UNL1        0.0068
      7 C          -1.2922    0.2494   -0.2040 C.ar    1  UNL1        0.0211
      8 C          -1.1090    0.3925   -1.5616 C.ar    1  UNL1        0.0571
      9 N          -2.2888    0.2551   -2.1990 N.ar    1  UNL1       -0.1788
     10 N          -3.2022    0.0303   -1.2755 N.ar    1  UNL1       -0.2677
     11 C          -4.5942   -0.1748   -1.5172 C.3     1  UNL1        0.0550
     12 C          -5.4021    1.0793   -1.2599 C.3     1  UNL1       -0.0179
     13 C          -6.3454    0.9317   -0.0934 C.3     1  UNL1       -0.0022
     14 N          -7.2842   -0.1540   -0.2817 N.3     1  UNL1       -0.3158
     15 C          -6.6770   -1.2969   -0.9280 C.3     1  UNL1       -0.0022
     16 C          -5.1680   -1.3205   -0.7095 C.3     1  UNL1       -0.0179
     17 C          -2.6388    0.0176   -0.0334 C.ar    1  UNL1        0.0336
     18 C          -0.4692    0.8115    2.0779 C.ar    1  UNL1        0.0377
     19 N           0.5209    0.8744    2.9834 N.ar    1  UNL1       -0.2364
     20 C           1.7854    0.4898    2.7481 C.ar    1  UNL1        0.1583
     21 N           2.7839    0.5835    3.7552 N.pl3   1  UNL1       -0.3402
     22 C           4.9696   -0.0637   -0.5280 C.ar    1  UNL1        0.0318
     23 C           5.8493    0.5656    0.3140 C.ar    1  UNL1        0.0492
     24 CL          5.6943    0.3326    2.0374 Cl      1  UNL1       -0.0831
     25 C           6.8634    1.3842   -0.1862 C.ar    1  UNL1       -0.0402
     26 C           6.9457    1.5358   -1.5716 C.ar    1  UNL1       -0.0236
     27 C           6.0769    0.9165   -2.4374 C.ar    1  UNL1        0.1421
     28 F           6.1642    1.0681   -3.7658 F       1  UNL1       -0.2039
     29 C           5.0797    0.1081   -1.8921 C.ar    1  UNL1        0.0841
     30 CL          3.9573   -0.6950   -2.9625 Cl      1  UNL1       -0.0801
     31 H           4.4562   -2.5034    1.3746 H       1  UNL1        0.0269
     32 H           5.3674   -2.5228   -0.2256 H       1  UNL1        0.0269
     33 H           3.6721   -3.0787   -0.1029 H       1  UNL1        0.0269
     34 H           3.1165   -0.9952   -0.6977 H       1  UNL1        0.0782
     35 H           1.2248   -0.4483   -0.4683 H       1  UNL1        0.0662
     36 H          -0.1843    0.5860   -2.0876 H       1  UNL1        0.0854
     37 H          -4.7486   -0.4377   -2.5794 H       1  UNL1        0.0545
     38 H          -5.9651    1.4109   -2.1501 H       1  UNL1        0.0298
     39 H          -4.6841    1.8850   -1.0028 H       1  UNL1        0.0298
     40 H          -6.9441    1.8672   -0.0491 H       1  UNL1        0.0425
     41 H          -5.7968    0.8572    0.8636 H       1  UNL1        0.0425
     42 H          -7.5895   -0.4690    0.6702 H       1  UNL1        0.1219
     43 H          -6.8219   -1.2068   -2.0287 H       1  UNL1        0.0425
     44 H          -7.0709   -2.2606   -0.6013 H       1  UNL1        0.0425
     45 H          -4.9538   -1.2312    0.3626 H       1  UNL1        0.0298
     46 H          -4.8156   -2.2817   -1.1456 H       1  UNL1        0.0298
     47 H          -3.1480   -0.1446    0.9214 H       1  UNL1        0.0832
     48 H          -1.4894    1.1384    2.3201 H       1  UNL1        0.0836
     49 H           2.9527    1.4909    4.2324 H       1  UNL1        0.1438
     50 H           3.3706   -0.2261    4.0490 H       1  UNL1        0.1438
     51 H           7.5636    1.8879    0.4449 H       1  UNL1        0.0633
     52 H           7.7275    2.1681   -1.9802 H       1  UNL1        0.0647
@<TRIPOS>BOND
     1     1     2    1
     2     2     3    1
     3     3     4    1
     4     4     5   ar
     5     5     6   ar
     6     6     7    1
     7     7     8   ar
     8     8     9   ar
     9     9    10   ar
    10    10    11    1
    11    11    12    1
    12    12    13    1
    13    13    14    1
    14    14    15    1
    15    15    16    1
    16    10    17   ar
    17     6    18   ar
    18    18    19   ar
    19    19    20   ar
    20    20    21    1
    21     2    22    1
    22    22    23   ar
    23    23    24    1
    24    23    25   ar
    25    25    26   ar
    26    26    27   ar
    27    27    28    1
    28    27    29   ar
    29    29    30    1
    30    20     4   ar
    31    29    22   ar
    32    17     7   ar
    33    16    11    1
    34     1    31    1
    35     1    32    1
    36     1    33    1
    37     2    34    1
    38     5    35    1
    39     8    36    1
    40    11    37    1
    41    12    38    1
    42    12    39    1
    43    13    40    1
    44    13    41    1
    45    14    42    1
    46    15    43    1
    47    15    44    1
    48    16    45    1
    49    16    46    1
    50    17    47    1
    51    18    48    1
    52    21    49    1
    53    21    50    1
    54    25    51    1
    55    26    52    1
