
     RDKit          3D

104109  0  0  0  0  0  0  0  0999 V2000
  -13.6394    1.0767   -3.5925 C   0  0  0  0  0  0  0  0  0  0  0  0
  -13.0795    0.3474   -2.5265 O   0  0  0  0  0  0  0  0  0  0  0  0
  -12.5245    1.0399   -1.4718 C   0  0  0  0  0  0  0  0  0  0  0  0
  -12.5216    2.3106   -1.4799 O   0  0  0  0  0  0  0  0  0  0  0  0
  -11.9933    0.2343   -0.4432 N   0  0  0  0  0  0  0  0  0  0  0  0
  -11.3229    0.4557    0.8435 C   0  0  1  0  0  0  0  0  0  0  0  0
  -12.1875   -0.0672    1.9626 C   0  0  0  0  0  0  0  0  0  0  0  0
  -11.5757    0.1402    3.3107 C   0  0  0  0  0  0  0  0  0  0  0  0
  -13.5330    0.6195    1.9021 C   0  0  0  0  0  0  0  0  0  0  0  0
   -9.9639   -0.0873    0.8091 C   0  0  0  0  0  0  0  0  0  0  0  0
   -9.5566    0.1497    1.9952 O   0  0  0  0  0  0  0  0  0  0  0  0
   -9.1409   -0.7436   -0.1849 N   0  0  0  0  0  0  0  0  0  0  0  0
   -9.2274   -1.1357   -1.5841 C   0  0  0  0  0  0  0  0  0  0  0  0
   -8.6735   -2.5546   -1.5477 C   0  0  0  0  0  0  0  0  0  0  0  0
   -7.4613   -2.3431   -0.6657 C   0  0  0  0  0  0  0  0  0  0  0  0
   -7.8474   -1.2151    0.2505 C   0  0  1  0  0  0  0  0  0  0  0  0
   -6.7898   -0.1713    0.2351 C   0  0  0  0  0  0  0  0  0  0  0  0
   -6.8213    1.1773    0.4511 N   0  0  0  0  0  0  0  0  0  0  0  0
   -5.5506    1.6435    0.3608 C   0  0  0  0  0  0  0  0  0  0  0  0
   -4.7185    0.5781    0.0871 C   0  0  0  0  0  0  0  0  0  0  0  0
   -5.4978   -0.5070    0.0160 N   0  0  0  0  0  0  0  0  0  0  0  0
   -3.2493    0.6935   -0.0503 C   0  0  0  0  0  0  0  0  0  0  0  0
   -2.5512    1.8778    0.0186 C   0  0  0  0  0  0  0  0  0  0  0  0
   -1.1630    1.8724   -0.0851 C   0  0  0  0  0  0  0  0  0  0  0  0
   -0.4490    0.6939   -0.2579 C   0  0  0  0  0  0  0  0  0  0  0  0
   -1.1229   -0.4927   -0.3305 C   0  0  0  0  0  0  0  0  0  0  0  0
   -2.5068   -0.4819   -0.2267 C   0  0  0  0  0  0  0  0  0  0  0  0
    1.0050    0.7695   -0.3294 C   0  0  0  0  0  0  0  0  0  0  0  0
    1.8239    1.7577   -0.8247 C   0  0  0  0  0  0  0  0  0  0  0  0
    3.1879    1.6133   -0.7536 C   0  0  0  0  0  0  0  0  0  0  0  0
    3.7875    0.5036   -0.1987 C   0  0  0  0  0  0  0  0  0  0  0  0
    3.0096   -0.5162    0.3115 C   0  0  0  0  0  0  0  0  0  0  0  0
    1.6413   -0.3469    0.2276 C   0  0  0  0  0  0  0  0  0  0  0  0
    5.2433    0.3917   -0.1197 C   0  0  0  0  0  0  0  0  0  0  0  0
    6.2034    1.2910   -0.5321 C   0  0  0  0  0  0  0  0  0  0  0  0
    7.4156    0.7822   -0.2513 N   0  0  0  0  0  0  0  0  0  0  0  0
    7.2310   -0.4219    0.3304 C   0  0  0  0  0  0  0  0  0  0  0  0
    5.9207   -0.6630    0.4120 N   0  0  0  0  0  0  0  0  0  0  0  0
    8.4583   -1.1841    0.7486 C   0  0  2  0  0  0  0  0  0  0  0  0
    8.1187   -2.2483    1.7792 C   0  0  0  0  0  0  0  0  0  0  0  0
    8.1791   -1.5372    3.0907 C   0  0  0  0  0  0  0  0  0  0  0  0
    8.8674   -0.2247    2.8116 C   0  0  0  0  0  0  0  0  0  0  0  0
    9.3805   -0.3178    1.4586 N   0  0  0  0  0  0  0  0  0  0  0  0
   10.5712    0.4125    1.1867 C   0  0  0  0  0  0  0  0  0  0  0  0
   10.7844    0.9328    2.3113 O   0  0  0  0  0  0  0  0  0  0  0  0
   11.4365    0.6258    0.0310 C   0  0  1  0  0  0  0  0  0  0  0  0
   10.9756   -0.0855   -1.1300 N   0  0  0  0  0  0  0  0  0  0  0  0
   11.8107   -1.0444   -1.7532 C   0  0  0  0  0  0  0  0  0  0  0  0
   12.9646   -1.3118   -1.3307 O   0  0  0  0  0  0  0  0  0  0  0  0
   11.5298   -1.8241   -2.8821 O   0  0  0  0  0  0  0  0  0  0  0  0
   12.4974   -2.7433   -3.3709 C   0  0  0  0  0  0  0  0  0  0  0  0
   11.5601    2.1141   -0.2329 C   0  0  0  0  0  0  0  0  0  0  0  0
   12.4432    2.4045   -1.4137 C   0  0  0  0  0  0  0  0  0  0  0  0
   12.0879    2.8495    0.9623 C   0  0  0  0  0  0  0  0  0  0  0  0
  -14.3549    1.8097   -3.1131 H   0  0  0  0  0  0  0  0  0  0  0  0
  -12.8752    1.5908   -4.1911 H   0  0  0  0  0  0  0  0  0  0  0  0
  -14.3183    0.4140   -4.1962 H   0  0  0  0  0  0  0  0  0  0  0  0
  -12.0122   -0.8108   -0.4483 H   0  0  0  0  0  0  0  0  0  0  0  0
  -11.2689    1.5574    0.9404 H   0  0  0  0  0  0  0  0  0  0  0  0
  -12.3954   -1.1564    1.8498 H   0  0  0  0  0  0  0  0  0  0  0  0
  -11.0462    1.1053    3.4417 H   0  0  0  0  0  0  0  0  0  0  0  0
  -10.9055   -0.6764    3.6517 H   0  0  0  0  0  0  0  0  0  0  0  0
  -12.3894    0.1579    4.1108 H   0  0  0  0  0  0  0  0  0  0  0  0
  -14.1998    0.1882    1.1177 H   0  0  0  0  0  0  0  0  0  0  0  0
  -14.0686    0.5471    2.8874 H   0  0  0  0  0  0  0  0  0  0  0  0
  -13.4681    1.6940    1.6794 H   0  0  0  0  0  0  0  0  0  0  0  0
  -10.2529   -1.1419   -1.9843 H   0  0  0  0  0  0  0  0  0  0  0  0
   -8.5410   -0.5387   -2.2278 H   0  0  0  0  0  0  0  0  0  0  0  0
   -9.3463   -3.2777   -1.0735 H   0  0  0  0  0  0  0  0  0  0  0  0
   -8.3181   -2.8801   -2.5438 H   0  0  0  0  0  0  0  0  0  0  0  0
   -6.5799   -2.0286   -1.3017 H   0  0  0  0  0  0  0  0  0  0  0  0
   -7.1924   -3.2767   -0.1250 H   0  0  0  0  0  0  0  0  0  0  0  0
   -7.8879   -1.6585    1.2820 H   0  0  0  0  0  0  0  0  0  0  0  0
   -5.2766    2.6964    0.4909 H   0  0  0  0  0  0  0  0  0  0  0  0
   -5.0182   -1.4140   -0.1876 H   0  0  0  0  0  0  0  0  0  0  0  0
   -3.1112    2.7841    0.1511 H   0  0  0  0  0  0  0  0  0  0  0  0
   -0.7198    2.8665   -0.0175 H   0  0  0  0  0  0  0  0  0  0  0  0
   -0.5934   -1.4251   -0.4662 H   0  0  0  0  0  0  0  0  0  0  0  0
   -2.9832   -1.4733   -0.2927 H   0  0  0  0  0  0  0  0  0  0  0  0
    1.2709    2.5867   -1.2393 H   0  0  0  0  0  0  0  0  0  0  0  0
    3.7622    2.4304   -1.1629 H   0  0  0  0  0  0  0  0  0  0  0  0
    3.4712   -1.3802    0.7425 H   0  0  0  0  0  0  0  0  0  0  0  0
    1.0884   -1.1999    0.6546 H   0  0  0  0  0  0  0  0  0  0  0  0
    6.0175    2.2607   -1.0102 H   0  0  0  0  0  0  0  0  0  0  0  0
    5.5632   -1.5349    0.8258 H   0  0  0  0  0  0  0  0  0  0  0  0
    8.8969   -1.7171   -0.1008 H   0  0  0  0  0  0  0  0  0  0  0  0
    8.8419   -3.0957    1.7173 H   0  0  0  0  0  0  0  0  0  0  0  0
    7.1150   -2.6489    1.5345 H   0  0  0  0  0  0  0  0  0  0  0  0
    7.1520   -1.3797    3.5299 H   0  0  0  0  0  0  0  0  0  0  0  0
    8.6992   -2.1496    3.8594 H   0  0  0  0  0  0  0  0  0  0  0  0
    9.6536   -0.1238    3.5867 H   0  0  0  0  0  0  0  0  0  0  0  0
    8.2146    0.6620    2.9440 H   0  0  0  0  0  0  0  0  0  0  0  0
   12.4540    0.2555    0.2522 H   0  0  0  0  0  0  0  0  0  0  0  0
   10.0471    0.0219   -1.6018 H   0  0  0  0  0  0  0  0  0  0  0  0
   12.3907   -3.6706   -2.7697 H   0  0  0  0  0  0  0  0  0  0  0  0
   13.5125   -2.3163   -3.3763 H   0  0  0  0  0  0  0  0  0  0  0  0
   12.1730   -3.0460   -4.4070 H   0  0  0  0  0  0  0  0  0  0  0  0
   10.5321    2.5210   -0.4520 H   0  0  0  0  0  0  0  0  0  0  0  0
   12.0758    1.9717   -2.3598 H   0  0  0  0  0  0  0  0  0  0  0  0
   12.4774    3.5069   -1.5379 H   0  0  0  0  0  0  0  0  0  0  0  0
   13.4909    2.0936   -1.1806 H   0  0  0  0  0  0  0  0  0  0  0  0
   12.8687    2.2783    1.5164 H   0  0  0  0  0  0  0  0  0  0  0  0
   12.5858    3.7825    0.5651 H   0  0  0  0  0  0  0  0  0  0  0  0
   11.3028    3.1260    1.7019 H   0  0  0  0  0  0  0  0  0  0  0  0
  1  2  1  0
  2  3  1  0
  3  4  2  0
  3  5  1  0
  5  6  1  0
  6  7  1  0
  7  8  1  0
  7  9  1  0
  6 10  1  0
 10 11  2  0
 10 12  1  0
 12 13  1  0
 13 14  1  0
 14 15  1  0
 15 16  1  0
 16 17  1  0
 17 18  2  0
 18 19  1  0
 19 20  2  0
 20 21  1  0
 20 22  1  0
 22 23  2  0
 23 24  1  0
 24 25  2  0
 25 26  1  0
 26 27  2  0
 25 28  1  0
 28 29  2  0
 29 30  1  0
 30 31  2  0
 31 32  1  0
 32 33  2  0
 31 34  1  0
 34 35  2  0
 35 36  1  0
 36 37  2  0
 37 38  1  0
 37 39  1  0
 39 40  1  0
 40 41  1  0
 41 42  1  0
 42 43  1  0
 43 44  1  0
 44 45  2  0
 44 46  1  0
 46 47  1  0
 47 48  1  0
 48 49  2  0
 48 50  1  0
 50 51  1  0
 46 52  1  0
 52 53  1  0
 52 54  1  0
 16 12  1  0
 21 17  1  0
 27 22  1  0
 33 28  1  0
 38 34  1  0
 43 39  1  0
  1 55  1  0
  1 56  1  0
  1 57  1  0
  5 58  1  0
  6 59  1  1
  7 60  1  0
  8 61  1  0
  8 62  1  0
  8 63  1  0
  9 64  1  0
  9 65  1  0
  9 66  1  0
 13 67  1  0
 13 68  1  0
 14 69  1  0
 14 70  1  0
 15 71  1  0
 15 72  1  0
 16 73  1  1
 19 74  1  0
 21 75  1  0
 23 76  1  0
 24 77  1  0
 26 78  1  0
 27 79  1  0
 29 80  1  0
 30 81  1  0
 32 82  1  0
 33 83  1  0
 35 84  1  0
 38 85  1  0
 39 86  1  6
 40 87  1  0
 40 88  1  0
 41 89  1  0
 41 90  1  0
 42 91  1  0
 42 92  1  0
 46 93  1  1
 47 94  1  0
 51 95  1  0
 51 96  1  0
 51 97  1  0
 52 98  1  0
 53 99  1  0
 53100  1  0
 53101  1  0
 54102  1  0
 54103  1  0
 54104  1  0
M  END
$$$$
