@<TRIPOS>MOLECULE
*****
 34 36 0 0 0
SMALL
GASTEIGER

@<TRIPOS>ATOM
      1 S          -5.0148    1.6802    1.0774 S.3     1  UNL1       -0.1778
      2 C          -5.1451    0.2402   -0.0379 C.3     1  UNL1       -0.0011
      3 C          -3.7424   -0.0275   -0.5982 C.3     1  UNL1        0.0329
      4 C          -2.7944   -0.3169    0.4914 C.2     1  UNL1        0.2167
      5 O          -2.9973   -0.3638    1.7328 O.2     1  UNL1       -0.2756
      6 N          -1.4034   -0.6053    0.2470 N.am    1  UNL1       -0.2954
      7 C          -0.7133   -0.8495    1.4951 C.3     1  UNL1        0.0191
      8 C           0.6821   -1.3810    1.2833 C.3     1  UNL1       -0.0095
      9 C           1.3986   -0.5890    0.2440 C.ar    1  UNL1       -0.0161
     10 C           0.6448   -0.2528   -0.8816 C.ar    1  UNL1        0.0378
     11 C          -0.7814   -0.6461   -1.0578 C.3     1  UNL1        0.0550
     12 N           1.4986    0.4438   -1.6512 N.ar    1  UNL1       -0.3564
     13 C           2.7138    0.5637   -1.0928 C.ar    1  UNL1        0.0470
     14 C           2.6744   -0.0938    0.1295 C.ar    1  UNL1        0.0032
     15 C           3.7547   -0.1727    0.9781 C.ar    1  UNL1       -0.0523
     16 C           4.9198    0.4400    0.5690 C.ar    1  UNL1       -0.0611
     17 C           5.0145    1.1126   -0.6461 C.ar    1  UNL1       -0.0598
     18 C           3.8940    1.1698   -1.4794 C.ar    1  UNL1       -0.0378
     19 H          -4.6217    2.8138    0.3087 H       1  UNL1        0.1016
     20 H          -5.7783    0.4867   -0.9143 H       1  UNL1        0.0378
     21 H          -5.4802   -0.6279    0.5474 H       1  UNL1        0.0378
     22 H          -3.8563   -0.9587   -1.1949 H       1  UNL1        0.0366
     23 H          -3.4391    0.8531   -1.2028 H       1  UNL1        0.0366
     24 H          -0.6481    0.1242    2.0448 H       1  UNL1        0.0468
     25 H          -1.2605   -1.5928    2.1090 H       1  UNL1        0.0468
     26 H           0.6457   -2.4685    1.0180 H       1  UNL1        0.0329
     27 H           1.2121   -1.3227    2.2560 H       1  UNL1        0.0329
     28 H          -1.2326    0.0816   -1.7598 H       1  UNL1        0.0528
     29 H          -0.8378   -1.6325   -1.5457 H       1  UNL1        0.0528
     30 H           1.3088    0.8706   -2.5838 H       1  UNL1        0.1656
     31 H           3.6990   -0.6960    1.9349 H       1  UNL1        0.0624
     32 H           5.8124    0.4173    1.1895 H       1  UNL1        0.0618
     33 H           5.9262    1.6056   -0.9919 H       1  UNL1        0.0618
     34 H           3.9475    1.6941   -2.4397 H       1  UNL1        0.0638
@<TRIPOS>BOND
     1     1     2    1
     2     2     3    1
     3     3     4    1
     4     4     5    2
     5     4     6   am
     6     6     7    1
     7     7     8    1
     8     8     9    1
     9     9    10   ar
    10    10    11    1
    11    10    12   ar
    12    12    13   ar
    13    13    14   ar
    14    14    15   ar
    15    15    16   ar
    16    16    17   ar
    17    17    18   ar
    18    11     6    1
    19    18    13   ar
    20    14     9   ar
    21     1    19    1
    22     2    20    1
    23     2    21    1
    24     3    22    1
    25     3    23    1
    26     7    24    1
    27     7    25    1
    28     8    26    1
    29     8    27    1
    30    11    28    1
    31    11    29    1
    32    12    30    1
    33    15    31    1
    34    16    32    1
    35    17    33    1
    36    18    34    1
