
     RDKit          3D

 40 42  0  0  0  0  0  0  0  0999 V2000
    6.8904   -1.1797   -1.6840 N   0  0  0  0  0  0  0  0  0  0  0  0
    5.8491   -1.0797   -0.3349 S   0  0  0  0  0  0  0  0  0  0  0  0
    6.5020   -1.7742    0.8260 O   0  0  0  0  0  0  0  0  0  0  0  0
    5.7316    0.3887    0.0364 O   0  0  0  0  0  0  0  0  0  0  0  0
    4.2844   -1.6943   -0.6464 O   0  0  0  0  0  0  0  0  0  0  0  0
    3.1389   -0.9479   -0.3245 C   0  0  0  0  0  0  0  0  0  0  0  0
    2.5391   -0.0611   -1.2013 C   0  0  0  0  0  0  0  0  0  0  0  0
    1.4102    0.6541   -0.8409 C   0  0  0  0  0  0  0  0  0  0  0  0
    0.8781    0.4758    0.4152 C   0  0  0  0  0  0  0  0  0  0  0  0
   -0.3233    1.1735    0.9327 C   0  0  0  0  0  0  0  0  0  0  0  0
   -1.5404    0.4774    0.6725 N   0  0  0  0  0  0  0  0  0  0  0  0
   -1.4561   -0.7623    1.2837 N   0  0  0  0  0  0  0  0  0  0  0  0
   -0.9447   -1.8000    0.5764 C   0  0  0  0  0  0  0  0  0  0  0  0
   -0.9363   -2.9370    1.3278 N   0  0  0  0  0  0  0  0  0  0  0  0
   -1.4517   -2.5884    2.5153 N   0  0  0  0  0  0  0  0  0  0  0  0
   -1.7666   -1.2758    2.4919 C   0  0  0  0  0  0  0  0  0  0  0  0
   -2.6854    0.8794   -0.0597 C   0  0  0  0  0  0  0  0  0  0  0  0
   -2.7685    2.1116   -0.6682 C   0  0  0  0  0  0  0  0  0  0  0  0
   -3.8918    2.4671   -1.3685 C   0  0  0  0  0  0  0  0  0  0  0  0
   -4.9454    1.5858   -1.4646 C   0  0  0  0  0  0  0  0  0  0  0  0
   -4.8706    0.3491   -0.8581 C   0  0  0  0  0  0  0  0  0  0  0  0
   -3.7371   -0.0047   -0.1536 C   0  0  0  0  0  0  0  0  0  0  0  0
   -6.1570    1.9037   -2.1899 C   0  0  0  0  0  0  0  0  0  0  0  0
   -7.1458    2.1568   -2.7588 N   0  0  0  0  0  0  0  0  0  0  0  0
    1.4923   -0.4193    1.2853 C   0  0  0  0  0  0  0  0  0  0  0  0
    2.6229   -1.1487    0.9524 C   0  0  0  0  0  0  0  0  0  0  0  0
    7.4262   -0.2961   -1.8320 H   0  0  0  0  0  0  0  0  0  0  0  0
    6.4598   -1.5443   -2.5444 H   0  0  0  0  0  0  0  0  0  0  0  0
    2.9798    0.0630   -2.1919 H   0  0  0  0  0  0  0  0  0  0  0  0
    0.9297    1.3421   -1.4960 H   0  0  0  0  0  0  0  0  0  0  0  0
   -0.4037    2.2054    0.5330 H   0  0  0  0  0  0  0  0  0  0  0  0
   -0.2400    1.3080    2.0491 H   0  0  0  0  0  0  0  0  0  0  0  0
   -0.5522   -1.8980   -0.4420 H   0  0  0  0  0  0  0  0  0  0  0  0
   -2.1985   -0.6101    3.2328 H   0  0  0  0  0  0  0  0  0  0  0  0
   -1.9625    2.8290   -0.6147 H   0  0  0  0  0  0  0  0  0  0  0  0
   -3.9889    3.4163   -1.8531 H   0  0  0  0  0  0  0  0  0  0  0  0
   -5.6944   -0.3660   -0.9211 H   0  0  0  0  0  0  0  0  0  0  0  0
   -3.6669   -0.9665    0.3239 H   0  0  0  0  0  0  0  0  0  0  0  0
    1.1036   -0.5921    2.2927 H   0  0  0  0  0  0  0  0  0  0  0  0
    3.0899   -1.8405    1.6378 H   0  0  0  0  0  0  0  0  0  0  0  0
  1  2  1  0
  2  3  2  0
  2  4  2  0
  2  5  1  0
  5  6  1  0
  6  7  2  0
  7  8  1  0
  8  9  2  0
  9 10  1  0
 10 11  1  0
 11 12  1  0
 12 13  1  0
 13 14  2  0
 14 15  1  0
 15 16  2  0
 11 17  1  0
 17 18  2  0
 18 19  1  0
 19 20  2  0
 20 21  1  0
 21 22  2  0
 20 23  1  0
 23 24  3  0
  9 25  1  0
 25 26  2  0
 26  6  1  0
 16 12  1  0
 22 17  1  0
  1 27  1  0
  1 28  1  0
  7 29  1  0
  8 30  1  0
 10 31  1  0
 10 32  1  0
 13 33  1  0
 16 34  1  0
 18 35  1  0
 19 36  1  0
 21 37  1  0
 22 38  1  0
 25 39  1  0
 26 40  1  0
M  END
$$$$
