@<TRIPOS>MOLECULE
*****
 40 42 0 0 0
SMALL
GASTEIGER

@<TRIPOS>ATOM
      1 N           6.8904   -1.1797   -1.6840 N.3     1  UNL1       -0.1739
      2 S           5.8491   -1.0797   -0.3349 S.O2    1  UNL1        0.1892
      3 O           6.5020   -1.7742    0.8260 O.2     1  UNL1       -0.1191
      4 O           5.7316    0.3887    0.0364 O.2     1  UNL1       -0.1191
      5 O           4.2844   -1.6943   -0.6464 O.3     1  UNL1       -0.3338
      6 C           3.1389   -0.9479   -0.3245 C.ar    1  UNL1        0.1579
      7 C           2.5391   -0.0611   -1.2013 C.ar    1  UNL1       -0.0167
      8 C           1.4102    0.6541   -0.8409 C.ar    1  UNL1       -0.0535
      9 C           0.8781    0.4758    0.4152 C.ar    1  UNL1       -0.0280
     10 C          -0.3233    1.1735    0.9327 C.3     1  UNL1        0.0586
     11 N          -1.5404    0.4774    0.6725 N.pl3   1  UNL1       -0.2334
     12 N          -1.4561   -0.7623    1.2837 N.ar    1  UNL1       -0.2332
     13 C          -0.9447   -1.8000    0.5764 C.ar    1  UNL1        0.1376
     14 N          -0.9363   -2.9370    1.3278 N.ar    1  UNL1       -0.1365
     15 N          -1.4517   -2.5884    2.5153 N.ar    1  UNL1       -0.1365
     16 C          -1.7666   -1.2758    2.4919 C.ar    1  UNL1        0.1376
     17 C          -2.6854    0.8794   -0.0597 C.ar    1  UNL1        0.0505
     18 C          -2.7685    2.1116   -0.6682 C.ar    1  UNL1       -0.0377
     19 C          -3.8918    2.4671   -1.3685 C.ar    1  UNL1       -0.0425
     20 C          -4.9454    1.5858   -1.4646 C.ar    1  UNL1        0.0519
     21 C          -4.8706    0.3491   -0.8581 C.ar    1  UNL1       -0.0425
     22 C          -3.7371   -0.0047   -0.1536 C.ar    1  UNL1       -0.0377
     23 C          -6.1570    1.9037   -2.1899 C.1     1  UNL1        0.0992
     24 N          -7.1458    2.1568   -2.7588 N.1     1  UNL1       -0.1909
     25 C           1.4923   -0.4193    1.2853 C.ar    1  UNL1       -0.0535
     26 C           2.6229   -1.1487    0.9524 C.ar    1  UNL1       -0.0167
     27 H           7.4262   -0.2961   -1.8320 H       1  UNL1        0.1472
     28 H           6.4598   -1.5443   -2.5444 H       1  UNL1        0.1472
     29 H           2.9798    0.0630   -2.1919 H       1  UNL1        0.0655
     30 H           0.9297    1.3421   -1.4960 H       1  UNL1        0.0622
     31 H          -0.4037    2.2054    0.5330 H       1  UNL1        0.0533
     32 H          -0.2400    1.3080    2.0491 H       1  UNL1        0.0533
     33 H          -0.5522   -1.8980   -0.4420 H       1  UNL1        0.1064
     34 H          -2.1985   -0.6101    3.2328 H       1  UNL1        0.1064
     35 H          -1.9625    2.8290   -0.6147 H       1  UNL1        0.0637
     36 H          -3.9889    3.4163   -1.8531 H       1  UNL1        0.0631
     37 H          -5.6944   -0.3660   -0.9211 H       1  UNL1        0.0631
     38 H          -3.6669   -0.9665    0.3239 H       1  UNL1        0.0637
     39 H           1.1036   -0.5921    2.2927 H       1  UNL1        0.0622
     40 H           3.0899   -1.8405    1.6378 H       1  UNL1        0.0655
@<TRIPOS>BOND
     1     1     2    1
     2     2     3    2
     3     2     4    2
     4     2     5    1
     5     5     6    1
     6     6     7   ar
     7     7     8   ar
     8     8     9   ar
     9     9    10    1
    10    10    11    1
    11    11    12    1
    12    12    13   ar
    13    13    14   ar
    14    14    15   ar
    15    15    16   ar
    16    11    17    1
    17    17    18   ar
    18    18    19   ar
    19    19    20   ar
    20    20    21   ar
    21    21    22   ar
    22    20    23    1
    23    23    24    3
    24     9    25   ar
    25    25    26   ar
    26    26     6   ar
    27    16    12   ar
    28    22    17   ar
    29     1    27    1
    30     1    28    1
    31     7    29    1
    32     8    30    1
    33    10    31    1
    34    10    32    1
    35    13    33    1
    36    16    34    1
    37    18    35    1
    38    19    36    1
    39    21    37    1
    40    22    38    1
    41    25    39    1
    42    26    40    1
