@<TRIPOS>MOLECULE
*****
 49 52 0 0 0
SMALL
GASTEIGER

@<TRIPOS>ATOM
      1 C          -1.6493   -0.0059    0.7368 C.3     1  UNL1       -0.0301
      2 C          -2.5285   -1.1027    1.2697 C.3     1  UNL1       -0.0470
      3 C          -3.9131   -0.6175    0.8901 C.3     1  UNL1       -0.0261
      4 C          -3.7183    0.5221   -0.0961 C.3     1  UNL1        0.0609
      5 O          -4.6893    0.5521   -1.0767 O.3     1  UNL1       -0.3912
      6 C          -2.3439    0.2277   -0.6105 C.3     1  UNL1       -0.0030
      7 C          -2.3944   -0.9847   -1.4704 C.3     1  UNL1       -0.0569
      8 C          -1.6414    1.3942   -1.2335 C.3     1  UNL1       -0.0447
      9 C          -0.2299    0.9151   -1.5719 C.3     1  UNL1       -0.0486
     10 C           0.4577    0.6757   -0.2713 C.3     1  UNL1       -0.0288
     11 C          -0.2211   -0.3794    0.5821 C.3     1  UNL1       -0.0340
     12 C           0.4059   -0.4578    1.9262 C.3     1  UNL1       -0.0494
     13 C           1.8755   -0.3079    2.0146 C.3     1  UNL1       -0.0488
     14 C           2.5166    0.5000    0.9296 C.3     1  UNL1       -0.0249
     15 C           3.9937    0.2824    0.9670 C.3     1  UNL1        0.0135
     16 C           4.6802    0.6849   -0.2703 C.2     1  UNL1        0.1561
     17 O           5.9388    0.6599   -0.2698 O.2     1  UNL1       -0.2927
     18 C           3.9260    1.0947   -1.4449 C.2     1  UNL1       -0.0226
     19 C           2.6154    0.8643   -1.5069 C.2     1  UNL1       -0.0743
     20 C           1.8850    0.2012   -0.4188 C.3     1  UNL1       -0.0074
     21 C           1.9580   -1.3053   -0.6352 C.3     1  UNL1       -0.0556
     22 H          -1.7984    0.9126    1.3033 H       1  UNL1        0.0310
     23 H          -2.4098   -1.3016    2.3410 H       1  UNL1        0.0269
     24 H          -2.2972   -2.0609    0.7488 H       1  UNL1        0.0269
     25 H          -4.3703   -0.2748    1.8474 H       1  UNL1        0.0290
     26 H          -4.5281   -1.4408    0.4303 H       1  UNL1        0.0290
     27 H          -3.6739    1.4425    0.5195 H       1  UNL1        0.0599
     28 H          -5.3872   -0.1280   -0.9750 H       1  UNL1        0.2098
     29 H          -3.3750   -1.5377   -1.3901 H       1  UNL1        0.0236
     30 H          -1.6128   -1.7292   -1.3240 H       1  UNL1        0.0236
     31 H          -2.2909   -0.6473   -2.5356 H       1  UNL1        0.0236
     32 H          -2.1527    1.7868   -2.1371 H       1  UNL1        0.0271
     33 H          -1.5545    2.1906   -0.4726 H       1  UNL1        0.0271
     34 H           0.2547    1.7950   -2.0398 H       1  UNL1        0.0268
     35 H          -0.2256    0.0278   -2.2024 H       1  UNL1        0.0268
     36 H           0.4403    1.6040    0.3531 H       1  UNL1        0.0312
     37 H          -0.1336   -1.3364    0.0322 H       1  UNL1        0.0307
     38 H           0.1325   -1.4533    2.3621 H       1  UNL1        0.0268
     39 H          -0.1243    0.2804    2.5937 H       1  UNL1        0.0268
     40 H           2.4236   -1.2786    2.1581 H       1  UNL1        0.0268
     41 H           2.0965    0.2385    2.9802 H       1  UNL1        0.0268
     42 H           2.3133    1.5806    1.1102 H       1  UNL1        0.0313
     43 H           4.2206   -0.7636    1.2902 H       1  UNL1        0.0348
     44 H           4.4001    0.9244    1.8026 H       1  UNL1        0.0348
     45 H           4.4796    1.5913   -2.2569 H       1  UNL1        0.0649
     46 H           2.1715    1.2159   -2.4300 H       1  UNL1        0.0579
     47 H           1.8150   -1.8752    0.3048 H       1  UNL1        0.0238
     48 H           1.2588   -1.6417   -1.4274 H       1  UNL1        0.0238
     49 H           3.0045   -1.5347   -0.9469 H       1  UNL1        0.0238
@<TRIPOS>BOND
     1     1     2    1
     2     2     3    1
     3     3     4    1
     4     4     5    1
     5     4     6    1
     6     6     7    1
     7     6     8    1
     8     8     9    1
     9     9    10    1
    10    10    11    1
    11    11    12    1
    12    12    13    1
    13    13    14    1
    14    14    15    1
    15    15    16    1
    16    16    17    2
    17    16    18    1
    18    18    19    2
    19    19    20    1
    20    20    21    1
    21     6     1    1
    22    20    10    1
    23    11     1    1
    24    20    14    1
    25     1    22    1
    26     2    23    1
    27     2    24    1
    28     3    25    1
    29     3    26    1
    30     4    27    1
    31     5    28    1
    32     7    29    1
    33     7    30    1
    34     7    31    1
    35     8    32    1
    36     8    33    1
    37     9    34    1
    38     9    35    1
    39    10    36    1
    40    11    37    1
    41    12    38    1
    42    12    39    1
    43    13    40    1
    44    13    41    1
    45    14    42    1
    46    15    43    1
    47    15    44    1
    48    18    45    1
    49    19    46    1
    50    21    47    1
    51    21    48    1
    52    21    49    1
