
     RDKit          3D

 49 52  0  0  0  0  0  0  0  0999 V2000
   -1.6493   -0.0059    0.7368 C   0  0  2  0  0  0  0  0  0  0  0  0
   -2.5285   -1.1027    1.2697 C   0  0  0  0  0  0  0  0  0  0  0  0
   -3.9131   -0.6175    0.8901 C   0  0  0  0  0  0  0  0  0  0  0  0
   -3.7183    0.5221   -0.0961 C   0  0  2  0  0  0  0  0  0  0  0  0
   -4.6893    0.5521   -1.0767 O   0  0  0  0  0  0  0  0  0  0  0  0
   -2.3439    0.2277   -0.6105 C   0  0  2  0  0  0  0  0  0  0  0  0
   -2.3944   -0.9847   -1.4704 C   0  0  0  0  0  0  0  0  0  0  0  0
   -1.6414    1.3942   -1.2335 C   0  0  0  0  0  0  0  0  0  0  0  0
   -0.2299    0.9151   -1.5719 C   0  0  0  0  0  0  0  0  0  0  0  0
    0.4577    0.6757   -0.2713 C   0  0  1  0  0  0  0  0  0  0  0  0
   -0.2211   -0.3794    0.5821 C   0  0  1  0  0  0  0  0  0  0  0  0
    0.4059   -0.4578    1.9262 C   0  0  0  0  0  0  0  0  0  0  0  0
    1.8755   -0.3079    2.0146 C   0  0  0  0  0  0  0  0  0  0  0  0
    2.5166    0.5000    0.9296 C   0  0  1  0  0  0  0  0  0  0  0  0
    3.9937    0.2824    0.9670 C   0  0  0  0  0  0  0  0  0  0  0  0
    4.6802    0.6849   -0.2703 C   0  0  0  0  0  0  0  0  0  0  0  0
    5.9388    0.6599   -0.2698 O   0  0  0  0  0  0  0  0  0  0  0  0
    3.9260    1.0947   -1.4449 C   0  0  0  0  0  0  0  0  0  0  0  0
    2.6154    0.8643   -1.5069 C   0  0  0  0  0  0  0  0  0  0  0  0
    1.8850    0.2012   -0.4188 C   0  0  2  0  0  0  0  0  0  0  0  0
    1.9580   -1.3053   -0.6352 C   0  0  0  0  0  0  0  0  0  0  0  0
   -1.7984    0.9126    1.3033 H   0  0  0  0  0  0  0  0  0  0  0  0
   -2.4098   -1.3016    2.3410 H   0  0  0  0  0  0  0  0  0  0  0  0
   -2.2972   -2.0609    0.7488 H   0  0  0  0  0  0  0  0  0  0  0  0
   -4.3703   -0.2748    1.8474 H   0  0  0  0  0  0  0  0  0  0  0  0
   -4.5281   -1.4408    0.4303 H   0  0  0  0  0  0  0  0  0  0  0  0
   -3.6739    1.4425    0.5195 H   0  0  0  0  0  0  0  0  0  0  0  0
   -5.3872   -0.1280   -0.9750 H   0  0  0  0  0  0  0  0  0  0  0  0
   -3.3750   -1.5377   -1.3901 H   0  0  0  0  0  0  0  0  0  0  0  0
   -1.6128   -1.7292   -1.3240 H   0  0  0  0  0  0  0  0  0  0  0  0
   -2.2909   -0.6473   -2.5356 H   0  0  0  0  0  0  0  0  0  0  0  0
   -2.1527    1.7868   -2.1371 H   0  0  0  0  0  0  0  0  0  0  0  0
   -1.5545    2.1906   -0.4726 H   0  0  0  0  0  0  0  0  0  0  0  0
    0.2547    1.7950   -2.0398 H   0  0  0  0  0  0  0  0  0  0  0  0
   -0.2256    0.0278   -2.2024 H   0  0  0  0  0  0  0  0  0  0  0  0
    0.4403    1.6040    0.3531 H   0  0  0  0  0  0  0  0  0  0  0  0
   -0.1336   -1.3364    0.0322 H   0  0  0  0  0  0  0  0  0  0  0  0
    0.1325   -1.4533    2.3621 H   0  0  0  0  0  0  0  0  0  0  0  0
   -0.1243    0.2804    2.5937 H   0  0  0  0  0  0  0  0  0  0  0  0
    2.4236   -1.2786    2.1581 H   0  0  0  0  0  0  0  0  0  0  0  0
    2.0965    0.2385    2.9802 H   0  0  0  0  0  0  0  0  0  0  0  0
    2.3133    1.5806    1.1102 H   0  0  0  0  0  0  0  0  0  0  0  0
    4.2206   -0.7636    1.2902 H   0  0  0  0  0  0  0  0  0  0  0  0
    4.4001    0.9244    1.8026 H   0  0  0  0  0  0  0  0  0  0  0  0
    4.4796    1.5913   -2.2569 H   0  0  0  0  0  0  0  0  0  0  0  0
    2.1715    1.2159   -2.4300 H   0  0  0  0  0  0  0  0  0  0  0  0
    1.8150   -1.8752    0.3048 H   0  0  0  0  0  0  0  0  0  0  0  0
    1.2588   -1.6417   -1.4274 H   0  0  0  0  0  0  0  0  0  0  0  0
    3.0045   -1.5347   -0.9469 H   0  0  0  0  0  0  0  0  0  0  0  0
  1  2  1  0
  2  3  1  0
  3  4  1  0
  4  5  1  0
  4  6  1  0
  6  7  1  6
  6  8  1  0
  8  9  1  0
  9 10  1  0
 10 11  1  0
 11 12  1  0
 12 13  1  0
 13 14  1  0
 14 15  1  0
 15 16  1  0
 16 17  2  0
 16 18  1  0
 18 19  2  0
 19 20  1  0
 20 21  1  6
  6  1  1  0
 20 10  1  0
 11  1  1  0
 20 14  1  0
  1 22  1  1
  2 23  1  0
  2 24  1  0
  3 25  1  0
  3 26  1  0
  4 27  1  1
  5 28  1  0
  7 29  1  0
  7 30  1  0
  7 31  1  0
  8 32  1  0
  8 33  1  0
  9 34  1  0
  9 35  1  0
 10 36  1  1
 11 37  1  6
 12 38  1  0
 12 39  1  0
 13 40  1  0
 13 41  1  0
 14 42  1  1
 15 43  1  0
 15 44  1  0
 18 45  1  0
 19 46  1  0
 21 47  1  0
 21 48  1  0
 21 49  1  0
M  END
$$$$
