@<TRIPOS>MOLECULE
*****
 30 32 0 0 0
SMALL
GASTEIGER

@<TRIPOS>ATOM
      1 O           2.8023   -1.9027    0.0170 O.2     1  UNL1       -0.2872
      2 C           2.3488   -0.7759   -0.2952 C.2     1  UNL1        0.1875
      3 C           0.9684   -0.4561    0.0838 C.2     1  UNL1       -0.0137
      4 C           0.2392   -1.3436    0.7356 C.2     1  UNL1       -0.0508
      5 C          -1.1289   -1.0822    1.1350 C.ar    1  UNL1       -0.0212
      6 C          -1.8170   -2.0872    1.8217 C.ar    1  UNL1       -0.0509
      7 C          -3.1193   -1.9085    2.2319 C.ar    1  UNL1       -0.0156
      8 C          -3.7963   -0.7343    1.9829 C.ar    1  UNL1        0.1663
      9 C          -3.1150    0.2624    1.3022 C.ar    1  UNL1        0.1668
     10 C          -1.7940    0.0857    0.8842 C.ar    1  UNL1       -0.0090
     11 O          -3.9944    1.3213    1.1781 O.3     1  UNL1       -0.4526
     12 C          -5.3207    0.8322    1.3928 C.3     1  UNL1        0.2332
     13 O          -5.0765   -0.2673    2.2616 O.3     1  UNL1       -0.4526
     14 C           3.1754    0.1569   -1.0028 C.ar    1  UNL1        0.0397
     15 C           2.7572    1.4100   -1.3823 C.ar    1  UNL1       -0.0480
     16 C           3.5758    2.2848   -2.0621 C.ar    1  UNL1       -0.0429
     17 C           4.8512    1.8855   -2.3679 C.ar    1  UNL1        0.0276
     18 N           5.2921    0.6462   -2.0028 N.ar    1  UNL1       -0.2626
     19 C           4.4838   -0.1949   -1.3413 C.ar    1  UNL1        0.0383
     20 H           0.5161    0.4915   -0.1523 H       1  UNL1        0.0656
     21 H           0.7123   -2.3186    0.9757 H       1  UNL1        0.0625
     22 H          -1.3313   -3.0257    2.0415 H       1  UNL1        0.0625
     23 H          -3.5949   -2.7161    2.7549 H       1  UNL1        0.0655
     24 H          -1.3289    0.9002    0.3623 H       1  UNL1        0.0661
     25 H          -5.7237    0.5166    0.4207 H       1  UNL1        0.1166
     26 H          -5.8900    1.6365    1.8823 H       1  UNL1        0.1166
     27 H           1.7561    1.7313   -1.1456 H       1  UNL1        0.0626
     28 H           3.2201    3.2597   -2.3460 H       1  UNL1        0.0633
     29 H           5.4837    2.5843   -2.9029 H       1  UNL1        0.0829
     30 H           4.8483   -1.1922   -1.0511 H       1  UNL1        0.0837
@<TRIPOS>BOND
     1     1     2    2
     2     2     3    1
     3     3     4    2
     4     4     5    1
     5     5     6   ar
     6     6     7   ar
     7     7     8   ar
     8     8     9   ar
     9     9    10   ar
    10     9    11    1
    11    11    12    1
    12    12    13    1
    13     2    14    1
    14    14    15   ar
    15    15    16   ar
    16    16    17   ar
    17    17    18   ar
    18    18    19   ar
    19    10     5   ar
    20    19    14   ar
    21    13     8    1
    22     3    20    1
    23     4    21    1
    24     6    22    1
    25     7    23    1
    26    10    24    1
    27    12    25    1
    28    12    26    1
    29    15    27    1
    30    16    28    1
    31    17    29    1
    32    19    30    1
