@<TRIPOS>MOLECULE
*****
 37 38 0 0 0
SMALL
GASTEIGER

@<TRIPOS>ATOM
      1 C          -4.6995   -2.1268    0.1735 C.3     1  UNL1       -0.0653
      2 C          -4.3469   -0.8511    0.8647 C.3     1  UNL1       -0.0559
      3 C          -3.5810    0.1150   -0.0183 C.3     1  UNL1       -0.0532
      4 C          -3.3058    1.3404    0.8246 C.3     1  UNL1       -0.0500
      5 C          -2.5506    2.4110    0.0971 C.3     1  UNL1       -0.0186
      6 C          -1.2181    1.8577   -0.3512 C.3     1  UNL1        0.0912
      7 O          -0.4591    1.4260    0.7599 O.3     1  UNL1       -0.4764
      8 C           0.7998    0.8880    0.5155 C.ar    1  UNL1        0.2148
      9 C           1.5650    0.4554    1.6041 C.ar    1  UNL1        0.0019
     10 C           2.7955   -0.0697    1.3566 C.ar    1  UNL1       -0.0313
     11 C           3.2966   -0.1832    0.0797 C.ar    1  UNL1        0.0658
     12 N           4.5806   -0.7326   -0.1620 N.ar    1  UNL1       -0.3044
     13 C           4.9772   -2.0001   -0.1215 C.ar    1  UNL1        0.0293
     14 C           6.3216   -2.0755   -0.4271 C.ar    1  UNL1        0.0458
     15 N           6.7280   -0.8170   -0.6538 N.ar    1  UNL1       -0.2437
     16 C           5.6708   -0.0038   -0.4927 C.ar    1  UNL1        0.1004
     17 C           2.4903    0.2622   -0.9444 C.ar    1  UNL1        0.0552
     18 N           1.2724    0.7845   -0.7298 N.ar    1  UNL1       -0.2193
     19 H          -4.4234   -2.1545   -0.8987 H       1  UNL1        0.0230
     20 H          -4.2161   -3.0101    0.6757 H       1  UNL1        0.0230
     21 H          -5.7976   -2.2951    0.3022 H       1  UNL1        0.0230
     22 H          -5.2544   -0.2802    1.2156 H       1  UNL1        0.0263
     23 H          -3.7633   -1.0880    1.7759 H       1  UNL1        0.0263
     24 H          -4.1479    0.3583   -0.9369 H       1  UNL1        0.0265
     25 H          -2.6084   -0.3116   -0.3425 H       1  UNL1        0.0265
     26 H          -4.3127    1.7141    1.1754 H       1  UNL1        0.0266
     27 H          -2.7890    0.9891    1.7348 H       1  UNL1        0.0266
     28 H          -2.3424    3.2197    0.8412 H       1  UNL1        0.0298
     29 H          -3.1255    2.8576   -0.7127 H       1  UNL1        0.0298
     30 H          -1.3167    1.0501   -1.1043 H       1  UNL1        0.0697
     31 H          -0.6892    2.6888   -0.8883 H       1  UNL1        0.0697
     32 H           1.1700    0.5436    2.6246 H       1  UNL1        0.0671
     33 H           3.3845   -0.4031    2.1997 H       1  UNL1        0.0640
     34 H           4.3571   -2.8643    0.1137 H       1  UNL1        0.0829
     35 H           6.9532   -2.9478   -0.4828 H       1  UNL1        0.0845
     36 H           5.7215    1.0710   -0.6172 H       1  UNL1        0.1032
     37 H           2.8638    0.1819   -1.9469 H       1  UNL1        0.0852
@<TRIPOS>BOND
     1     1     2    1
     2     2     3    1
     3     3     4    1
     4     4     5    1
     5     5     6    1
     6     6     7    1
     7     7     8    1
     8     8     9   ar
     9     9    10   ar
    10    10    11   ar
    11    11    12    1
    12    12    13   ar
    13    13    14   ar
    14    14    15   ar
    15    15    16   ar
    16    11    17   ar
    17    17    18   ar
    18    18     8   ar
    19    16    12   ar
    20     1    19    1
    21     1    20    1
    22     1    21    1
    23     2    22    1
    24     2    23    1
    25     3    24    1
    26     3    25    1
    27     4    26    1
    28     4    27    1
    29     5    28    1
    30     5    29    1
    31     6    30    1
    32     6    31    1
    33     9    32    1
    34    10    33    1
    35    13    34    1
    36    14    35    1
    37    16    36    1
    38    17    37    1
