@<TRIPOS>MOLECULE
*****
 52 53 0 0 0
SMALL
GASTEIGER

@<TRIPOS>ATOM
      1 C           9.7018    0.7113    0.8971 C.2     1  UNL1       -0.0938
      2 C           8.8420    0.5344   -0.0726 C.2     1  UNL1       -0.0066
      3 C           7.4932    0.0722    0.2327 C.2     1  UNL1        0.2405
      4 O           7.2256   -0.1353    1.4384 O.2     1  UNL1       -0.2705
      5 N           6.5799   -0.1146   -0.8087 N.am    1  UNL1       -0.2820
      6 C           5.2577   -0.5533   -0.6517 C.ar    1  UNL1        0.0351
      7 C           4.4645   -0.6901   -1.8086 C.ar    1  UNL1       -0.0385
      8 C           3.1700   -1.1128   -1.7220 C.ar    1  UNL1       -0.0322
      9 C           2.5988   -1.4180   -0.5083 C.ar    1  UNL1        0.1238
     10 S           0.9709   -1.9514   -0.3814 S.O2    1  UNL1        0.0623
     11 O           0.3069   -2.0545   -1.7274 O.2     1  UNL1       -0.1528
     12 O           0.8724   -3.3206    0.2788 O.2     1  UNL1       -0.1528
     13 N           0.0033   -0.8910    0.5989 N.3     1  UNL1       -0.1735
     14 C          -0.0500    0.4244    0.0221 C.3     1  UNL1        0.0364
     15 C          -1.2671    1.2075    0.4567 C.3     1  UNL1        0.0323
     16 N          -2.4428    0.4437    0.0987 N.am    1  UNL1       -0.2649
     17 C          -3.7501    1.0128    0.1330 C.2     1  UNL1        0.4034
     18 O          -3.9414    2.2082    0.4770 O.2     1  UNL1       -0.2262
     19 O          -4.8873    0.3001   -0.2053 O.3     1  UNL1       -0.4445
     20 C          -6.1832    0.8420   -0.1781 C.3     1  UNL1        0.1068
     21 C          -6.3556    2.0223   -1.0915 C.3     1  UNL1       -0.0253
     22 C          -7.1044   -0.2587   -0.7181 C.3     1  UNL1       -0.0253
     23 C          -6.6461    1.1941    1.2057 C.3     1  UNL1       -0.0253
     24 C          -2.2053   -0.9303   -0.2948 C.3     1  UNL1        0.0323
     25 C          -1.2769   -1.5094    0.7550 C.3     1  UNL1        0.0364
     26 C           3.3749   -1.2827    0.6095 C.ar    1  UNL1        0.0690
     27 CL          2.7070   -1.6567    2.1973 Cl      1  UNL1       -0.0815
     28 C           4.7049   -0.8528    0.5642 C.ar    1  UNL1       -0.0202
     29 H           9.4149    0.5169    1.9122 H       1  UNL1        0.0536
     30 H          10.7057    1.0564    0.6597 H       1  UNL1        0.0536
     31 H           9.1202    0.7257   -1.0843 H       1  UNL1        0.0663
     32 H           6.9292    0.0954   -1.7801 H       1  UNL1        0.1551
     33 H           4.9166   -0.4470   -2.7836 H       1  UNL1        0.0637
     34 H           2.5726   -1.2105   -2.6458 H       1  UNL1        0.0638
     35 H           0.8516    0.9771    0.3724 H       1  UNL1        0.0459
     36 H           0.0237    0.3738   -1.0740 H       1  UNL1        0.0459
     37 H          -1.2735    2.1508   -0.1278 H       1  UNL1        0.0479
     38 H          -1.1978    1.4164    1.5396 H       1  UNL1        0.0479
     39 H          -7.4317    2.0573   -1.3749 H       1  UNL1        0.0268
     40 H          -5.7957    1.8982   -2.0507 H       1  UNL1        0.0268
     41 H          -6.1312    2.9872   -0.5988 H       1  UNL1        0.0268
     42 H          -6.8590   -0.3330   -1.8063 H       1  UNL1        0.0268
     43 H          -8.1634   -0.0112   -0.5503 H       1  UNL1        0.0268
     44 H          -6.8589   -1.2444   -0.2720 H       1  UNL1        0.0268
     45 H          -5.9788    1.8966    1.7125 H       1  UNL1        0.0268
     46 H          -7.6482    1.6730    1.1026 H       1  UNL1        0.0268
     47 H          -6.7808    0.2857    1.8463 H       1  UNL1        0.0268
     48 H          -1.7214   -0.9784   -1.2899 H       1  UNL1        0.0479
     49 H          -3.1956   -1.4564   -0.2941 H       1  UNL1        0.0479
     50 H          -1.2628   -2.6068    0.5976 H       1  UNL1        0.0459
     51 H          -1.6454   -1.2879    1.7689 H       1  UNL1        0.0459
     52 H           5.2460   -0.7757    1.5129 H       1  UNL1        0.0651
@<TRIPOS>BOND
     1     1     2    2
     2     2     3    1
     3     3     4    2
     4     3     5   am
     5     5     6    1
     6     6     7   ar
     7     7     8   ar
     8     8     9   ar
     9     9    10    1
    10    10    11    2
    11    10    12    2
    12    10    13    1
    13    13    14    1
    14    14    15    1
    15    15    16    1
    16    16    17   am
    17    17    18    2
    18    17    19    1
    19    19    20    1
    20    20    21    1
    21    20    22    1
    22    20    23    1
    23    16    24    1
    24    24    25    1
    25     9    26   ar
    26    26    27    1
    27    26    28   ar
    28    28     6   ar
    29    25    13    1
    30     1    29    1
    31     1    30    1
    32     2    31    1
    33     5    32    1
    34     7    33    1
    35     8    34    1
    36    14    35    1
    37    14    36    1
    38    15    37    1
    39    15    38    1
    40    21    39    1
    41    21    40    1
    42    21    41    1
    43    22    42    1
    44    22    43    1
    45    22    44    1
    46    23    45    1
    47    23    46    1
    48    23    47    1
    49    24    48    1
    50    24    49    1
    51    25    50    1
    52    25    51    1
    53    28    52    1
