@<TRIPOS>MOLECULE
*****
 75 78 0 0 0
SMALL
GASTEIGER

@<TRIPOS>ATOM
      1 C           8.8179    3.4163    1.5952 C.3     1  UNL1        0.0790
      2 O           8.0627    2.6117    0.9992 O.3     1  UNL1       -0.4915
      3 C           7.2704    1.7731    0.3717 C.ar    1  UNL1        0.1615
      4 C           6.5163    2.1344   -0.6887 C.ar    1  UNL1       -0.0160
      5 C           5.6707    1.2068   -1.3885 C.ar    1  UNL1       -0.0548
      6 C           5.6651   -0.0768   -0.8960 C.ar    1  UNL1       -0.0422
      7 C           4.8354   -1.0392   -1.6526 C.3     1  UNL1       -0.0119
      8 C           3.8189   -1.7906   -0.8797 C.3     1  UNL1        0.0158
      9 N           2.8591   -1.3630   -0.1052 N.pl3   1  UNL1       -0.3131
     10 C           1.6357   -0.7391    0.0028 C.ar    1  UNL1        0.2169
     11 N           1.3458    0.5384    0.0267 N.ar    1  UNL1       -0.2221
     12 C           0.0626    0.9270    0.1826 C.ar    1  UNL1        0.0466
     13 C          -1.0044    0.1729    0.3140 C.ar    1  UNL1        0.0945
     14 C          -2.4350    0.5582    0.3529 C.2     1  UNL1        0.2489
     15 O          -3.3835    0.0541    0.0188 O.2     1  UNL1       -0.2700
     16 N          -2.6413    1.8888    0.9875 N.am    1  UNL1       -0.3112
     17 C          -3.4833    2.8257    1.3730 C.3     1  UNL1        0.0133
     18 C          -4.6071    3.4105    0.5282 C.3     1  UNL1       -0.0215
     19 C          -5.7199    2.4667    0.5292 C.3     1  UNL1        0.0161
     20 N          -6.9360    2.7395   -0.2065 N.am    1  UNL1       -0.3014
     21 C          -7.3167    2.3399   -1.5191 C.3     1  UNL1        0.0151
     22 C          -8.7967    2.2168   -1.5221 C.3     1  UNL1       -0.0289
     23 C          -9.2916    2.7932   -0.2256 C.3     1  UNL1        0.0256
     24 C          -8.0589    3.4625    0.3425 C.2     1  UNL1        0.2156
     25 O          -8.0441    4.4114    1.1112 O.2     1  UNL1       -0.2756
     26 C          -0.7067   -1.2329    0.2945 C.ar    1  UNL1        0.1362
     27 N          -1.7944   -2.1270    0.4683 N.pl3   1  UNL1       -0.3255
     28 C          -1.3594   -3.5715    0.4271 C.3     1  UNL1        0.0220
     29 C          -0.3180   -3.8111   -0.5942 C.3     1  UNL1       -0.0345
     30 C          -0.5628   -5.2141   -1.1474 C.3     1  UNL1       -0.0513
     31 C          -1.9897   -5.5489   -0.8171 C.3     1  UNL1       -0.0513
     32 C          -2.5598   -4.3561   -0.1219 C.3     1  UNL1       -0.0345
     33 N           0.5463   -1.6640    0.1451 N.ar    1  UNL1       -0.1990
     34 C           6.3867   -0.4519    0.1436 C.ar    1  UNL1       -0.0131
     35 C           7.2436    0.4602    0.8401 C.ar    1  UNL1        0.1617
     36 O           7.9844    0.0059    1.8805 O.3     1  UNL1       -0.4914
     37 C           7.9988   -1.3695    2.1845 C.3     1  UNL1        0.0790
     38 H           9.2355    3.0571    2.5983 H       1  UNL1        0.0660
     39 H           9.7674    3.7811    1.0396 H       1  UNL1        0.0660
     40 H           8.3895    4.4457    1.8830 H       1  UNL1        0.0660
     41 H           6.5365    3.1250   -1.0824 H       1  UNL1        0.0655
     42 H           5.1464    1.5682   -2.2354 H       1  UNL1        0.0621
     43 H           4.3506   -0.5574   -2.5571 H       1  UNL1        0.0328
     44 H           5.5249   -1.8102   -2.1416 H       1  UNL1        0.0328
     45 H           4.3558   -2.7279   -0.4174 H       1  UNL1        0.0465
     46 H           3.2750   -2.4067   -1.7815 H       1  UNL1        0.0465
     47 H           3.0800   -1.7108    1.0326 H       1  UNL1        0.1489
     48 H          -0.1208    2.0611    0.1204 H       1  UNL1        0.0839
     49 H          -1.5323    2.1609    1.3032 H       1  UNL1        0.1490
     50 H          -2.8790    3.7769    1.6857 H       1  UNL1        0.0462
     51 H          -4.0144    2.6338    2.3941 H       1  UNL1        0.0462
     52 H          -4.1504    3.7051   -0.4245 H       1  UNL1        0.0295
     53 H          -4.9276    4.3886    1.0161 H       1  UNL1        0.0295
     54 H          -5.4498    1.4051    0.2705 H       1  UNL1        0.0465
     55 H          -6.0277    2.3320    1.6396 H       1  UNL1        0.0465
     56 H          -6.9927    3.0100   -2.3405 H       1  UNL1        0.0465
     57 H          -6.8410    1.3140   -1.6725 H       1  UNL1        0.0465
     58 H          -9.2251    2.8295   -2.3452 H       1  UNL1        0.0285
     59 H          -9.1299    1.1469   -1.6379 H       1  UNL1        0.0285
     60 H         -10.1379    3.5115   -0.3439 H       1  UNL1        0.0359
     61 H          -9.5421    2.0012    0.5283 H       1  UNL1        0.0359
     62 H          -2.7490   -1.9727    0.5986 H       1  UNL1        0.1478
     63 H          -1.1675   -3.8520    1.4583 H       1  UNL1        0.0498
     64 H          -0.4677   -3.0952   -1.4344 H       1  UNL1        0.0283
     65 H           0.7342   -3.7740   -0.1941 H       1  UNL1        0.0283
     66 H          -0.2623   -5.2951   -2.1980 H       1  UNL1        0.0266
     67 H           0.1352   -5.9016   -0.5564 H       1  UNL1        0.0266
     68 H          -2.0382   -6.5025   -0.2052 H       1  UNL1        0.0266
     69 H          -2.5611   -5.7289   -1.7544 H       1  UNL1        0.0266
     70 H          -3.0900   -3.6780   -0.8398 H       1  UNL1        0.0283
     71 H          -3.2399   -4.6488    0.7172 H       1  UNL1        0.0283
     72 H           6.3669   -1.4574    0.5800 H       1  UNL1        0.0658
     73 H           8.2358   -1.9070    1.2354 H       1  UNL1        0.0660
     74 H           8.7124   -1.6007    2.9801 H       1  UNL1        0.0660
     75 H           6.9895   -1.6852    2.5262 H       1  UNL1        0.0660
@<TRIPOS>BOND
     1     1     2    1
     2     2     3    1
     3     3     4   ar
     4     4     5   ar
     5     5     6   ar
     6     6     7    1
     7     7     8    1
     8     8     9    1
     9     9    10    1
    10    10    11   ar
    11    11    12   ar
    12    12    13   ar
    13    13    14    1
    14    14    15    2
    15    14    16   am
    16    16    17    1
    17    17    18    1
    18    18    19    1
    19    19    20    1
    20    20    21    1
    21    21    22    1
    22    22    23    1
    23    23    24    1
    24    24    25    2
    25    13    26   ar
    26    26    27    1
    27    27    28    1
    28    28    29    1
    29    29    30    1
    30    30    31    1
    31    31    32    1
    32    26    33   ar
    33     6    34   ar
    34    34    35   ar
    35    35    36    1
    36    36    37    1
    37    35     3   ar
    38    33    10   ar
    39    24    20   am
    40    32    28    1
    41     1    38    1
    42     1    39    1
    43     1    40    1
    44     4    41    1
    45     5    42    1
    46     7    43    1
    47     7    44    1
    48     8    45    1
    49     8    46    1
    50     9    47    1
    51    12    48    1
    52    16    49    1
    53    17    50    1
    54    17    51    1
    55    18    52    1
    56    18    53    1
    57    19    54    1
    58    19    55    1
    59    21    56    1
    60    21    57    1
    61    22    58    1
    62    22    59    1
    63    23    60    1
    64    23    61    1
    65    27    62    1
    66    28    63    1
    67    29    64    1
    68    29    65    1
    69    30    66    1
    70    30    67    1
    71    31    68    1
    72    31    69    1
    73    32    70    1
    74    32    71    1
    75    34    72    1
    76    37    73    1
    77    37    74    1
    78    37    75    1
