
     RDKit          3D

 66 69  0  0  0  0  0  0  0  0999 V2000
    0.3245    0.5284    2.4606 C   0  0  0  0  0  0  0  0  0  0  0  0
    0.4803    0.8043    1.0010 C   0  0  1  0  0  0  0  0  0  0  0  0
    1.8586    0.5216    0.5794 C   0  0  0  0  0  0  0  0  0  0  0  0
    2.3511   -0.7417    0.4410 C   0  0  0  0  0  0  0  0  0  0  0  0
    3.6753   -0.8911    0.0245 C   0  0  0  0  0  0  0  0  0  0  0  0
    4.5217    0.1491   -0.2567 C   0  0  0  0  0  0  0  0  0  0  0  0
    5.9032   -0.0127   -0.6906 C   0  0  0  0  0  0  0  0  0  0  0  0
    6.2858   -1.0993   -1.4519 C   0  0  0  0  0  0  0  0  0  0  0  0
    7.6027   -1.2641   -1.8721 C   0  0  0  0  0  0  0  0  0  0  0  0
    8.5189   -0.3065   -1.5045 C   0  0  0  0  0  0  0  0  0  0  0  0
    9.7113   -0.4487   -1.8806 O   0  0  0  0  0  0  0  0  0  0  0  0
    8.1684    0.7748   -0.7542 N   0  0  0  0  0  0  0  0  0  0  0  0
    9.1795    1.7724   -0.3850 C   0  0  0  0  0  0  0  0  0  0  0  0
    6.9040    0.8924   -0.3758 C   0  0  0  0  0  0  0  0  0  0  0  0
    3.9817    1.4170   -0.1028 C   0  0  0  0  0  0  0  0  0  0  0  0
    2.6897    1.6196    0.3026 C   0  0  0  0  0  0  0  0  0  0  0  0
   -0.5651    0.1134    0.2494 N   0  0  0  0  0  0  0  0  0  0  0  0
   -0.8132   -1.2941    0.3026 C   0  0  0  0  0  0  0  0  0  0  0  0
   -2.2220   -1.7427    0.1843 C   0  0  0  0  0  0  0  0  0  0  0  0
   -3.2326   -0.6100   -0.0603 C   0  0  2  0  0  0  0  0  0  0  0  0
   -3.5235    0.0157    1.2433 C   0  0  0  0  0  0  0  0  0  0  0  0
   -4.4517    1.1567    1.3010 C   0  0  0  0  0  0  0  0  0  0  0  0
   -5.8518    0.9301    0.8210 C   0  0  0  0  0  0  0  0  0  0  0  0
   -3.9426    2.4105    0.6243 C   0  0  0  0  0  0  0  0  0  0  0  0
   -4.5709    1.5131    2.6693 O   0  0  0  0  0  0  0  0  0  0  0  0
   -4.3765   -1.2836   -0.7024 C   0  0  0  0  0  0  0  0  0  0  0  0
   -5.2743   -1.9765    0.0634 C   0  0  0  0  0  0  0  0  0  0  0  0
   -6.3753   -2.6279   -0.4908 C   0  0  0  0  0  0  0  0  0  0  0  0
   -6.5595   -2.5687   -1.8506 C   0  0  0  0  0  0  0  0  0  0  0  0
   -5.6382   -1.8597   -2.6221 C   0  0  0  0  0  0  0  0  0  0  0  0
   -4.5677   -1.2302   -2.0541 C   0  0  0  0  0  0  0  0  0  0  0  0
   -2.6420    0.3241   -0.9829 O   0  0  0  0  0  0  0  0  0  0  0  0
   -1.4568    0.8920   -0.5803 C   0  0  0  0  0  0  0  0  0  0  0  0
   -1.0880    2.0549   -0.8856 O   0  0  0  0  0  0  0  0  0  0  0  0
   -0.3479   -0.3335    2.6772 H   0  0  0  0  0  0  0  0  0  0  0  0
    1.2984    0.2655    2.9496 H   0  0  0  0  0  0  0  0  0  0  0  0
   -0.0637    1.4012    3.0257 H   0  0  0  0  0  0  0  0  0  0  0  0
    0.3105    1.9074    0.8317 H   0  0  0  0  0  0  0  0  0  0  0  0
    1.7661   -1.6506    0.6493 H   0  0  0  0  0  0  0  0  0  0  0  0
    4.0668   -1.9142   -0.0858 H   0  0  0  0  0  0  0  0  0  0  0  0
    5.5330   -1.8388   -1.7249 H   0  0  0  0  0  0  0  0  0  0  0  0
    7.8994   -2.1157   -2.4681 H   0  0  0  0  0  0  0  0  0  0  0  0
   10.1675    1.4554   -0.7590 H   0  0  0  0  0  0  0  0  0  0  0  0
    9.1433    1.8151    0.7302 H   0  0  0  0  0  0  0  0  0  0  0  0
    8.8499    2.7413   -0.7706 H   0  0  0  0  0  0  0  0  0  0  0  0
    6.5918    1.7480    0.2264 H   0  0  0  0  0  0  0  0  0  0  0  0
    4.5714    2.3109   -0.3007 H   0  0  0  0  0  0  0  0  0  0  0  0
    2.2956    2.6347    0.4148 H   0  0  0  0  0  0  0  0  0  0  0  0
   -0.3894   -1.7636    1.2292 H   0  0  0  0  0  0  0  0  0  0  0  0
   -0.2396   -1.7445   -0.5487 H   0  0  0  0  0  0  0  0  0  0  0  0
   -2.5335   -2.2865    1.1255 H   0  0  0  0  0  0  0  0  0  0  0  0
   -2.3123   -2.5144   -0.6064 H   0  0  0  0  0  0  0  0  0  0  0  0
   -2.5389    0.3064    1.7253 H   0  0  0  0  0  0  0  0  0  0  0  0
   -3.9174   -0.7770    1.9367 H   0  0  0  0  0  0  0  0  0  0  0  0
   -6.3792    1.9288    0.9828 H   0  0  0  0  0  0  0  0  0  0  0  0
   -5.9525    0.7739   -0.2696 H   0  0  0  0  0  0  0  0  0  0  0  0
   -6.4333    0.2321    1.4485 H   0  0  0  0  0  0  0  0  0  0  0  0
   -3.9581    2.3541   -0.4654 H   0  0  0  0  0  0  0  0  0  0  0  0
   -4.6810    3.2196    0.9010 H   0  0  0  0  0  0  0  0  0  0  0  0
   -2.9784    2.7397    1.0623 H   0  0  0  0  0  0  0  0  0  0  0  0
   -5.3938    2.0221    2.7597 H   0  0  0  0  0  0  0  0  0  0  0  0
   -5.1977   -2.0748    1.1566 H   0  0  0  0  0  0  0  0  0  0  0  0
   -7.0539   -3.1595    0.1480 H   0  0  0  0  0  0  0  0  0  0  0  0
   -7.4142   -3.0755   -2.2704 H   0  0  0  0  0  0  0  0  0  0  0  0
   -5.8354   -1.8458   -3.7048 H   0  0  0  0  0  0  0  0  0  0  0  0
   -3.8785   -0.6946   -2.6722 H   0  0  0  0  0  0  0  0  0  0  0  0
  1  2  1  0
  2  3  1  0
  3  4  2  0
  4  5  1  0
  5  6  2  0
  6  7  1  0
  7  8  1  0
  8  9  2  0
  9 10  1  0
 10 11  2  0
 10 12  1  0
 12 13  1  0
 12 14  1  0
  6 15  1  0
 15 16  2  0
  2 17  1  0
 17 18  1  0
 18 19  1  0
 19 20  1  0
 20 21  1  1
 21 22  1  0
 22 23  1  0
 22 24  1  0
 22 25  1  0
 20 26  1  0
 26 27  2  0
 27 28  1  0
 28 29  2  0
 29 30  1  0
 30 31  2  0
 20 32  1  0
 32 33  1  0
 33 34  2  0
 16  3  1  0
 33 17  1  0
 14  7  2  0
 31 26  1  0
  1 35  1  0
  1 36  1  0
  1 37  1  0
  2 38  1  1
  4 39  1  0
  5 40  1  0
  8 41  1  0
  9 42  1  0
 13 43  1  0
 13 44  1  0
 13 45  1  0
 14 46  1  0
 15 47  1  0
 16 48  1  0
 18 49  1  0
 18 50  1  0
 19 51  1  0
 19 52  1  0
 21 53  1  0
 21 54  1  0
 23 55  1  0
 23 56  1  0
 23 57  1  0
 24 58  1  0
 24 59  1  0
 24 60  1  0
 25 61  1  0
 27 62  1  0
 28 63  1  0
 29 64  1  0
 30 65  1  0
 31 66  1  0
M  END
$$$$
