@<TRIPOS>MOLECULE
*****
 66 69 0 0 0
SMALL
GASTEIGER

@<TRIPOS>ATOM
      1 C           0.3245    0.5284    2.4606 C.3     1  UNL1       -0.0421
      2 C           0.4803    0.8043    1.0010 C.3     1  UNL1        0.0515
      3 C           1.8586    0.5216    0.5794 C.ar    1  UNL1       -0.0271
      4 C           2.3511   -0.7417    0.4410 C.ar    1  UNL1       -0.0562
      5 C           3.6753   -0.8911    0.0245 C.ar    1  UNL1       -0.0537
      6 C           4.5217    0.1491   -0.2567 C.ar    1  UNL1       -0.0165
      7 C           5.9032   -0.0127   -0.6906 C.ar    1  UNL1       -0.0015
      8 C           6.2858   -1.0993   -1.4519 C.ar    1  UNL1       -0.0475
      9 C           7.6027   -1.2641   -1.8721 C.ar    1  UNL1        0.0036
     10 C           8.5189   -0.3065   -1.5045 C.ar    1  UNL1        0.2511
     11 O           9.7113   -0.4487   -1.8806 O.2     1  UNL1       -0.2677
     12 N           8.1684    0.7748   -0.7542 N.ar    1  UNL1       -0.3177
     13 C           9.1795    1.7724   -0.3850 C.3     1  UNL1        0.0147
     14 C           6.9040    0.8924   -0.3758 C.ar    1  UNL1        0.0153
     15 C           3.9817    1.4170   -0.1028 C.ar    1  UNL1       -0.0537
     16 C           2.6897    1.6196    0.3026 C.ar    1  UNL1       -0.0562
     17 N          -0.5651    0.1134    0.2494 N.am    1  UNL1       -0.2605
     18 C          -0.8132   -1.2941    0.3026 C.3     1  UNL1        0.0224
     19 C          -2.2220   -1.7427    0.1843 C.3     1  UNL1        0.0076
     20 C          -3.2326   -0.6100   -0.0603 C.3     1  UNL1        0.1440
     21 C          -3.5235    0.0157    1.2433 C.3     1  UNL1        0.0199
     22 C          -4.4517    1.1567    1.3010 C.3     1  UNL1        0.0645
     23 C          -5.8518    0.9301    0.8210 C.3     1  UNL1       -0.0362
     24 C          -3.9426    2.4105    0.6243 C.3     1  UNL1       -0.0362
     25 O          -4.5709    1.5131    2.6693 O.3     1  UNL1       -0.3890
     26 C          -4.3765   -1.2836   -0.7024 C.ar    1  UNL1       -0.0040
     27 C          -5.2743   -1.9765    0.0634 C.ar    1  UNL1       -0.0548
     28 C          -6.3753   -2.6279   -0.4908 C.ar    1  UNL1       -0.0614
     29 C          -6.5595   -2.5687   -1.8506 C.ar    1  UNL1       -0.0617
     30 C          -5.6382   -1.8597   -2.6221 C.ar    1  UNL1       -0.0614
     31 C          -4.5677   -1.2302   -2.0541 C.ar    1  UNL1       -0.0548
     32 O          -2.6420    0.3241   -0.9829 O.3     1  UNL1       -0.4387
     33 C          -1.4568    0.8920   -0.5803 C.2     1  UNL1        0.4042
     34 O          -1.0880    2.0549   -0.8856 O.2     1  UNL1       -0.2262
     35 H          -0.3479   -0.3335    2.6772 H       1  UNL1        0.0251
     36 H           1.2984    0.2655    2.9496 H       1  UNL1        0.0251
     37 H          -0.0637    1.4012    3.0257 H       1  UNL1        0.0251
     38 H           0.3105    1.9074    0.8317 H       1  UNL1        0.0549
     39 H           1.7661   -1.6506    0.6493 H       1  UNL1        0.0621
     40 H           4.0668   -1.9142   -0.0858 H       1  UNL1        0.0624
     41 H           5.5330   -1.8388   -1.7249 H       1  UNL1        0.0626
     42 H           7.8994   -2.1157   -2.4681 H       1  UNL1        0.0672
     43 H          10.1675    1.4554   -0.7590 H       1  UNL1        0.0457
     44 H           9.1433    1.8151    0.7302 H       1  UNL1        0.0457
     45 H           8.8499    2.7413   -0.7706 H       1  UNL1        0.0457
     46 H           6.5918    1.7480    0.2264 H       1  UNL1        0.0816
     47 H           4.5714    2.3109   -0.3007 H       1  UNL1        0.0624
     48 H           2.2956    2.6347    0.4148 H       1  UNL1        0.0621
     49 H          -0.3894   -1.7636    1.2292 H       1  UNL1        0.0467
     50 H          -0.2396   -1.7445   -0.5487 H       1  UNL1        0.0467
     51 H          -2.5335   -2.2865    1.1255 H       1  UNL1        0.0322
     52 H          -2.3123   -2.5144   -0.6064 H       1  UNL1        0.0322
     53 H          -2.5389    0.3064    1.7253 H       1  UNL1        0.0335
     54 H          -3.9174   -0.7770    1.9367 H       1  UNL1        0.0335
     55 H          -6.3792    1.9288    0.9828 H       1  UNL1        0.0257
     56 H          -5.9525    0.7739   -0.2696 H       1  UNL1        0.0257
     57 H          -6.4333    0.2321    1.4485 H       1  UNL1        0.0257
     58 H          -3.9581    2.3541   -0.4654 H       1  UNL1        0.0257
     59 H          -4.6810    3.2196    0.9010 H       1  UNL1        0.0257
     60 H          -2.9784    2.7397    1.0623 H       1  UNL1        0.0257
     61 H          -5.3938    2.0221    2.7597 H       1  UNL1        0.2101
     62 H          -5.1977   -2.0748    1.1566 H       1  UNL1        0.0622
     63 H          -7.0539   -3.1595    0.1480 H       1  UNL1        0.0618
     64 H          -7.4142   -3.0755   -2.2704 H       1  UNL1        0.0618
     65 H          -5.8354   -1.8458   -3.7048 H       1  UNL1        0.0618
     66 H          -3.8785   -0.6946   -2.6722 H       1  UNL1        0.0622
@<TRIPOS>BOND
     1     1     2    1
     2     2     3    1
     3     3     4   ar
     4     4     5   ar
     5     5     6   ar
     6     6     7    1
     7     7     8   ar
     8     8     9   ar
     9     9    10   ar
    10    10    11    2
    11    10    12   ar
    12    12    13    1
    13    12    14   ar
    14     6    15   ar
    15    15    16   ar
    16     2    17    1
    17    17    18    1
    18    18    19    1
    19    19    20    1
    20    20    21    1
    21    21    22    1
    22    22    23    1
    23    22    24    1
    24    22    25    1
    25    20    26    1
    26    26    27   ar
    27    27    28   ar
    28    28    29   ar
    29    29    30   ar
    30    30    31   ar
    31    20    32    1
    32    32    33    1
    33    33    34    2
    34    16     3   ar
    35    33    17   am
    36    14     7   ar
    37    31    26   ar
    38     1    35    1
    39     1    36    1
    40     1    37    1
    41     2    38    1
    42     4    39    1
    43     5    40    1
    44     8    41    1
    45     9    42    1
    46    13    43    1
    47    13    44    1
    48    13    45    1
    49    14    46    1
    50    15    47    1
    51    16    48    1
    52    18    49    1
    53    18    50    1
    54    19    51    1
    55    19    52    1
    56    21    53    1
    57    21    54    1
    58    23    55    1
    59    23    56    1
    60    23    57    1
    61    24    58    1
    62    24    59    1
    63    24    60    1
    64    25    61    1
    65    27    62    1
    66    28    63    1
    67    29    64    1
    68    30    65    1
    69    31    66    1
