@<TRIPOS>MOLECULE
*****
 26 28 0 0 0
SMALL
GASTEIGER

@<TRIPOS>ATOM
      1 N          -4.6909    1.6509    0.2905 N.3     1  UNL1       -0.2035
      2 S          -4.1488    0.0327    0.1331 S.O2    1  UNL1        0.0560
      3 O          -4.4536   -0.4203   -1.2785 O.2     1  UNL1       -0.1533
      4 O          -4.8918   -0.8843    1.0644 O.2     1  UNL1       -0.1533
      5 C          -2.4312   -0.1188    0.4658 C.ar    1  UNL1        0.1071
      6 C          -1.9832   -0.3749    1.7672 C.ar    1  UNL1       -0.0333
      7 C          -0.6167   -0.4942    2.0254 C.ar    1  UNL1       -0.0344
      8 C           0.2239   -0.3460    0.9418 C.ar    1  UNL1        0.0666
      9 N           1.5588   -0.3955    0.8182 N.ar    1  UNL1       -0.3366
     10 C           1.9713   -0.1892   -0.4625 C.ar    1  UNL1        0.1582
     11 N           0.8518   -0.0051   -1.1588 N.ar    1  UNL1       -0.2261
     12 C          -0.1878   -0.0958   -0.3381 C.ar    1  UNL1        0.0914
     13 C          -1.5547    0.0219   -0.5875 C.ar    1  UNL1       -0.0079
     14 C           3.3659   -0.1727   -0.9728 C.ar    1  UNL1        0.1131
     15 C           3.6531    0.0469   -2.2913 C.ar    1  UNL1        0.0061
     16 S           5.4522   -0.0334   -2.3793 S.2     1  UNL1       -0.0832
     17 C           5.5507   -0.3716   -0.5106 C.ar    1  UNL1        0.0655
     18 N           4.4566   -0.3561   -0.2699 N.ar    1  UNL1       -0.2444
     19 H          -4.5001    2.2184   -0.5562 H       1  UNL1        0.1442
     20 H          -4.4095    2.0967    1.1767 H       1  UNL1        0.1442
     21 H          -2.6932   -0.4856    2.6019 H       1  UNL1        0.0638
     22 H          -0.2173   -0.6924    3.0170 H       1  UNL1        0.0639
     23 H           2.2871   -0.5666    1.5591 H       1  UNL1        0.1674
     24 H          -1.9120    0.2196   -1.5884 H       1  UNL1        0.0659
     25 H           2.8516    0.2431   -3.1521 H       1  UNL1        0.0716
     26 H           6.4678   -0.5278    0.0918 H       1  UNL1        0.0907
@<TRIPOS>BOND
     1     1     2    1
     2     2     3    2
     3     2     4    2
     4     2     5    1
     5     5     6   ar
     6     6     7   ar
     7     7     8   ar
     8     8     9   ar
     9     9    10   ar
    10    10    11   ar
    11    11    12   ar
    12    12    13   ar
    13    10    14    1
    14    14    15   ar
    15    15    16   ar
    16    16    17   ar
    17    17    18   ar
    18    13     5   ar
    19    18    14   ar
    20    12     8   ar
    21     1    19    1
    22     1    20    1
    23     6    21    1
    24     7    22    1
    25     9    23    1
    26    13    24    1
    27    15    25    1
    28    17    26    1
