
     RDKit          3D

 26 28  0  0  0  0  0  0  0  0999 V2000
   -4.6909    1.6509    0.2905 N   0  0  0  0  0  0  0  0  0  0  0  0
   -4.1488    0.0327    0.1331 S   0  0  0  0  0  0  0  0  0  0  0  0
   -4.4536   -0.4203   -1.2785 O   0  0  0  0  0  0  0  0  0  0  0  0
   -4.8918   -0.8843    1.0644 O   0  0  0  0  0  0  0  0  0  0  0  0
   -2.4312   -0.1188    0.4658 C   0  0  0  0  0  0  0  0  0  0  0  0
   -1.9832   -0.3749    1.7672 C   0  0  0  0  0  0  0  0  0  0  0  0
   -0.6167   -0.4942    2.0254 C   0  0  0  0  0  0  0  0  0  0  0  0
    0.2239   -0.3460    0.9418 C   0  0  0  0  0  0  0  0  0  0  0  0
    1.5588   -0.3955    0.8182 N   0  0  0  0  0  0  0  0  0  0  0  0
    1.9713   -0.1892   -0.4625 C   0  0  0  0  0  0  0  0  0  0  0  0
    0.8518   -0.0051   -1.1588 N   0  0  0  0  0  0  0  0  0  0  0  0
   -0.1878   -0.0958   -0.3381 C   0  0  0  0  0  0  0  0  0  0  0  0
   -1.5547    0.0219   -0.5875 C   0  0  0  0  0  0  0  0  0  0  0  0
    3.3659   -0.1727   -0.9728 C   0  0  0  0  0  0  0  0  0  0  0  0
    3.6531    0.0469   -2.2913 C   0  0  0  0  0  0  0  0  0  0  0  0
    5.4522   -0.0334   -2.3793 S   0  0  0  0  0  0  0  0  0  0  0  0
    5.5507   -0.3716   -0.5106 C   0  0  0  0  0  0  0  0  0  0  0  0
    4.4566   -0.3561   -0.2699 N   0  0  0  0  0  0  0  0  0  0  0  0
   -4.5001    2.2184   -0.5562 H   0  0  0  0  0  0  0  0  0  0  0  0
   -4.4095    2.0967    1.1767 H   0  0  0  0  0  0  0  0  0  0  0  0
   -2.6932   -0.4856    2.6019 H   0  0  0  0  0  0  0  0  0  0  0  0
   -0.2173   -0.6924    3.0170 H   0  0  0  0  0  0  0  0  0  0  0  0
    2.2871   -0.5666    1.5591 H   0  0  0  0  0  0  0  0  0  0  0  0
   -1.9120    0.2196   -1.5884 H   0  0  0  0  0  0  0  0  0  0  0  0
    2.8516    0.2431   -3.1521 H   0  0  0  0  0  0  0  0  0  0  0  0
    6.4678   -0.5278    0.0918 H   0  0  0  0  0  0  0  0  0  0  0  0
  1  2  1  0
  2  3  2  0
  2  4  2  0
  2  5  1  0
  5  6  2  0
  6  7  1  0
  7  8  2  0
  8  9  1  0
  9 10  1  0
 10 11  2  0
 11 12  1  0
 12 13  2  0
 10 14  1  0
 14 15  2  0
 15 16  1  0
 16 17  1  0
 17 18  2  0
 13  5  1  0
 18 14  1  0
 12  8  1  0
  1 19  1  0
  1 20  1  0
  6 21  1  0
  7 22  1  0
  9 23  1  0
 13 24  1  0
 15 25  1  0
 17 26  1  0
M  END
$$$$
