@<TRIPOS>MOLECULE
*****
 39 41 0 0 0
SMALL
GASTEIGER

@<TRIPOS>ATOM
      1 C           5.5404    0.0680    1.5350 C.3     1  UNL1       -0.0624
      2 C           5.0978   -0.0698    0.0801 C.3     1  UNL1       -0.0432
      3 C           4.4960    1.2360   -0.3309 C.3     1  UNL1       -0.0453
      4 C           3.5392    1.1165   -1.4842 C.3     1  UNL1       -0.0126
      5 C           2.4537    0.2090   -1.0518 C.2     1  UNL1        0.0369
      6 N           1.2059    0.4561   -1.2819 N.2     1  UNL1       -0.1898
      7 N           0.1824   -0.3940   -0.8773 N.pl3   1  UNL1       -0.2153
      8 C          -1.1451    0.1500   -0.7557 C.ar    1  UNL1        0.1783
      9 N          -2.2512   -0.1640   -0.4665 N.ar    1  UNL1       -0.2235
     10 C          -3.3390    0.5441   -0.4311 C.ar    1  UNL1        0.0830
     11 C          -4.6768    0.0418   -0.0513 C.ar    1  UNL1        0.0363
     12 C          -5.7715    0.8578   -0.0410 C.ar    1  UNL1       -0.0471
     13 C          -7.0278    0.4085    0.3102 C.ar    1  UNL1       -0.0257
     14 C          -7.1766   -0.9062    0.6606 C.ar    1  UNL1        0.1262
     15 F          -8.3938   -1.3832    1.0110 F       1  UNL1       -0.2054
     16 C          -6.0959   -1.7521    0.6603 C.ar    1  UNL1        0.0095
     17 C          -4.8596   -1.2712    0.3052 C.ar    1  UNL1        0.1353
     18 F          -3.8082   -2.0990    0.3061 F       1  UNL1       -0.2047
     19 C          -3.1754    1.8932   -0.7928 C.ar    1  UNL1        0.0050
     20 S          -1.4311    1.9739   -1.1474 S.2     1  UNL1       -0.0586
     21 C           2.7952   -1.0177   -0.3356 C.3     1  UNL1       -0.0126
     22 C           4.2286   -1.2588   -0.1027 C.3     1  UNL1       -0.0453
     23 H           6.0724    1.0514    1.5994 H       1  UNL1        0.0232
     24 H           6.2666   -0.7149    1.8200 H       1  UNL1        0.0232
     25 H           4.6328    0.0846    2.1492 H       1  UNL1        0.0232
     26 H           6.0324   -0.2119   -0.5027 H       1  UNL1        0.0298
     27 H           5.2985    1.9589   -0.6063 H       1  UNL1        0.0271
     28 H           3.9461    1.6887    0.5193 H       1  UNL1        0.0271
     29 H           3.1343    2.1279   -1.6924 H       1  UNL1        0.0326
     30 H           4.0243    0.6590   -2.3743 H       1  UNL1        0.0326
     31 H           0.3665   -1.3959   -0.6674 H       1  UNL1        0.1765
     32 H          -5.7007    1.9077   -0.3116 H       1  UNL1        0.0626
     33 H          -7.8854    1.0522    0.3172 H       1  UNL1        0.0646
     34 H          -6.1996   -2.8037    0.9376 H       1  UNL1        0.0675
     35 H          -3.8845    2.6635   -0.8453 H       1  UNL1        0.0716
     36 H           2.3456   -1.8723   -0.9219 H       1  UNL1        0.0326
     37 H           2.2138   -1.0220    0.6312 H       1  UNL1        0.0326
     38 H           4.3349   -1.9034    0.8088 H       1  UNL1        0.0271
     39 H           4.6147   -1.9087   -0.9427 H       1  UNL1        0.0271
@<TRIPOS>BOND
     1     1     2    1
     2     2     3    1
     3     3     4    1
     4     4     5    1
     5     5     6    2
     6     6     7    1
     7     7     8    1
     8     8     9   ar
     9     9    10   ar
    10    10    11    1
    11    11    12   ar
    12    12    13   ar
    13    13    14   ar
    14    14    15    1
    15    14    16   ar
    16    16    17   ar
    17    17    18    1
    18    10    19   ar
    19    19    20   ar
    20     5    21    1
    21    21    22    1
    22    22     2    1
    23    20     8   ar
    24    17    11   ar
    25     1    23    1
    26     1    24    1
    27     1    25    1
    28     2    26    1
    29     3    27    1
    30     3    28    1
    31     4    29    1
    32     4    30    1
    33     7    31    1
    34    12    32    1
    35    13    33    1
    36    16    34    1
    37    19    35    1
    38    21    36    1
    39    21    37    1
    40    22    38    1
    41    22    39    1
