
     RDKit          3D

 27 29  0  0  0  0  0  0  0  0999 V2000
   -4.3712    0.0492   -0.5293 C   0  0  0  0  0  0  0  0  0  0  0  0
   -3.9124    1.3292   -0.7616 C   0  0  0  0  0  0  0  0  0  0  0  0
   -2.5477    1.5724   -0.6104 C   0  0  0  0  0  0  0  0  0  0  0  0
   -1.6846    0.5626   -0.2398 C   0  0  0  0  0  0  0  0  0  0  0  0
   -2.1322   -0.7260   -0.0038 C   0  0  0  0  0  0  0  0  0  0  0  0
   -3.4840   -0.9602   -0.1551 C   0  0  0  0  0  0  0  0  0  0  0  0
   -1.2217   -1.7009    0.3657 O   0  0  0  0  0  0  0  0  0  0  0  0
   -0.0008   -1.4091    0.9693 C   0  0  0  0  0  0  0  0  0  0  0  0
    0.4140    0.0322    0.9134 C   0  0  0  0  0  0  0  0  0  0  0  0
    1.8742    0.0864    0.6014 C   0  0  0  0  0  0  0  0  0  0  0  0
    2.7809    0.6157    1.3374 N   0  0  0  0  0  0  0  0  0  0  0  0
    4.0803    0.4854    0.7260 C   0  0  0  0  0  0  0  0  0  0  0  0
    3.7550    0.1382   -0.7076 C   0  0  0  0  0  0  0  0  0  0  0  0
    2.4442   -0.4515   -0.5787 N   0  0  0  0  0  0  0  0  0  0  0  0
   -0.3096    0.7701   -0.0785 O   0  0  0  0  0  0  0  0  0  0  0  0
   -5.4328   -0.1883   -0.6355 H   0  0  0  0  0  0  0  0  0  0  0  0
   -4.6129    2.0911   -1.0488 H   0  0  0  0  0  0  0  0  0  0  0  0
   -2.1886    2.5620   -0.7894 H   0  0  0  0  0  0  0  0  0  0  0  0
   -3.8210   -1.9782    0.0340 H   0  0  0  0  0  0  0  0  0  0  0  0
    0.8103   -2.0652    0.5417 H   0  0  0  0  0  0  0  0  0  0  0  0
   -0.0587   -1.7279    2.0470 H   0  0  0  0  0  0  0  0  0  0  0  0
    0.2378    0.4993    1.9266 H   0  0  0  0  0  0  0  0  0  0  0  0
    4.5776   -0.3823    1.2081 H   0  0  0  0  0  0  0  0  0  0  0  0
    4.6873    1.4088    0.8105 H   0  0  0  0  0  0  0  0  0  0  0  0
    4.4980   -0.5512   -1.1589 H   0  0  0  0  0  0  0  0  0  0  0  0
    3.6292    1.0686   -1.3039 H   0  0  0  0  0  0  0  0  0  0  0  0
    1.9894   -1.1304   -1.2053 H   0  0  0  0  0  0  0  0  0  0  0  0
  1  2  2  0
  2  3  1  0
  3  4  2  0
  4  5  1  0
  5  6  2  0
  5  7  1  0
  7  8  1  0
  8  9  1  0
  9 10  1  0
 10 11  2  0
 11 12  1  0
 12 13  1  0
 13 14  1  0
  9 15  1  0
  6  1  1  0
 14 10  1  0
 15  4  1  0
  1 16  1  0
  2 17  1  0
  3 18  1  0
  6 19  1  0
  8 20  1  0
  8 21  1  0
  9 22  1  0
 12 23  1  0
 12 24  1  0
 13 25  1  0
 13 26  1  0
 14 27  1  0
M  END
$$$$
