@<TRIPOS>MOLECULE
*****
 27 29 0 0 0
SMALL
GASTEIGER

@<TRIPOS>ATOM
      1 C          -4.3712    0.0492   -0.5293 C.ar    1  UNL1       -0.0581
      2 C          -3.9124    1.3292   -0.7616 C.ar    1  UNL1       -0.0581
      3 C          -2.5477    1.5724   -0.6104 C.ar    1  UNL1       -0.0162
      4 C          -1.6846    0.5626   -0.2398 C.ar    1  UNL1        0.1633
      5 C          -2.1322   -0.7260   -0.0038 C.ar    1  UNL1        0.1621
      6 C          -3.4840   -0.9602   -0.1551 C.ar    1  UNL1       -0.0163
      7 O          -1.2217   -1.7009    0.3657 O.3     1  UNL1       -0.4840
      8 C          -0.0008   -1.4091    0.9693 C.3     1  UNL1        0.1380
      9 C           0.4140    0.0322    0.9134 C.3     1  UNL1        0.2346
     10 C           1.8742    0.0864    0.6014 C.2     1  UNL1        0.3254
     11 N           2.7809    0.6157    1.3374 N.2     1  UNL1       -0.0802
     12 C           4.0803    0.4854    0.7260 C.3     1  UNL1        0.1673
     13 C           3.7550    0.1382   -0.7076 C.3     1  UNL1        0.1195
     14 N           2.4442   -0.4515   -0.5787 N.pl3   1  UNL1       -0.2305
     15 O          -0.3096    0.7701   -0.0785 O.3     1  UNL1       -0.4696
     16 H          -5.4328   -0.1883   -0.6355 H       1  UNL1        0.0619
     17 H          -4.6129    2.0911   -1.0488 H       1  UNL1        0.0619
     18 H          -2.1886    2.5620   -0.7894 H       1  UNL1        0.0655
     19 H          -3.8210   -1.9782    0.0340 H       1  UNL1        0.0655
     20 H           0.8103   -2.0652    0.5417 H       1  UNL1        0.0740
     21 H          -0.0587   -1.7279    2.0470 H       1  UNL1        0.0740
     22 H           0.2378    0.4993    1.9266 H       1  UNL1        0.0897
     23 H           4.5776   -0.3823    1.2081 H       1  UNL1        0.0829
     24 H           4.6873    1.4088    0.8105 H       1  UNL1        0.0829
     25 H           4.4980   -0.5512   -1.1589 H       1  UNL1        0.0765
     26 H           3.6292    1.0686   -1.3039 H       1  UNL1        0.0765
     27 H           1.9894   -1.1304   -1.2053 H       1  UNL1        0.2913
@<TRIPOS>BOND
     1     1     2   ar
     2     2     3   ar
     3     3     4   ar
     4     4     5   ar
     5     5     6   ar
     6     5     7    1
     7     7     8    1
     8     8     9    1
     9     9    10    1
    10    10    11    2
    11    11    12    1
    12    12    13    1
    13    13    14    1
    14     9    15    1
    15     6     1   ar
    16    14    10    1
    17    15     4    1
    18     1    16    1
    19     2    17    1
    20     3    18    1
    21     6    19    1
    22     8    20    1
    23     8    21    1
    24     9    22    1
    25    12    23    1
    26    12    24    1
    27    13    25    1
    28    13    26    1
    29    14    27    1
