
     RDKit          3D

 59 62  0  0  0  0  0  0  0  0999 V2000
   -6.0132   -1.3689   -2.0829 C   0  0  0  0  0  0  0  0  0  0  0  0
   -5.4404   -0.8953   -0.7470 C   0  0  0  0  0  0  0  0  0  0  0  0
   -4.7435   -2.0401   -0.0983 C   0  0  0  0  0  0  0  0  0  0  0  0
   -6.6709   -0.5522    0.0970 C   0  0  0  0  0  0  0  0  0  0  0  0
   -6.3589   -0.0904    1.3329 O   0  0  0  0  0  0  0  0  0  0  0  0
   -4.6685    0.2956   -0.9032 N   0  0  0  0  0  0  0  0  0  0  0  0
   -3.9215    0.9825    0.0753 C   0  0  0  0  0  0  0  0  0  0  0  0
   -3.9088    0.5076    1.2350 O   0  0  0  0  0  0  0  0  0  0  0  0
   -3.1741    2.2232   -0.2458 C   0  0  0  0  0  0  0  0  0  0  0  0
   -3.6732    3.4087   -0.7443 C   0  0  0  0  0  0  0  0  0  0  0  0
   -2.6146    4.2354   -0.8698 N   0  0  0  0  0  0  0  0  0  0  0  0
   -1.4815    3.6258   -0.4752 C   0  0  0  0  0  0  0  0  0  0  0  0
   -0.1831    3.9897   -0.3991 N   0  0  0  0  0  0  0  0  0  0  0  0
    0.7506    3.1174    0.0572 C   0  0  0  0  0  0  0  0  0  0  0  0
    0.4211    1.8398    0.4575 C   0  0  0  0  0  0  0  0  0  0  0  0
    1.4451    0.9177    0.9459 C   0  0  0  0  0  0  0  0  0  0  0  0
    2.7643    1.1245    1.0815 N   0  0  0  0  0  0  0  0  0  0  0  0
    3.3793    0.0772    1.5497 N   0  0  0  0  0  0  0  0  0  0  0  0
    4.7950   -0.1223    1.8450 C   0  0  0  0  0  0  0  0  0  0  0  0
    5.5466   -0.6574    0.6697 C   0  0  0  0  0  0  0  0  0  0  0  0
    5.4578    0.3021   -0.5079 C   0  0  0  0  0  0  0  0  0  0  0  0
    6.3641   -0.3584   -1.9068 S   0  0  0  0  0  6  0  0  0  0  0  0
    8.0573   -0.5744   -1.4588 C   0  0  0  0  0  0  0  0  0  0  0  0
    5.7983   -1.7020   -2.2719 O   0  0  0  0  0  0  0  0  0  0  0  0
    6.2108    0.5248   -3.1013 O   0  0  0  0  0  0  0  0  0  0  0  0
    2.4687   -0.8875    1.7472 C   0  0  0  0  0  0  0  0  0  0  0  0
    2.5495   -2.1834    2.2188 C   0  0  0  0  0  0  0  0  0  0  0  0
    1.4130   -2.9644    2.3154 C   0  0  0  0  0  0  0  0  0  0  0  0
    1.5084   -4.2357    2.7807 F   0  0  0  0  0  0  0  0  0  0  0  0
    0.1776   -2.4794    1.9480 C   0  0  0  0  0  0  0  0  0  0  0  0
    0.1259   -1.1808    1.4801 C   0  0  0  0  0  0  0  0  0  0  0  0
    1.2252   -0.3761    1.3693 C   0  0  0  0  0  0  0  0  0  0  0  0
   -0.8753    1.4918    0.3760 N   0  0  0  0  0  0  0  0  0  0  0  0
   -1.8114    2.3476   -0.0748 C   0  0  0  0  0  0  0  0  0  0  0  0
   -6.8933   -2.0011   -1.8317 H   0  0  0  0  0  0  0  0  0  0  0  0
   -5.3028   -2.0032   -2.6189 H   0  0  0  0  0  0  0  0  0  0  0  0
   -6.3609   -0.4856   -2.6222 H   0  0  0  0  0  0  0  0  0  0  0  0
   -5.5431   -2.6879    0.3680 H   0  0  0  0  0  0  0  0  0  0  0  0
   -4.2386   -2.7197   -0.8297 H   0  0  0  0  0  0  0  0  0  0  0  0
   -4.0760   -1.7662    0.7379 H   0  0  0  0  0  0  0  0  0  0  0  0
   -7.2720    0.2502   -0.4243 H   0  0  0  0  0  0  0  0  0  0  0  0
   -7.3769   -1.4331    0.1106 H   0  0  0  0  0  0  0  0  0  0  0  0
   -6.9659    0.5966    1.6976 H   0  0  0  0  0  0  0  0  0  0  0  0
   -4.6535    0.7215   -1.8809 H   0  0  0  0  0  0  0  0  0  0  0  0
   -4.7192    3.5921   -0.9741 H   0  0  0  0  0  0  0  0  0  0  0  0
   -2.6932    5.2086   -1.2266 H   0  0  0  0  0  0  0  0  0  0  0  0
    1.7834    3.4591    0.0991 H   0  0  0  0  0  0  0  0  0  0  0  0
    5.2754    0.8247    2.1634 H   0  0  0  0  0  0  0  0  0  0  0  0
    4.9070   -0.8388    2.6837 H   0  0  0  0  0  0  0  0  0  0  0  0
    6.6047   -0.7948    0.9948 H   0  0  0  0  0  0  0  0  0  0  0  0
    5.1944   -1.6515    0.3417 H   0  0  0  0  0  0  0  0  0  0  0  0
    4.3902    0.3285   -0.8103 H   0  0  0  0  0  0  0  0  0  0  0  0
    5.8353    1.3061   -0.2434 H   0  0  0  0  0  0  0  0  0  0  0  0
    8.1275   -0.6359   -0.3532 H   0  0  0  0  0  0  0  0  0  0  0  0
    8.4451   -1.5053   -1.9471 H   0  0  0  0  0  0  0  0  0  0  0  0
    8.6359    0.3116   -1.8497 H   0  0  0  0  0  0  0  0  0  0  0  0
    3.5298   -2.5772    2.5134 H   0  0  0  0  0  0  0  0  0  0  0  0
   -0.7142   -3.0928    2.0236 H   0  0  0  0  0  0  0  0  0  0  0  0
   -0.8389   -0.7488    1.1743 H   0  0  0  0  0  0  0  0  0  0  0  0
  1  2  1  0
  2  3  1  0
  2  4  1  0
  4  5  1  0
  2  6  1  0
  6  7  1  0
  7  8  2  0
  7  9  1  0
  9 10  2  0
 10 11  1  0
 11 12  1  0
 12 13  2  0
 13 14  1  0
 14 15  2  0
 15 16  1  0
 16 17  2  0
 17 18  1  0
 18 19  1  0
 19 20  1  0
 20 21  1  0
 21 22  1  0
 22 23  1  0
 22 24  2  0
 22 25  2  0
 18 26  1  0
 26 27  2  0
 27 28  1  0
 28 29  1  0
 28 30  2  0
 30 31  1  0
 31 32  2  0
 15 33  1  0
 33 34  2  0
 34  9  1  0
 34 12  1  0
 32 16  1  0
 32 26  1  0
  1 35  1  0
  1 36  1  0
  1 37  1  0
  3 38  1  0
  3 39  1  0
  3 40  1  0
  4 41  1  0
  4 42  1  0
  5 43  1  0
  6 44  1  0
 10 45  1  0
 11 46  1  0
 14 47  1  0
 19 48  1  0
 19 49  1  0
 20 50  1  0
 20 51  1  0
 21 52  1  0
 21 53  1  0
 23 54  1  0
 23 55  1  0
 23 56  1  0
 27 57  1  0
 30 58  1  0
 31 59  1  0
M  END
$$$$
