@<TRIPOS>MOLECULE
*****
 59 62 0 0 0
SMALL
GASTEIGER

@<TRIPOS>ATOM
      1 C          -6.0132   -1.3689   -2.0829 C.3     1  UNL1       -0.0418
      2 C          -5.4404   -0.8953   -0.7470 C.3     1  UNL1        0.0523
      3 C          -4.7435   -2.0401   -0.0983 C.3     1  UNL1       -0.0418
      4 C          -6.6709   -0.5522    0.0970 C.3     1  UNL1        0.0649
      5 O          -6.3589   -0.0904    1.3329 O.3     1  UNL1       -0.3929
      6 N          -4.6685    0.2956   -0.9032 N.am    1  UNL1       -0.3040
      7 C          -3.9215    0.9825    0.0753 C.2     1  UNL1        0.2481
      8 O          -3.9088    0.5076    1.2350 O.2     1  UNL1       -0.2701
      9 C          -3.1741    2.2232   -0.2458 C.ar    1  UNL1        0.0815
     10 C          -3.6732    3.4087   -0.7443 C.ar    1  UNL1        0.0178
     11 N          -2.6146    4.2354   -0.8698 N.ar    1  UNL1       -0.3438
     12 C          -1.4815    3.6258   -0.4752 C.ar    1  UNL1        0.1574
     13 N          -0.1831    3.9897   -0.3991 N.ar    1  UNL1       -0.2338
     14 C           0.7506    3.1174    0.0572 C.ar    1  UNL1        0.0575
     15 C           0.4211    1.8398    0.4575 C.ar    1  UNL1        0.1104
     16 C           1.4451    0.9177    0.9459 C.ar    1  UNL1        0.1201
     17 N           2.7643    1.1245    1.0815 N.ar    1  UNL1       -0.1685
     18 N           3.3793    0.0772    1.5497 N.ar    1  UNL1       -0.2629
     19 C           4.7950   -0.1223    1.8450 C.3     1  UNL1        0.0437
     20 C           5.5466   -0.6574    0.6697 C.3     1  UNL1       -0.0139
     21 C           5.4578    0.3021   -0.5079 C.3     1  UNL1        0.0671
     22 S           6.3641   -0.3584   -1.9068 S.O2    1  UNL1       -0.0337
     23 C           8.0573   -0.5744   -1.4588 C.3     1  UNL1        0.0544
     24 O           5.7983   -1.7020   -2.2719 O.2     1  UNL1       -0.1746
     25 O           6.2108    0.5248   -3.1013 O.2     1  UNL1       -0.1746
     26 C           2.4687   -0.8875    1.7472 C.ar    1  UNL1        0.0723
     27 C           2.5495   -2.1834    2.2188 C.ar    1  UNL1       -0.0008
     28 C           1.4130   -2.9644    2.3154 C.ar    1  UNL1        0.1254
     29 F           1.5084   -4.2357    2.7807 F       1  UNL1       -0.2054
     30 C           0.1776   -2.4794    1.9480 C.ar    1  UNL1       -0.0257
     31 C           0.1259   -1.1808    1.4801 C.ar    1  UNL1       -0.0477
     32 C           1.2252   -0.3761    1.3693 C.ar    1  UNL1        0.0293
     33 N          -0.8753    1.4918    0.3760 N.ar    1  UNL1       -0.2397
     34 C          -1.8114    2.3476   -0.0748 C.ar    1  UNL1        0.1202
     35 H          -6.8933   -2.0011   -1.8317 H       1  UNL1        0.0251
     36 H          -5.3028   -2.0032   -2.6189 H       1  UNL1        0.0251
     37 H          -6.3609   -0.4856   -2.6222 H       1  UNL1        0.0251
     38 H          -5.5431   -2.6879    0.3680 H       1  UNL1        0.0251
     39 H          -4.2386   -2.7197   -0.8297 H       1  UNL1        0.0251
     40 H          -4.0760   -1.7662    0.7379 H       1  UNL1        0.0251
     41 H          -7.2720    0.2502   -0.4243 H       1  UNL1        0.0578
     42 H          -7.3769   -1.4331    0.1106 H       1  UNL1        0.0578
     43 H          -6.9659    0.5966    1.6976 H       1  UNL1        0.2095
     44 H          -4.6535    0.7215   -1.8809 H       1  UNL1        0.1496
     45 H          -4.7192    3.5921   -0.9741 H       1  UNL1        0.0816
     46 H          -2.6932    5.2086   -1.2266 H       1  UNL1        0.1668
     47 H           1.7834    3.4591    0.0991 H       1  UNL1        0.0853
     48 H           5.2754    0.8247    2.1634 H       1  UNL1        0.0509
     49 H           4.9070   -0.8388    2.6837 H       1  UNL1        0.0509
     50 H           6.6047   -0.7948    0.9948 H       1  UNL1        0.0299
     51 H           5.1944   -1.6515    0.3417 H       1  UNL1        0.0299
     52 H           4.3902    0.3285   -0.8103 H       1  UNL1        0.0500
     53 H           5.8353    1.3061   -0.2434 H       1  UNL1        0.0500
     54 H           8.1275   -0.6359   -0.3532 H       1  UNL1        0.0464
     55 H           8.4451   -1.5053   -1.9471 H       1  UNL1        0.0464
     56 H           8.6359    0.3116   -1.8497 H       1  UNL1        0.0464
     57 H           3.5298   -2.5772    2.5134 H       1  UNL1        0.0667
     58 H          -0.7142   -3.0928    2.0236 H       1  UNL1        0.0646
     59 H          -0.8389   -0.7488    1.1743 H       1  UNL1        0.0626
@<TRIPOS>BOND
     1     1     2    1
     2     2     3    1
     3     2     4    1
     4     4     5    1
     5     2     6    1
     6     6     7   am
     7     7     8    2
     8     7     9    1
     9     9    10   ar
    10    10    11   ar
    11    11    12   ar
    12    12    13   ar
    13    13    14   ar
    14    14    15   ar
    15    15    16    1
    16    16    17   ar
    17    17    18   ar
    18    18    19    1
    19    19    20    1
    20    20    21    1
    21    21    22    1
    22    22    23    1
    23    22    24    2
    24    22    25    2
    25    18    26   ar
    26    26    27   ar
    27    27    28   ar
    28    28    29    1
    29    28    30   ar
    30    30    31   ar
    31    31    32   ar
    32    15    33   ar
    33    33    34   ar
    34    34     9   ar
    35    34    12   ar
    36    32    16   ar
    37    32    26   ar
    38     1    35    1
    39     1    36    1
    40     1    37    1
    41     3    38    1
    42     3    39    1
    43     3    40    1
    44     4    41    1
    45     4    42    1
    46     5    43    1
    47     6    44    1
    48    10    45    1
    49    11    46    1
    50    14    47    1
    51    19    48    1
    52    19    49    1
    53    20    50    1
    54    20    51    1
    55    21    52    1
    56    21    53    1
    57    23    54    1
    58    23    55    1
    59    23    56    1
    60    27    57    1
    61    30    58    1
    62    31    59    1
