@<TRIPOS>MOLECULE
*****
 75 80 0 0 0
SMALL
GASTEIGER

@<TRIPOS>ATOM
      1 C           7.0104   -1.0718    0.2538 C.3     1  UNL1       -0.0391
      2 C           7.1558    0.3812    0.0761 C.ar    1  UNL1       -0.0420
      3 C           8.4253    0.9309    0.2065 C.ar    1  UNL1       -0.0443
      4 C           8.5970    2.2849    0.0512 C.ar    1  UNL1        0.0591
      5 C           9.9320    2.8438    0.1898 C.2     1  UNL1        0.3368
      6 O          10.9242    2.1168    0.4471 O.2     1  UNL1       -0.2451
      7 O          10.1645    4.2065    0.0430 O.3     1  UNL1       -0.4771
      8 C           7.5471    3.1350   -0.2328 C.ar    1  UNL1       -0.0472
      9 C           6.2958    2.5768   -0.3590 C.ar    1  UNL1       -0.0530
     10 C           6.0919    1.2009   -0.2061 C.ar    1  UNL1       -0.0149
     11 C           4.7631    0.6321   -0.3510 C.ar    1  UNL1       -0.0175
     12 C           3.7048    1.2660    0.3086 C.ar    1  UNL1       -0.0523
     13 C           2.4210    0.7942    0.2160 C.ar    1  UNL1       -0.0392
     14 C           2.1149   -0.3302   -0.5341 C.ar    1  UNL1        0.0455
     15 N           0.7971   -0.8425   -0.6597 N.am    1  UNL1       -0.1920
     16 C           0.1275   -1.7962    0.1624 C.2     1  UNL1        0.3219
     17 O           0.5807   -2.3813    1.1797 O.2     1  UNL1       -0.2512
     18 N          -1.1990   -2.0017   -0.3618 N.am    1  UNL1       -0.2240
     19 C          -2.0432   -3.1339   -0.2408 C.ar    1  UNL1        0.1333
     20 C          -2.9433   -3.2603    0.8219 C.ar    1  UNL1        0.0088
     21 C          -3.7404   -4.3824    0.8955 C.ar    1  UNL1        0.1485
     22 C          -4.7268   -4.5886    2.0028 C.3     1  UNL1        0.4344
     23 F          -4.5734   -5.9002    2.4174 F       1  UNL1       -0.1644
     24 F          -5.9796   -4.5066    1.4151 F       1  UNL1       -0.1644
     25 F          -4.5726   -3.6778    3.0046 F       1  UNL1       -0.1644
     26 N          -3.6727   -5.3552   -0.0288 N.ar    1  UNL1       -0.2313
     27 C          -2.8106   -5.2381   -1.0498 C.ar    1  UNL1        0.1187
     28 N          -2.0320   -4.1488   -1.1268 N.ar    1  UNL1       -0.2203
     29 C          -1.4838   -0.7686   -1.0580 C.3     1  UNL1        0.1240
     30 C          -2.5718   -0.8784   -2.0707 C.3     1  UNL1       -0.0095
     31 C          -3.7876   -0.1266   -1.4771 C.3     1  UNL1        0.0017
     32 N          -3.4675    1.2468   -1.4861 N.3     1  UNL1       -0.2965
     33 C          -4.4525    2.2045   -1.1851 C.3     1  UNL1        0.0415
     34 C          -5.0543    2.1994    0.1410 C.ar    1  UNL1        0.0581
     35 N          -4.5564    3.0627    1.0452 N.ar    1  UNL1       -0.2583
     36 C          -4.9681    3.1750    2.3046 C.ar    1  UNL1        0.0279
     37 C          -5.9856    2.3437    2.7252 C.ar    1  UNL1       -0.0433
     38 C          -6.5223    1.4459    1.8302 C.ar    1  UNL1       -0.0557
     39 C          -6.0648    1.3625    0.5277 C.ar    1  UNL1       -0.0279
     40 C          -6.7035    0.3891   -0.4057 C.3     1  UNL1       -0.0380
     41 C          -2.1452    1.5759   -0.9949 C.3     1  UNL1        0.0017
     42 C          -1.7221    0.4014   -0.0986 C.3     1  UNL1       -0.0095
     43 C          -0.1490   -0.4904   -1.6735 C.2     1  UNL1        0.2516
     44 O           0.1024   -0.0465   -2.8228 O.2     1  UNL1       -0.2724
     45 C           3.1562   -0.9556   -1.1833 C.ar    1  UNL1       -0.0392
     46 C           4.4636   -0.4788   -1.0918 C.ar    1  UNL1       -0.0523
     47 H           7.3327   -1.6644   -0.6459 H       1  UNL1        0.0278
     48 H           6.0195   -1.3723    0.6161 H       1  UNL1        0.0278
     49 H           7.7236   -1.3585    1.0820 H       1  UNL1        0.0278
     50 H           9.2759    0.2793    0.4324 H       1  UNL1        0.0628
     51 H          11.0475    4.6254    0.3311 H       1  UNL1        0.2954
     52 H           7.6909    4.2146   -0.3552 H       1  UNL1        0.0626
     53 H           5.4353    3.1799   -0.5787 H       1  UNL1        0.0624
     54 H           3.9094    2.1546    0.9089 H       1  UNL1        0.0624
     55 H           1.6204    1.3023    0.7340 H       1  UNL1        0.0636
     56 H          -3.0096   -2.4921    1.5669 H       1  UNL1        0.0673
     57 H          -2.7475   -6.0279   -1.8110 H       1  UNL1        0.1047
     58 H          -2.3472   -0.4205   -3.0420 H       1  UNL1        0.0303
     59 H          -2.8918   -1.9371   -2.1929 H       1  UNL1        0.0303
     60 H          -4.6141   -0.3322   -2.1916 H       1  UNL1        0.0427
     61 H          -4.0099   -0.5550   -0.4754 H       1  UNL1        0.0427
     62 H          -5.2680    2.1033   -1.9672 H       1  UNL1        0.0491
     63 H          -4.0107    3.2174   -1.4471 H       1  UNL1        0.0491
     64 H          -4.5572    3.8752    3.0207 H       1  UNL1        0.0829
     65 H          -6.3564    2.4045    3.7636 H       1  UNL1        0.0633
     66 H          -7.3228    0.7905    2.1605 H       1  UNL1        0.0621
     67 H          -7.8051    0.4319   -0.1512 H       1  UNL1        0.0278
     68 H          -6.6483    0.7001   -1.4602 H       1  UNL1        0.0278
     69 H          -6.3875   -0.6304   -0.1908 H       1  UNL1        0.0278
     70 H          -2.0962    2.5222   -0.4459 H       1  UNL1        0.0427
     71 H          -1.4410    1.5821   -1.8519 H       1  UNL1        0.0427
     72 H          -0.7537    0.6422    0.3582 H       1  UNL1        0.0303
     73 H          -2.4735    0.1753    0.6568 H       1  UNL1        0.0303
     74 H           2.9795   -1.8348   -1.7819 H       1  UNL1        0.0636
     75 H           5.2584   -0.9911   -1.6184 H       1  UNL1        0.0624
@<TRIPOS>BOND
     1     1     2    1
     2     2     3   ar
     3     3     4   ar
     4     4     5    1
     5     5     6    2
     6     5     7    1
     7     4     8   ar
     8     8     9   ar
     9     9    10   ar
    10    10    11    1
    11    11    12   ar
    12    12    13   ar
    13    13    14   ar
    14    14    15    1
    15    15    16   am
    16    16    17    2
    17    16    18   am
    18    18    19    1
    19    19    20   ar
    20    20    21   ar
    21    21    22    1
    22    22    23    1
    23    22    24    1
    24    22    25    1
    25    21    26   ar
    26    26    27   ar
    27    27    28   ar
    28    18    29    1
    29    29    30    1
    30    30    31    1
    31    31    32    1
    32    32    33    1
    33    33    34    1
    34    34    35   ar
    35    35    36   ar
    36    36    37   ar
    37    37    38   ar
    38    38    39   ar
    39    39    40    1
    40    32    41    1
    41    41    42    1
    42    29    43    1
    43    43    44    2
    44    14    45   ar
    45    45    46   ar
    46    10     2   ar
    47    46    11   ar
    48    43    15   am
    49    28    19   ar
    50    42    29    1
    51    39    34   ar
    52     1    47    1
    53     1    48    1
    54     1    49    1
    55     3    50    1
    56     7    51    1
    57     8    52    1
    58     9    53    1
    59    12    54    1
    60    13    55    1
    61    20    56    1
    62    27    57    1
    63    30    58    1
    64    30    59    1
    65    31    60    1
    66    31    61    1
    67    33    62    1
    68    33    63    1
    69    36    64    1
    70    37    65    1
    71    38    66    1
    72    40    67    1
    73    40    68    1
    74    40    69    1
    75    41    70    1
    76    41    71    1
    77    42    72    1
    78    42    73    1
    79    45    74    1
    80    46    75    1
