
     RDKit          3D

 75 80  0  0  0  0  0  0  0  0999 V2000
    7.0104   -1.0718    0.2538 C   0  0  0  0  0  0  0  0  0  0  0  0
    7.1558    0.3812    0.0761 C   0  0  0  0  0  0  0  0  0  0  0  0
    8.4253    0.9309    0.2065 C   0  0  0  0  0  0  0  0  0  0  0  0
    8.5970    2.2849    0.0512 C   0  0  0  0  0  0  0  0  0  0  0  0
    9.9320    2.8438    0.1898 C   0  0  0  0  0  0  0  0  0  0  0  0
   10.9242    2.1168    0.4471 O   0  0  0  0  0  0  0  0  0  0  0  0
   10.1645    4.2065    0.0430 O   0  0  0  0  0  0  0  0  0  0  0  0
    7.5471    3.1350   -0.2328 C   0  0  0  0  0  0  0  0  0  0  0  0
    6.2958    2.5768   -0.3590 C   0  0  0  0  0  0  0  0  0  0  0  0
    6.0919    1.2009   -0.2061 C   0  0  0  0  0  0  0  0  0  0  0  0
    4.7631    0.6321   -0.3510 C   0  0  0  0  0  0  0  0  0  0  0  0
    3.7048    1.2660    0.3086 C   0  0  0  0  0  0  0  0  0  0  0  0
    2.4210    0.7942    0.2160 C   0  0  0  0  0  0  0  0  0  0  0  0
    2.1149   -0.3302   -0.5341 C   0  0  0  0  0  0  0  0  0  0  0  0
    0.7971   -0.8425   -0.6597 N   0  0  0  0  0  0  0  0  0  0  0  0
    0.1275   -1.7962    0.1624 C   0  0  0  0  0  0  0  0  0  0  0  0
    0.5807   -2.3813    1.1797 O   0  0  0  0  0  0  0  0  0  0  0  0
   -1.1990   -2.0017   -0.3618 N   0  0  0  0  0  0  0  0  0  0  0  0
   -2.0432   -3.1339   -0.2408 C   0  0  0  0  0  0  0  0  0  0  0  0
   -2.9433   -3.2603    0.8219 C   0  0  0  0  0  0  0  0  0  0  0  0
   -3.7404   -4.3824    0.8955 C   0  0  0  0  0  0  0  0  0  0  0  0
   -4.7268   -4.5886    2.0028 C   0  0  0  0  0  0  0  0  0  0  0  0
   -4.5734   -5.9002    2.4174 F   0  0  0  0  0  0  0  0  0  0  0  0
   -5.9796   -4.5066    1.4151 F   0  0  0  0  0  0  0  0  0  0  0  0
   -4.5726   -3.6778    3.0046 F   0  0  0  0  0  0  0  0  0  0  0  0
   -3.6727   -5.3552   -0.0288 N   0  0  0  0  0  0  0  0  0  0  0  0
   -2.8106   -5.2381   -1.0498 C   0  0  0  0  0  0  0  0  0  0  0  0
   -2.0320   -4.1488   -1.1268 N   0  0  0  0  0  0  0  0  0  0  0  0
   -1.4838   -0.7686   -1.0580 C   0  0  0  0  0  0  0  0  0  0  0  0
   -2.5718   -0.8784   -2.0707 C   0  0  0  0  0  0  0  0  0  0  0  0
   -3.7876   -0.1266   -1.4771 C   0  0  0  0  0  0  0  0  0  0  0  0
   -3.4675    1.2468   -1.4861 N   0  0  0  0  0  0  0  0  0  0  0  0
   -4.4525    2.2045   -1.1851 C   0  0  0  0  0  0  0  0  0  0  0  0
   -5.0543    2.1994    0.1410 C   0  0  0  0  0  0  0  0  0  0  0  0
   -4.5564    3.0627    1.0452 N   0  0  0  0  0  0  0  0  0  0  0  0
   -4.9681    3.1750    2.3046 C   0  0  0  0  0  0  0  0  0  0  0  0
   -5.9856    2.3437    2.7252 C   0  0  0  0  0  0  0  0  0  0  0  0
   -6.5223    1.4459    1.8302 C   0  0  0  0  0  0  0  0  0  0  0  0
   -6.0648    1.3625    0.5277 C   0  0  0  0  0  0  0  0  0  0  0  0
   -6.7035    0.3891   -0.4057 C   0  0  0  0  0  0  0  0  0  0  0  0
   -2.1452    1.5759   -0.9949 C   0  0  0  0  0  0  0  0  0  0  0  0
   -1.7221    0.4014   -0.0986 C   0  0  0  0  0  0  0  0  0  0  0  0
   -0.1490   -0.4904   -1.6735 C   0  0  0  0  0  0  0  0  0  0  0  0
    0.1024   -0.0465   -2.8228 O   0  0  0  0  0  0  0  0  0  0  0  0
    3.1562   -0.9556   -1.1833 C   0  0  0  0  0  0  0  0  0  0  0  0
    4.4636   -0.4788   -1.0918 C   0  0  0  0  0  0  0  0  0  0  0  0
    7.3327   -1.6644   -0.6459 H   0  0  0  0  0  0  0  0  0  0  0  0
    6.0195   -1.3723    0.6161 H   0  0  0  0  0  0  0  0  0  0  0  0
    7.7236   -1.3585    1.0820 H   0  0  0  0  0  0  0  0  0  0  0  0
    9.2759    0.2793    0.4324 H   0  0  0  0  0  0  0  0  0  0  0  0
   11.0475    4.6254    0.3311 H   0  0  0  0  0  0  0  0  0  0  0  0
    7.6909    4.2146   -0.3552 H   0  0  0  0  0  0  0  0  0  0  0  0
    5.4353    3.1799   -0.5787 H   0  0  0  0  0  0  0  0  0  0  0  0
    3.9094    2.1546    0.9089 H   0  0  0  0  0  0  0  0  0  0  0  0
    1.6204    1.3023    0.7340 H   0  0  0  0  0  0  0  0  0  0  0  0
   -3.0096   -2.4921    1.5669 H   0  0  0  0  0  0  0  0  0  0  0  0
   -2.7475   -6.0279   -1.8110 H   0  0  0  0  0  0  0  0  0  0  0  0
   -2.3472   -0.4205   -3.0420 H   0  0  0  0  0  0  0  0  0  0  0  0
   -2.8918   -1.9371   -2.1929 H   0  0  0  0  0  0  0  0  0  0  0  0
   -4.6141   -0.3322   -2.1916 H   0  0  0  0  0  0  0  0  0  0  0  0
   -4.0099   -0.5550   -0.4754 H   0  0  0  0  0  0  0  0  0  0  0  0
   -5.2680    2.1033   -1.9672 H   0  0  0  0  0  0  0  0  0  0  0  0
   -4.0107    3.2174   -1.4471 H   0  0  0  0  0  0  0  0  0  0  0  0
   -4.5572    3.8752    3.0207 H   0  0  0  0  0  0  0  0  0  0  0  0
   -6.3564    2.4045    3.7636 H   0  0  0  0  0  0  0  0  0  0  0  0
   -7.3228    0.7905    2.1605 H   0  0  0  0  0  0  0  0  0  0  0  0
   -7.8051    0.4319   -0.1512 H   0  0  0  0  0  0  0  0  0  0  0  0
   -6.6483    0.7001   -1.4602 H   0  0  0  0  0  0  0  0  0  0  0  0
   -6.3875   -0.6304   -0.1908 H   0  0  0  0  0  0  0  0  0  0  0  0
   -2.0962    2.5222   -0.4459 H   0  0  0  0  0  0  0  0  0  0  0  0
   -1.4410    1.5821   -1.8519 H   0  0  0  0  0  0  0  0  0  0  0  0
   -0.7537    0.6422    0.3582 H   0  0  0  0  0  0  0  0  0  0  0  0
   -2.4735    0.1753    0.6568 H   0  0  0  0  0  0  0  0  0  0  0  0
    2.9795   -1.8348   -1.7819 H   0  0  0  0  0  0  0  0  0  0  0  0
    5.2584   -0.9911   -1.6184 H   0  0  0  0  0  0  0  0  0  0  0  0
  1  2  1  0
  2  3  2  0
  3  4  1  0
  4  5  1  0
  5  6  2  0
  5  7  1  0
  4  8  2  0
  8  9  1  0
  9 10  2  0
 10 11  1  0
 11 12  2  0
 12 13  1  0
 13 14  2  0
 14 15  1  0
 15 16  1  0
 16 17  2  0
 16 18  1  0
 18 19  1  0
 19 20  2  0
 20 21  1  0
 21 22  1  0
 22 23  1  0
 22 24  1  0
 22 25  1  0
 21 26  2  0
 26 27  1  0
 27 28  2  0
 18 29  1  0
 29 30  1  0
 30 31  1  0
 31 32  1  0
 32 33  1  0
 33 34  1  0
 34 35  2  0
 35 36  1  0
 36 37  2  0
 37 38  1  0
 38 39  2  0
 39 40  1  0
 32 41  1  0
 41 42  1  0
 29 43  1  0
 43 44  2  0
 14 45  1  0
 45 46  2  0
 10  2  1  0
 46 11  1  0
 43 15  1  0
 28 19  1  0
 42 29  1  0
 39 34  1  0
  1 47  1  0
  1 48  1  0
  1 49  1  0
  3 50  1  0
  7 51  1  0
  8 52  1  0
  9 53  1  0
 12 54  1  0
 13 55  1  0
 20 56  1  0
 27 57  1  0
 30 58  1  0
 30 59  1  0
 31 60  1  0
 31 61  1  0
 33 62  1  0
 33 63  1  0
 36 64  1  0
 37 65  1  0
 38 66  1  0
 40 67  1  0
 40 68  1  0
 40 69  1  0
 41 70  1  0
 41 71  1  0
 42 72  1  0
 42 73  1  0
 45 74  1  0
 46 75  1  0
M  END
$$$$
