@<TRIPOS>MOLECULE
*****
 61 68 0 0 0
SMALL
GASTEIGER

@<TRIPOS>ATOM
      1 C           2.3307   -1.5828   -2.6095 C.3     1  UNL1       -0.0155
      2 N           2.0100   -0.4011   -1.8022 N.3     1  UNL1       -0.3136
      3 C           2.6984   -0.5586   -0.5105 C.3     1  UNL1        0.0423
      4 C           2.2831   -1.7619    0.2412 C.3     1  UNL1        0.0107
      5 C           1.3495   -1.4957    1.3779 C.3     1  UNL1        0.1402
      6 O           1.3912   -0.3148    1.9613 O.3     1  UNL1       -0.3282
      7 C           1.5957    0.8578    1.2834 C.3     1  UNL1        0.1741
      8 C           2.0785    1.8070    2.3943 C.3     1  UNL1       -0.0136
      9 C           2.6702    0.7250    0.2918 C.3     1  UNL1        0.1214
     10 O           2.7203    1.7256   -0.6737 O.3     1  UNL1       -0.3735
     11 C           3.9236    2.4117   -0.7175 C.3     1  UNL1        0.0371
     12 N           0.3116    1.2988    0.7277 N.ar    1  UNL1       -0.3070
     13 C          -0.0811    2.5386    0.4458 C.ar    1  UNL1        0.0527
     14 C           0.5498    3.7370    0.5478 C.ar    1  UNL1       -0.0375
     15 C          -0.0765    4.9103    0.1818 C.ar    1  UNL1       -0.0598
     16 C          -1.3858    4.9105   -0.3090 C.ar    1  UNL1       -0.0611
     17 C          -2.0310    3.6986   -0.4155 C.ar    1  UNL1       -0.0520
     18 C          -1.3853    2.5474   -0.0445 C.ar    1  UNL1        0.0081
     19 C          -1.8017    1.2450   -0.0614 C.ar    1  UNL1        0.0151
     20 C          -2.9970    0.6468   -0.4481 C.ar    1  UNL1       -0.0078
     21 C          -3.1796   -0.7349   -0.3721 C.ar    1  UNL1        0.0518
     22 C          -2.1111   -1.4684    0.1056 C.ar    1  UNL1        0.0221
     23 C          -1.9025   -2.8176    0.3144 C.ar    1  UNL1        0.0085
     24 C          -2.6739   -3.9336    0.1367 C.ar    1  UNL1       -0.0520
     25 C          -2.1701   -5.1800    0.4448 C.ar    1  UNL1       -0.0611
     26 C          -0.8743   -5.2953    0.9368 C.ar    1  UNL1       -0.0598
     27 C          -0.0905   -4.1832    1.1195 C.ar    1  UNL1       -0.0375
     28 C          -0.5955   -2.9396    0.8112 C.ar    1  UNL1        0.0524
     29 N          -0.0300   -1.7476    0.9054 N.ar    1  UNL1       -0.3115
     30 C          -0.9280   -0.8512    0.4860 C.ar    1  UNL1        0.0774
     31 C          -0.7470    0.5131    0.4128 C.ar    1  UNL1        0.0772
     32 C          -4.5133   -1.0508   -0.8394 C.2     1  UNL1        0.2453
     33 O          -5.0716   -2.1490   -0.9339 O.2     1  UNL1       -0.2702
     34 N          -5.1568    0.1608   -1.2076 N.am    1  UNL1       -0.3072
     35 C          -4.2516    1.2371   -0.9815 C.3     1  UNL1        0.0385
     36 H           1.4214   -2.1441   -2.9040 H       1  UNL1        0.0388
     37 H           2.8554   -1.2001   -3.5211 H       1  UNL1        0.0388
     38 H           3.0271   -2.2529   -2.0721 H       1  UNL1        0.0388
     39 H           0.9924   -0.3868   -1.7091 H       1  UNL1        0.1220
     40 H           3.7762   -0.6939   -0.8257 H       1  UNL1        0.0489
     41 H           3.1881   -2.3209    0.6201 H       1  UNL1        0.0325
     42 H           1.7929   -2.4682   -0.4622 H       1  UNL1        0.0325
     43 H           1.5187   -2.2923    2.1356 H       1  UNL1        0.0839
     44 H           2.4411    1.2211    3.3005 H       1  UNL1        0.0277
     45 H           2.9935    2.3563    2.1141 H       1  UNL1        0.0277
     46 H           1.2619    2.4089    2.8129 H       1  UNL1        0.0277
     47 H           3.6506    0.7630    0.8268 H       1  UNL1        0.0660
     48 H           4.7695    1.6937   -0.9360 H       1  UNL1        0.0524
     49 H           3.9588    3.1129   -1.5941 H       1  UNL1        0.0524
     50 H           4.1548    2.9964    0.1769 H       1  UNL1        0.0524
     51 H           1.5441    3.7761    0.9084 H       1  UNL1        0.0638
     52 H           0.4530    5.8556    0.2745 H       1  UNL1        0.0618
     53 H          -1.8437    5.8524   -0.5860 H       1  UNL1        0.0618
     54 H          -3.0606    3.6853   -0.8000 H       1  UNL1        0.0624
     55 H          -3.6580   -3.8958   -0.2320 H       1  UNL1        0.0624
     56 H          -2.7284   -6.0952    0.3266 H       1  UNL1        0.0618
     57 H          -0.4548   -6.2590    1.1861 H       1  UNL1        0.0618
     58 H           0.9300   -4.2442    1.5041 H       1  UNL1        0.0638
     59 H          -6.1366    0.2813   -1.5872 H       1  UNL1        0.1493
     60 H          -4.6703    1.9659   -0.2268 H       1  UNL1        0.0512
     61 H          -4.0350    1.7792   -1.9301 H       1  UNL1        0.0512
@<TRIPOS>BOND
     1     1     2    1
     2     2     3    1
     3     3     4    1
     4     4     5    1
     5     5     6    1
     6     6     7    1
     7     7     8    1
     8     7     9    1
     9     9    10    1
    10    10    11    1
    11     7    12    1
    12    12    13   ar
    13    13    14   ar
    14    14    15   ar
    15    15    16   ar
    16    16    17   ar
    17    17    18   ar
    18    18    19   ar
    19    19    20   ar
    20    20    21   ar
    21    21    22   ar
    22    22    23   ar
    23    23    24   ar
    24    24    25   ar
    25    25    26   ar
    26    26    27   ar
    27    27    28   ar
    28    28    29   ar
    29    29    30   ar
    30    30    31   ar
    31    21    32    1
    32    32    33    2
    33    32    34   am
    34    34    35    1
    35     9     3    1
    36    31    12   ar
    37    29     5    1
    38    18    13   ar
    39    31    19   ar
    40    35    20    1
    41    30    22   ar
    42    28    23   ar
    43     1    36    1
    44     1    37    1
    45     1    38    1
    46     2    39    1
    47     3    40    1
    48     4    41    1
    49     4    42    1
    50     5    43    1
    51     8    44    1
    52     8    45    1
    53     8    46    1
    54     9    47    1
    55    11    48    1
    56    11    49    1
    57    11    50    1
    58    14    51    1
    59    15    52    1
    60    16    53    1
    61    17    54    1
    62    24    55    1
    63    25    56    1
    64    26    57    1
    65    27    58    1
    66    34    59    1
    67    35    60    1
    68    35    61    1
