
     RDKit          3D

 61 68  0  0  0  0  0  0  0  0999 V2000
    2.3307   -1.5828   -2.6095 C   0  0  0  0  0  0  0  0  0  0  0  0
    2.0100   -0.4011   -1.8022 N   0  0  0  0  0  0  0  0  0  0  0  0
    2.6984   -0.5586   -0.5105 C   0  0  2  0  0  0  0  0  0  0  0  0
    2.2831   -1.7619    0.2412 C   0  0  0  0  0  0  0  0  0  0  0  0
    1.3495   -1.4957    1.3779 C   0  0  1  0  0  0  0  0  0  0  0  0
    1.3912   -0.3148    1.9613 O   0  0  0  0  0  0  0  0  0  0  0  0
    1.5957    0.8578    1.2834 C   0  0  1  0  0  0  0  0  0  0  0  0
    2.0785    1.8070    2.3943 C   0  0  0  0  0  0  0  0  0  0  0  0
    2.6702    0.7250    0.2918 C   0  0  2  0  0  0  0  0  0  0  0  0
    2.7203    1.7256   -0.6737 O   0  0  0  0  0  0  0  0  0  0  0  0
    3.9236    2.4117   -0.7175 C   0  0  0  0  0  0  0  0  0  0  0  0
    0.3116    1.2988    0.7277 N   0  0  0  0  0  0  0  0  0  0  0  0
   -0.0811    2.5386    0.4458 C   0  0  0  0  0  0  0  0  0  0  0  0
    0.5498    3.7370    0.5478 C   0  0  0  0  0  0  0  0  0  0  0  0
   -0.0765    4.9103    0.1818 C   0  0  0  0  0  0  0  0  0  0  0  0
   -1.3858    4.9105   -0.3090 C   0  0  0  0  0  0  0  0  0  0  0  0
   -2.0310    3.6986   -0.4155 C   0  0  0  0  0  0  0  0  0  0  0  0
   -1.3853    2.5474   -0.0445 C   0  0  0  0  0  0  0  0  0  0  0  0
   -1.8017    1.2450   -0.0614 C   0  0  0  0  0  0  0  0  0  0  0  0
   -2.9970    0.6468   -0.4481 C   0  0  0  0  0  0  0  0  0  0  0  0
   -3.1796   -0.7349   -0.3721 C   0  0  0  0  0  0  0  0  0  0  0  0
   -2.1111   -1.4684    0.1056 C   0  0  0  0  0  0  0  0  0  0  0  0
   -1.9025   -2.8176    0.3144 C   0  0  0  0  0  0  0  0  0  0  0  0
   -2.6739   -3.9336    0.1367 C   0  0  0  0  0  0  0  0  0  0  0  0
   -2.1701   -5.1800    0.4448 C   0  0  0  0  0  0  0  0  0  0  0  0
   -0.8743   -5.2953    0.9368 C   0  0  0  0  0  0  0  0  0  0  0  0
   -0.0905   -4.1832    1.1195 C   0  0  0  0  0  0  0  0  0  0  0  0
   -0.5955   -2.9396    0.8112 C   0  0  0  0  0  0  0  0  0  0  0  0
   -0.0300   -1.7476    0.9054 N   0  0  0  0  0  0  0  0  0  0  0  0
   -0.9280   -0.8512    0.4860 C   0  0  0  0  0  0  0  0  0  0  0  0
   -0.7470    0.5131    0.4128 C   0  0  0  0  0  0  0  0  0  0  0  0
   -4.5133   -1.0508   -0.8394 C   0  0  0  0  0  0  0  0  0  0  0  0
   -5.0716   -2.1490   -0.9339 O   0  0  0  0  0  0  0  0  0  0  0  0
   -5.1568    0.1608   -1.2076 N   0  0  0  0  0  0  0  0  0  0  0  0
   -4.2516    1.2371   -0.9815 C   0  0  0  0  0  0  0  0  0  0  0  0
    1.4214   -2.1441   -2.9040 H   0  0  0  0  0  0  0  0  0  0  0  0
    2.8554   -1.2001   -3.5211 H   0  0  0  0  0  0  0  0  0  0  0  0
    3.0271   -2.2529   -2.0721 H   0  0  0  0  0  0  0  0  0  0  0  0
    0.9924   -0.3868   -1.7091 H   0  0  0  0  0  0  0  0  0  0  0  0
    3.7762   -0.6939   -0.8257 H   0  0  0  0  0  0  0  0  0  0  0  0
    3.1881   -2.3209    0.6201 H   0  0  0  0  0  0  0  0  0  0  0  0
    1.7929   -2.4682   -0.4622 H   0  0  0  0  0  0  0  0  0  0  0  0
    1.5187   -2.2923    2.1356 H   0  0  0  0  0  0  0  0  0  0  0  0
    2.4411    1.2211    3.3005 H   0  0  0  0  0  0  0  0  0  0  0  0
    2.9935    2.3563    2.1141 H   0  0  0  0  0  0  0  0  0  0  0  0
    1.2619    2.4089    2.8129 H   0  0  0  0  0  0  0  0  0  0  0  0
    3.6506    0.7630    0.8268 H   0  0  0  0  0  0  0  0  0  0  0  0
    4.7695    1.6937   -0.9360 H   0  0  0  0  0  0  0  0  0  0  0  0
    3.9588    3.1129   -1.5941 H   0  0  0  0  0  0  0  0  0  0  0  0
    4.1548    2.9964    0.1769 H   0  0  0  0  0  0  0  0  0  0  0  0
    1.5441    3.7761    0.9084 H   0  0  0  0  0  0  0  0  0  0  0  0
    0.4530    5.8556    0.2745 H   0  0  0  0  0  0  0  0  0  0  0  0
   -1.8437    5.8524   -0.5860 H   0  0  0  0  0  0  0  0  0  0  0  0
   -3.0606    3.6853   -0.8000 H   0  0  0  0  0  0  0  0  0  0  0  0
   -3.6580   -3.8958   -0.2320 H   0  0  0  0  0  0  0  0  0  0  0  0
   -2.7284   -6.0952    0.3266 H   0  0  0  0  0  0  0  0  0  0  0  0
   -0.4548   -6.2590    1.1861 H   0  0  0  0  0  0  0  0  0  0  0  0
    0.9300   -4.2442    1.5041 H   0  0  0  0  0  0  0  0  0  0  0  0
   -6.1366    0.2813   -1.5872 H   0  0  0  0  0  0  0  0  0  0  0  0
   -4.6703    1.9659   -0.2268 H   0  0  0  0  0  0  0  0  0  0  0  0
   -4.0350    1.7792   -1.9301 H   0  0  0  0  0  0  0  0  0  0  0  0
  1  2  1  0
  2  3  1  0
  3  4  1  0
  4  5  1  0
  5  6  1  0
  6  7  1  0
  7  8  1  1
  7  9  1  0
  9 10  1  0
 10 11  1  0
  7 12  1  0
 12 13  1  0
 13 14  2  0
 14 15  1  0
 15 16  2  0
 16 17  1  0
 17 18  2  0
 18 19  1  0
 19 20  2  0
 20 21  1  0
 21 22  2  0
 22 23  1  0
 23 24  2  0
 24 25  1  0
 25 26  2  0
 26 27  1  0
 27 28  2  0
 28 29  1  0
 29 30  1  0
 30 31  2  0
 21 32  1  0
 32 33  2  0
 32 34  1  0
 34 35  1  0
  9  3  1  0
 31 12  1  0
 29  5  1  0
 18 13  1  0
 31 19  1  0
 35 20  1  0
 30 22  1  0
 28 23  1  0
  1 36  1  0
  1 37  1  0
  1 38  1  0
  2 39  1  0
  3 40  1  6
  4 41  1  0
  4 42  1  0
  5 43  1  1
  8 44  1  0
  8 45  1  0
  8 46  1  0
  9 47  1  1
 11 48  1  0
 11 49  1  0
 11 50  1  0
 14 51  1  0
 15 52  1  0
 16 53  1  0
 17 54  1  0
 24 55  1  0
 25 56  1  0
 26 57  1  0
 27 58  1  0
 34 59  1  0
 35 60  1  0
 35 61  1  0
M  END
$$$$
