
     RDKit          3D

 26 27  0  0  0  0  0  0  0  0999 V2000
   -1.6610   -0.6974   -0.1886 C   0  0  1  0  0  0  0  0  0  0  0  0
   -2.4629   -0.9281   -1.2784 O   0  0  0  0  0  0  0  0  0  0  0  0
   -0.5176   -1.7076   -0.1155 C   0  0  2  0  0  0  0  0  0  0  0  0
   -0.9334   -2.8707    0.4862 O   0  0  0  0  0  0  0  0  0  0  0  0
    0.5820   -0.9859    0.6180 C   0  0  1  0  0  0  0  0  0  0  0  0
    1.6748   -0.7840   -0.3057 N   0  0  0  0  0  0  0  0  0  0  0  0
    2.0736    0.4380   -0.2470 C   0  0  0  0  0  0  0  0  0  0  0  0
    1.3042    1.1451    0.6956 O   0  0  0  0  0  0  0  0  0  0  0  0
    0.0920    0.4236    0.8532 C   0  0  1  0  0  0  0  0  0  0  0  0
   -0.8768    0.6000   -0.2660 C   0  0  2  0  0  0  0  0  0  0  0  0
   -1.7734    1.8022   -0.0861 C   0  0  0  0  0  0  0  0  0  0  0  0
   -2.4215    1.8071    1.1237 O   0  0  0  0  0  0  0  0  0  0  0  0
    3.1598    0.7740   -1.1180 N   0  0  0  0  0  0  0  0  0  0  0  0
    4.3473    0.2735   -0.8805 C   0  0  0  0  0  0  0  0  0  0  0  0
   -2.2025   -0.7363    0.7800 H   0  0  0  0  0  0  0  0  0  0  0  0
   -3.3761   -0.5528   -1.1032 H   0  0  0  0  0  0  0  0  0  0  0  0
   -0.2381   -1.9417   -1.1508 H   0  0  0  0  0  0  0  0  0  0  0  0
   -0.7811   -2.7885    1.4610 H   0  0  0  0  0  0  0  0  0  0  0  0
    0.8921   -1.5011    1.5453 H   0  0  0  0  0  0  0  0  0  0  0  0
   -0.3516    0.5089    1.8558 H   0  0  0  0  0  0  0  0  0  0  0  0
   -0.3396    0.6254   -1.2155 H   0  0  0  0  0  0  0  0  0  0  0  0
   -1.1480    2.7051   -0.2234 H   0  0  0  0  0  0  0  0  0  0  0  0
   -2.5140    1.8232   -0.9091 H   0  0  0  0  0  0  0  0  0  0  0  0
   -1.8827    2.1905    1.8530 H   0  0  0  0  0  0  0  0  0  0  0  0
    4.7998    0.7761   -1.7405 H   0  0  0  0  0  0  0  0  0  0  0  0
    4.5547   -0.3989   -0.0369 H   0  0  0  0  0  0  0  0  0  0  0  0
  1  2  1  0
  1  3  1  0
  3  4  1  0
  3  5  1  0
  5  6  1  0
  6  7  2  0
  7  8  1  0
  8  9  1  0
  9 10  1  0
 10 11  1  0
 11 12  1  0
  7 13  1  0
 13 14  2  0
 10  1  1  0
  9  5  1  0
  1 15  1  1
  2 16  1  0
  3 17  1  6
  4 18  1  0
  5 19  1  1
  9 20  1  1
 10 21  1  6
 11 22  1  0
 11 23  1  0
 12 24  1  0
 14 25  1  0
 14 26  1  0
M  END
$$$$
