@<TRIPOS>MOLECULE
*****
 26 27 0 0 0
SMALL
GASTEIGER

@<TRIPOS>ATOM
      1 C          -1.6610   -0.6974   -0.1886 C.3     1  UNL1        0.0915
      2 O          -2.4629   -0.9281   -1.2784 O.3     1  UNL1       -0.3887
      3 C          -0.5176   -1.7076   -0.1155 C.3     1  UNL1        0.1073
      4 O          -0.9334   -2.8707    0.4862 O.3     1  UNL1       -0.3870
      5 C           0.5820   -0.9859    0.6180 C.3     1  UNL1        0.1214
      6 N           1.6748   -0.7840   -0.3057 N.2     1  UNL1       -0.2232
      7 C           2.0736    0.4380   -0.2470 C.2     1  UNL1        0.3136
      8 O           1.3042    1.1451    0.6956 O.2     1  UNL1       -0.4567
      9 C           0.0920    0.4236    0.8532 C.3     1  UNL1        0.1354
     10 C          -0.8768    0.6000   -0.2660 C.3     1  UNL1        0.0498
     11 C          -1.7734    1.8022   -0.0861 C.3     1  UNL1        0.0529
     12 O          -2.4215    1.8071    1.1237 O.3     1  UNL1       -0.3945
     13 N           3.1598    0.7740   -1.1180 N.2     1  UNL1       -0.2114
     14 C           4.3473    0.2735   -0.8805 C.2     1  UNL1       -0.0036
     15 H          -2.2025   -0.7363    0.7800 H       1  UNL1        0.0624
     16 H          -3.3761   -0.5528   -1.1032 H       1  UNL1        0.2099
     17 H          -0.2381   -1.9417   -1.1508 H       1  UNL1        0.0642
     18 H          -0.7811   -2.7885    1.4610 H       1  UNL1        0.2100
     19 H           0.8921   -1.5011    1.5453 H       1  UNL1        0.0610
     20 H          -0.3516    0.5089    1.8558 H       1  UNL1        0.0761
     21 H          -0.3396    0.6254   -1.2155 H       1  UNL1        0.0386
     22 H          -1.1480    2.7051   -0.2234 H       1  UNL1        0.0562
     23 H          -2.5140    1.8232   -0.9091 H       1  UNL1        0.0562
     24 H          -1.8827    2.1905    1.8530 H       1  UNL1        0.2094
     25 H           4.7998    0.7761   -1.7405 H       1  UNL1        0.0746
     26 H           4.5547   -0.3989   -0.0369 H       1  UNL1        0.0746
@<TRIPOS>BOND
     1     1     2    1
     2     1     3    1
     3     3     4    1
     4     3     5    1
     5     5     6    1
     6     6     7    2
     7     7     8    1
     8     8     9    1
     9     9    10    1
    10    10    11    1
    11    11    12    1
    12     7    13    1
    13    13    14    2
    14    10     1    1
    15     9     5    1
    16     1    15    1
    17     2    16    1
    18     3    17    1
    19     4    18    1
    20     5    19    1
    21     9    20    1
    22    10    21    1
    23    11    22    1
    24    11    23    1
    25    12    24    1
    26    14    25    1
    27    14    26    1
