
     RDKit          3D

 45 49  0  0  0  0  0  0  0  0999 V2000
   -4.7199    4.0653    1.7561 F   0  0  0  0  0  0  0  0  0  0  0  0
   -4.2007    2.8422    1.4412 C   0  0  0  0  0  0  0  0  0  0  0  0
   -3.0204    2.4182    2.0145 C   0  0  0  0  0  0  0  0  0  0  0  0
   -2.4709    1.1893    1.7171 C   0  0  0  0  0  0  0  0  0  0  0  0
   -3.1178    0.3475    0.8151 C   0  0  0  0  0  0  0  0  0  0  0  0
   -2.5397   -0.9628    0.4917 C   0  0  0  0  0  0  0  0  0  0  0  0
   -3.1391   -2.1347    0.7607 N   0  0  0  0  0  0  0  0  0  0  0  0
   -2.3171   -3.0983    0.3257 C   0  0  0  0  0  0  0  0  0  0  0  0
   -1.2075   -2.5159   -0.2130 N   0  0  0  0  0  0  0  0  0  0  0  0
   -0.1129   -3.2679   -0.7786 C   0  0  0  0  0  0  0  0  0  0  0  0
   -0.3229   -3.5251   -2.2607 C   0  0  0  0  0  0  0  0  0  0  0  0
    0.7628   -4.2482   -2.7314 F   0  0  0  0  0  0  0  0  0  0  0  0
   -0.4110   -2.3721   -2.9860 F   0  0  0  0  0  0  0  0  0  0  0  0
   -1.3253   -1.1809   -0.1200 C   0  0  0  0  0  0  0  0  0  0  0  0
   -0.3560   -0.2014   -0.5797 C   0  0  0  0  0  0  0  0  0  0  0  0
   -0.6686    0.7121   -1.5939 C   0  0  0  0  0  0  0  0  0  0  0  0
    0.2232    1.6468   -2.0460 C   0  0  0  0  0  0  0  0  0  0  0  0
    1.4968    1.6912   -1.4723 C   0  0  0  0  0  0  0  0  0  0  0  0
    2.5719    2.4741   -1.6912 N   0  0  0  0  0  0  0  0  0  0  0  0
    3.5397    2.0789   -0.8493 C   0  0  0  0  0  0  0  0  0  0  0  0
    3.0889    1.0325   -0.0791 C   0  0  0  0  0  0  0  0  0  0  0  0
    3.8148    0.2808    0.9848 C   0  0  0  0  0  0  0  0  0  0  0  0
    4.7303    1.0748    1.9062 C   0  0  0  0  0  0  0  0  0  0  0  0
    5.2966    0.1804    0.8633 C   0  0  0  0  0  0  0  0  0  0  0  0
    1.8190    0.8244   -0.4976 N   0  0  0  0  0  0  0  0  0  0  0  0
    0.9211   -0.0887   -0.0690 C   0  0  0  0  0  0  0  0  0  0  0  0
   -4.2959    0.7833    0.2497 C   0  0  0  0  0  0  0  0  0  0  0  0
   -4.8331    1.9952    0.5462 C   0  0  0  0  0  0  0  0  0  0  0  0
   -2.4980    3.0397    2.7110 H   0  0  0  0  0  0  0  0  0  0  0  0
   -1.5326    0.8372    2.1650 H   0  0  0  0  0  0  0  0  0  0  0  0
   -2.5234   -4.1525    0.4015 H   0  0  0  0  0  0  0  0  0  0  0  0
   -0.0763   -4.2927   -0.3048 H   0  0  0  0  0  0  0  0  0  0  0  0
    0.8824   -2.8220   -0.5835 H   0  0  0  0  0  0  0  0  0  0  0  0
   -1.2360   -4.1199   -2.4469 H   0  0  0  0  0  0  0  0  0  0  0  0
   -1.6668    0.6375   -2.0058 H   0  0  0  0  0  0  0  0  0  0  0  0
   -0.0141    2.3512   -2.8261 H   0  0  0  0  0  0  0  0  0  0  0  0
    4.5285    2.5034   -0.7715 H   0  0  0  0  0  0  0  0  0  0  0  0
    3.2750   -0.5547    1.4878 H   0  0  0  0  0  0  0  0  0  0  0  0
    4.7495    0.7719    2.9749 H   0  0  0  0  0  0  0  0  0  0  0  0
    4.6845    2.1641    1.7346 H   0  0  0  0  0  0  0  0  0  0  0  0
    5.7859   -0.7682    1.2105 H   0  0  0  0  0  0  0  0  0  0  0  0
    5.8042    0.6346   -0.0157 H   0  0  0  0  0  0  0  0  0  0  0  0
    1.2121   -0.7682    0.7135 H   0  0  0  0  0  0  0  0  0  0  0  0
   -4.8196    0.1415   -0.4589 H   0  0  0  0  0  0  0  0  0  0  0  0
   -5.7617    2.3558    0.1099 H   0  0  0  0  0  0  0  0  0  0  0  0
  1  2  1  0
  2  3  2  0
  3  4  1  0
  4  5  2  0
  5  6  1  0
  6  7  1  0
  7  8  2  0
  8  9  1  0
  9 10  1  0
 10 11  1  0
 11 12  1  0
 11 13  1  0
  9 14  1  0
 14 15  1  0
 15 16  1  0
 16 17  2  0
 17 18  1  0
 18 19  2  0
 19 20  1  0
 20 21  2  0
 21 22  1  0
 22 23  1  0
 23 24  1  0
 21 25  1  0
 25 26  1  0
  5 27  1  0
 27 28  2  0
 28  2  1  0
 14  6  2  0
 26 15  2  0
 25 18  1  0
 24 22  1  0
  3 29  1  0
  4 30  1  0
  8 31  1  0
 10 32  1  0
 10 33  1  0
 11 34  1  0
 16 35  1  0
 17 36  1  0
 20 37  1  0
 22 38  1  0
 23 39  1  0
 23 40  1  0
 24 41  1  0
 24 42  1  0
 26 43  1  0
 27 44  1  0
 28 45  1  0
M  END
$$$$
