@<TRIPOS>MOLECULE
*****
 45 49 0 0 0
SMALL
GASTEIGER

@<TRIPOS>ATOM
      1 F          -4.7199    4.0653    1.7561 F       1  UNL1       -0.2055
      2 C          -4.2007    2.8422    1.4412 C.ar    1  UNL1        0.1234
      3 C          -3.0204    2.4182    2.0145 C.ar    1  UNL1       -0.0258
      4 C          -2.4709    1.1893    1.7171 C.ar    1  UNL1       -0.0498
      5 C          -3.1178    0.3475    0.8151 C.ar    1  UNL1        0.0026
      6 C          -2.5397   -0.9628    0.4917 C.ar    1  UNL1        0.0967
      7 N          -3.1391   -2.1347    0.7607 N.ar    1  UNL1       -0.2351
      8 C          -2.3171   -3.0983    0.3257 C.ar    1  UNL1        0.0972
      9 N          -1.2075   -2.5159   -0.2130 N.ar    1  UNL1       -0.3241
     10 C          -0.1129   -3.2679   -0.7786 C.3     1  UNL1        0.0852
     11 C          -0.3229   -3.5251   -2.2607 C.3     1  UNL1        0.2569
     12 F           0.7628   -4.2482   -2.7314 F       1  UNL1       -0.2073
     13 F          -0.4110   -2.3721   -2.9860 F       1  UNL1       -0.2073
     14 C          -1.3253   -1.1809   -0.1200 C.ar    1  UNL1        0.0780
     15 C          -0.3560   -0.2014   -0.5797 C.ar    1  UNL1        0.0173
     16 C          -0.6686    0.7121   -1.5939 C.ar    1  UNL1       -0.0477
     17 C           0.2232    1.6468   -2.0460 C.ar    1  UNL1       -0.0182
     18 C           1.4968    1.6912   -1.4723 C.ar    1  UNL1        0.1378
     19 N           2.5719    2.4741   -1.6912 N.ar    1  UNL1       -0.2358
     20 C           3.5397    2.0789   -0.8493 C.ar    1  UNL1        0.0499
     21 C           3.0889    1.0325   -0.0791 C.ar    1  UNL1        0.0462
     22 C           3.8148    0.2808    0.9848 C.3     1  UNL1        0.0013
     23 C           4.7303    1.0748    1.9062 C.3     1  UNL1       -0.0442
     24 C           5.2966    0.1804    0.8633 C.3     1  UNL1       -0.0442
     25 N           1.8190    0.8244   -0.4976 N.ar    1  UNL1       -0.3027
     26 C           0.9211   -0.0887   -0.0690 C.ar    1  UNL1        0.0206
     27 C          -4.2959    0.7833    0.2497 C.ar    1  UNL1       -0.0498
     28 C          -4.8331    1.9952    0.5462 C.ar    1  UNL1       -0.0258
     29 H          -2.4980    3.0397    2.7110 H       1  UNL1        0.0646
     30 H          -1.5326    0.8372    2.1650 H       1  UNL1        0.0625
     31 H          -2.5234   -4.1525    0.4015 H       1  UNL1        0.1029
     32 H          -0.0763   -4.2927   -0.3048 H       1  UNL1        0.0548
     33 H           0.8824   -2.8220   -0.5835 H       1  UNL1        0.0548
     34 H          -1.2360   -4.1199   -2.4469 H       1  UNL1        0.1037
     35 H          -1.6668    0.6375   -2.0058 H       1  UNL1        0.0626
     36 H          -0.0141    2.3512   -2.8261 H       1  UNL1        0.0654
     37 H           4.5285    2.5034   -0.7715 H       1  UNL1        0.0848
     38 H           3.2750   -0.5547    1.4878 H       1  UNL1        0.0364
     39 H           4.7495    0.7719    2.9749 H       1  UNL1        0.0272
     40 H           4.6845    2.1641    1.7346 H       1  UNL1        0.0272
     41 H           5.7859   -0.7682    1.2105 H       1  UNL1        0.0272
     42 H           5.8042    0.6346   -0.0157 H       1  UNL1        0.0272
     43 H           1.2121   -0.7682    0.7135 H       1  UNL1        0.0820
     44 H          -4.8196    0.1415   -0.4589 H       1  UNL1        0.0625
     45 H          -5.7617    2.3558    0.1099 H       1  UNL1        0.0646
@<TRIPOS>BOND
     1     1     2    1
     2     2     3   ar
     3     3     4   ar
     4     4     5   ar
     5     5     6    1
     6     6     7   ar
     7     7     8   ar
     8     8     9   ar
     9     9    10    1
    10    10    11    1
    11    11    12    1
    12    11    13    1
    13     9    14   ar
    14    14    15    1
    15    15    16   ar
    16    16    17   ar
    17    17    18   ar
    18    18    19   ar
    19    19    20   ar
    20    20    21   ar
    21    21    22    1
    22    22    23    1
    23    23    24    1
    24    21    25   ar
    25    25    26   ar
    26     5    27   ar
    27    27    28   ar
    28    28     2   ar
    29    14     6   ar
    30    26    15   ar
    31    25    18   ar
    32    24    22    1
    33     3    29    1
    34     4    30    1
    35     8    31    1
    36    10    32    1
    37    10    33    1
    38    11    34    1
    39    16    35    1
    40    17    36    1
    41    20    37    1
    42    22    38    1
    43    23    39    1
    44    23    40    1
    45    24    41    1
    46    24    42    1
    47    26    43    1
    48    27    44    1
    49    28    45    1
