@<TRIPOS>MOLECULE
*****
 24 26 0 0 0
SMALL
GASTEIGER

@<TRIPOS>ATOM
      1 O           1.8047   -0.8397   -1.9944 O.2     1  UNL1       -0.2671
      2 C           2.1467   -0.6078   -0.8071 C.ar    1  UNL1        0.2598
      3 N           3.3860   -0.8944   -0.3877 N.ar    1  UNL1       -0.3129
      4 C           3.9204   -0.7168    0.8309 C.ar    1  UNL1        0.0972
      5 N           3.0777   -0.1781    1.7307 N.ar    1  UNL1       -0.2300
      6 C           1.8084    0.1485    1.4154 C.ar    1  UNL1        0.1155
      7 C           1.2960   -0.0559    0.1294 C.ar    1  UNL1        0.0753
      8 C          -0.0112    0.3228   -0.0494 C.ar    1  UNL1       -0.0227
      9 C          -0.7218    0.8536    0.9730 C.ar    1  UNL1       -0.0042
     10 C          -2.1227    1.2576    0.7750 C.3     1  UNL1       -0.0211
     11 C          -2.8765    0.1016    0.2175 C.3     1  UNL1       -0.0483
     12 C          -2.1188   -0.5758   -0.8694 C.3     1  UNL1       -0.0487
     13 C          -0.9208    0.2830   -1.2244 C.3     1  UNL1       -0.0261
     14 S           0.4560    0.8624    2.3406 S.2     1  UNL1       -0.0732
     15 H           4.0332   -1.3184   -1.1141 H       1  UNL1        0.1698
     16 H           4.9282   -0.9659    1.1165 H       1  UNL1        0.1028
     17 H          -2.5311    1.6216    1.7436 H       1  UNL1        0.0318
     18 H          -2.2303    2.1109    0.0738 H       1  UNL1        0.0318
     19 H          -3.8985    0.4117   -0.1405 H       1  UNL1        0.0269
     20 H          -3.1111   -0.5924    1.0746 H       1  UNL1        0.0269
     21 H          -1.7939   -1.5720   -0.4702 H       1  UNL1        0.0268
     22 H          -2.7849   -0.7088   -1.7464 H       1  UNL1        0.0268
     23 H          -1.2759    1.2758   -1.5213 H       1  UNL1        0.0314
     24 H          -0.4598   -0.2236   -2.0961 H       1  UNL1        0.0314
@<TRIPOS>BOND
     1     1     2    2
     2     2     3   ar
     3     3     4   ar
     4     4     5   ar
     5     5     6   ar
     6     6     7   ar
     7     7     8   ar
     8     8     9   ar
     9     9    10    1
    10    10    11    1
    11    11    12    1
    12    12    13    1
    13     9    14   ar
    14     7     2   ar
    15    13     8    1
    16    14     6   ar
    17     3    15    1
    18     4    16    1
    19    10    17    1
    20    10    18    1
    21    11    19    1
    22    11    20    1
    23    12    21    1
    24    12    22    1
    25    13    23    1
    26    13    24    1
