@<TRIPOS>MOLECULE
*****
 51 55 0 0 0
SMALL
GASTEIGER

@<TRIPOS>ATOM
      1 N           3.8145   -1.0854    1.2597 N.am    1  UNL1       -0.3240
      2 C           4.3818   -1.5676    0.0504 C.2     1  UNL1        0.2615
      3 O           5.4952   -2.1108    0.0655 O.2     1  UNL1       -0.2687
      4 C           3.6461   -1.4206   -1.2138 C.ar    1  UNL1        0.1470
      5 C           4.0889   -1.8419   -2.4479 C.ar    1  UNL1        0.0605
      6 N           3.1279   -1.5221   -3.3251 N.ar    1  UNL1       -0.2339
      7 C           2.1269   -0.9240   -2.6543 C.ar    1  UNL1        0.1549
      8 C           0.9402   -0.4239   -3.1031 C.ar    1  UNL1       -0.0153
      9 C           0.0804    0.1490   -2.1671 C.ar    1  UNL1       -0.0290
     10 C           0.4158    0.2089   -0.8340 C.ar    1  UNL1        0.1103
     11 C          -0.5280    0.8161    0.0944 C.ar    1  UNL1        0.0969
     12 C          -0.3460    1.9690    0.8330 C.ar    1  UNL1        0.0982
     13 C           0.8375    2.8138    0.8178 C.ar    1  UNL1        0.0027
     14 C           1.2510    3.4811   -0.3048 C.ar    1  UNL1       -0.0498
     15 C           2.3766    4.2865   -0.3217 C.ar    1  UNL1       -0.0258
     16 C           3.1206    4.4322    0.8285 C.ar    1  UNL1        0.1234
     17 F           4.2404    5.2057    0.8975 F       1  UNL1       -0.2055
     18 C           2.7154    3.7622    1.9766 C.ar    1  UNL1       -0.0258
     19 C           1.5735    2.9520    1.9738 C.ar    1  UNL1       -0.0498
     20 N          -1.4316    2.2272    1.5898 N.ar    1  UNL1       -0.2351
     21 C          -2.3010    1.2348    1.3282 C.ar    1  UNL1        0.0974
     22 N          -1.7569    0.3788    0.4232 N.ar    1  UNL1       -0.3253
     23 C          -2.3639   -0.8237   -0.1269 C.3     1  UNL1        0.0364
     24 C          -3.8723   -0.6575   -0.1356 C.3     1  UNL1       -0.0267
     25 C          -4.5329   -1.4714    0.9658 C.3     1  UNL1        0.0126
     26 C          -4.3140   -2.9271    0.6443 C.3     1  UNL1        0.2491
     27 F          -4.7157   -3.6968    1.7307 F       1  UNL1       -0.2057
     28 F          -5.1713   -3.2538   -0.3918 F       1  UNL1       -0.2057
     29 C          -2.8651   -3.1952    0.2947 C.3     1  UNL1        0.0126
     30 C          -2.0053   -2.0418    0.7262 C.3     1  UNL1       -0.0267
     31 N           1.6029   -0.3050   -0.4683 N.ar    1  UNL1       -0.1628
     32 N           2.4359   -0.8560   -1.3506 N.ar    1  UNL1       -0.2076
     33 H           3.3051   -0.1868    1.2547 H       1  UNL1        0.1453
     34 H           3.8929   -1.6043    2.1496 H       1  UNL1        0.1453
     35 H           5.0461   -2.3378   -2.6322 H       1  UNL1        0.0854
     36 H           0.6424   -0.4551   -4.1549 H       1  UNL1        0.0655
     37 H          -0.8406    0.5339   -2.5385 H       1  UNL1        0.0641
     38 H           0.6740    3.3766   -1.2229 H       1  UNL1        0.0625
     39 H           2.7057    4.8137   -1.2034 H       1  UNL1        0.0646
     40 H           3.2869    3.8688    2.8757 H       1  UNL1        0.0646
     41 H           1.2846    2.4393    2.8965 H       1  UNL1        0.0625
     42 H          -3.2886    1.1379    1.7763 H       1  UNL1        0.1029
     43 H          -2.0664   -1.0105   -1.1783 H       1  UNL1        0.0528
     44 H          -4.3303   -0.9346   -1.1000 H       1  UNL1        0.0287
     45 H          -4.1541    0.4153    0.0756 H       1  UNL1        0.0287
     46 H          -5.6169   -1.2228    0.9130 H       1  UNL1        0.0323
     47 H          -4.1490   -1.1770    1.9611 H       1  UNL1        0.0323
     48 H          -2.7583   -3.3247   -0.7872 H       1  UNL1        0.0323
     49 H          -2.5564   -4.1033    0.8678 H       1  UNL1        0.0323
     50 H          -0.9426   -2.2700    0.6149 H       1  UNL1        0.0287
     51 H          -2.2019   -1.7515    1.7769 H       1  UNL1        0.0287
@<TRIPOS>BOND
     1     1     2   am
     2     2     3    2
     3     2     4    1
     4     4     5   ar
     5     5     6   ar
     6     6     7   ar
     7     7     8   ar
     8     8     9   ar
     9     9    10   ar
    10    10    11    1
    11    11    12   ar
    12    12    13    1
    13    13    14   ar
    14    14    15   ar
    15    15    16   ar
    16    16    17    1
    17    16    18   ar
    18    18    19   ar
    19    12    20   ar
    20    20    21   ar
    21    21    22   ar
    22    22    23    1
    23    23    24    1
    24    24    25    1
    25    25    26    1
    26    26    27    1
    27    26    28    1
    28    26    29    1
    29    29    30    1
    30    10    31   ar
    31    31    32   ar
    32    32     4   ar
    33    32     7   ar
    34    22    11   ar
    35    30    23    1
    36    19    13   ar
    37     1    33    1
    38     1    34    1
    39     5    35    1
    40     8    36    1
    41     9    37    1
    42    14    38    1
    43    15    39    1
    44    18    40    1
    45    19    41    1
    46    21    42    1
    47    23    43    1
    48    24    44    1
    49    24    45    1
    50    25    46    1
    51    25    47    1
    52    29    48    1
    53    29    49    1
    54    30    50    1
    55    30    51    1
