
     RDKit          3D

 51 55  0  0  0  0  0  0  0  0999 V2000
    3.8145   -1.0854    1.2597 N   0  0  0  0  0  0  0  0  0  0  0  0
    4.3818   -1.5676    0.0504 C   0  0  0  0  0  0  0  0  0  0  0  0
    5.4952   -2.1108    0.0655 O   0  0  0  0  0  0  0  0  0  0  0  0
    3.6461   -1.4206   -1.2138 C   0  0  0  0  0  0  0  0  0  0  0  0
    4.0889   -1.8419   -2.4479 C   0  0  0  0  0  0  0  0  0  0  0  0
    3.1279   -1.5221   -3.3251 N   0  0  0  0  0  0  0  0  0  0  0  0
    2.1269   -0.9240   -2.6543 C   0  0  0  0  0  0  0  0  0  0  0  0
    0.9402   -0.4239   -3.1031 C   0  0  0  0  0  0  0  0  0  0  0  0
    0.0804    0.1490   -2.1671 C   0  0  0  0  0  0  0  0  0  0  0  0
    0.4158    0.2089   -0.8340 C   0  0  0  0  0  0  0  0  0  0  0  0
   -0.5280    0.8161    0.0944 C   0  0  0  0  0  0  0  0  0  0  0  0
   -0.3460    1.9690    0.8330 C   0  0  0  0  0  0  0  0  0  0  0  0
    0.8375    2.8138    0.8178 C   0  0  0  0  0  0  0  0  0  0  0  0
    1.2510    3.4811   -0.3048 C   0  0  0  0  0  0  0  0  0  0  0  0
    2.3766    4.2865   -0.3217 C   0  0  0  0  0  0  0  0  0  0  0  0
    3.1206    4.4322    0.8285 C   0  0  0  0  0  0  0  0  0  0  0  0
    4.2404    5.2057    0.8975 F   0  0  0  0  0  0  0  0  0  0  0  0
    2.7154    3.7622    1.9766 C   0  0  0  0  0  0  0  0  0  0  0  0
    1.5735    2.9520    1.9738 C   0  0  0  0  0  0  0  0  0  0  0  0
   -1.4316    2.2272    1.5898 N   0  0  0  0  0  0  0  0  0  0  0  0
   -2.3010    1.2348    1.3282 C   0  0  0  0  0  0  0  0  0  0  0  0
   -1.7569    0.3788    0.4232 N   0  0  0  0  0  0  0  0  0  0  0  0
   -2.3639   -0.8237   -0.1269 C   0  0  0  0  0  0  0  0  0  0  0  0
   -3.8723   -0.6575   -0.1356 C   0  0  0  0  0  0  0  0  0  0  0  0
   -4.5329   -1.4714    0.9658 C   0  0  0  0  0  0  0  0  0  0  0  0
   -4.3140   -2.9271    0.6443 C   0  0  0  0  0  0  0  0  0  0  0  0
   -4.7157   -3.6968    1.7307 F   0  0  0  0  0  0  0  0  0  0  0  0
   -5.1713   -3.2538   -0.3918 F   0  0  0  0  0  0  0  0  0  0  0  0
   -2.8651   -3.1952    0.2947 C   0  0  0  0  0  0  0  0  0  0  0  0
   -2.0053   -2.0418    0.7262 C   0  0  0  0  0  0  0  0  0  0  0  0
    1.6029   -0.3050   -0.4683 N   0  0  0  0  0  0  0  0  0  0  0  0
    2.4359   -0.8560   -1.3506 N   0  0  0  0  0  0  0  0  0  0  0  0
    3.3051   -0.1868    1.2547 H   0  0  0  0  0  0  0  0  0  0  0  0
    3.8929   -1.6043    2.1496 H   0  0  0  0  0  0  0  0  0  0  0  0
    5.0461   -2.3378   -2.6322 H   0  0  0  0  0  0  0  0  0  0  0  0
    0.6424   -0.4551   -4.1549 H   0  0  0  0  0  0  0  0  0  0  0  0
   -0.8406    0.5339   -2.5385 H   0  0  0  0  0  0  0  0  0  0  0  0
    0.6740    3.3766   -1.2229 H   0  0  0  0  0  0  0  0  0  0  0  0
    2.7057    4.8137   -1.2034 H   0  0  0  0  0  0  0  0  0  0  0  0
    3.2869    3.8688    2.8757 H   0  0  0  0  0  0  0  0  0  0  0  0
    1.2846    2.4393    2.8965 H   0  0  0  0  0  0  0  0  0  0  0  0
   -3.2886    1.1379    1.7763 H   0  0  0  0  0  0  0  0  0  0  0  0
   -2.0664   -1.0105   -1.1783 H   0  0  0  0  0  0  0  0  0  0  0  0
   -4.3303   -0.9346   -1.1000 H   0  0  0  0  0  0  0  0  0  0  0  0
   -4.1541    0.4153    0.0756 H   0  0  0  0  0  0  0  0  0  0  0  0
   -5.6169   -1.2228    0.9130 H   0  0  0  0  0  0  0  0  0  0  0  0
   -4.1490   -1.1770    1.9611 H   0  0  0  0  0  0  0  0  0  0  0  0
   -2.7583   -3.3247   -0.7872 H   0  0  0  0  0  0  0  0  0  0  0  0
   -2.5564   -4.1033    0.8678 H   0  0  0  0  0  0  0  0  0  0  0  0
   -0.9426   -2.2700    0.6149 H   0  0  0  0  0  0  0  0  0  0  0  0
   -2.2019   -1.7515    1.7769 H   0  0  0  0  0  0  0  0  0  0  0  0
  1  2  1  0
  2  3  2  0
  2  4  1  0
  4  5  2  0
  5  6  1  0
  6  7  2  0
  7  8  1  0
  8  9  2  0
  9 10  1  0
 10 11  1  0
 11 12  2  0
 12 13  1  0
 13 14  2  0
 14 15  1  0
 15 16  2  0
 16 17  1  0
 16 18  1  0
 18 19  2  0
 12 20  1  0
 20 21  2  0
 21 22  1  0
 22 23  1  0
 23 24  1  0
 24 25  1  0
 25 26  1  0
 26 27  1  0
 26 28  1  0
 26 29  1  0
 29 30  1  0
 10 31  2  0
 31 32  1  0
 32  4  1  0
 32  7  1  0
 22 11  1  0
 30 23  1  0
 19 13  1  0
  1 33  1  0
  1 34  1  0
  5 35  1  0
  8 36  1  0
  9 37  1  0
 14 38  1  0
 15 39  1  0
 18 40  1  0
 19 41  1  0
 21 42  1  0
 23 43  1  0
 24 44  1  0
 24 45  1  0
 25 46  1  0
 25 47  1  0
 29 48  1  0
 29 49  1  0
 30 50  1  0
 30 51  1  0
M  END
$$$$
