
     RDKit          3D

 63 66  0  0  0  0  0  0  0  0999 V2000
   -7.6271    3.5872   -2.1859 N   0  0  0  0  0  0  0  0  0  0  0  0
   -7.9425    3.0386   -1.0685 C   0  0  0  0  0  0  0  0  0  0  0  0
   -9.2621    3.0798   -0.5226 N   0  0  0  0  0  0  0  0  0  0  0  0
   -6.9389    2.3282   -0.2839 C   0  0  0  0  0  0  0  0  0  0  0  0
   -7.0262    2.2684    1.0950 C   0  0  0  0  0  0  0  0  0  0  0  0
   -6.0613    1.5888    1.8062 C   0  0  0  0  0  0  0  0  0  0  0  0
   -5.0239    0.9780    1.1454 C   0  0  0  0  0  0  0  0  0  0  0  0
   -4.9055    1.0158   -0.2082 C   0  0  0  0  0  0  0  0  0  0  0  0
   -3.8199    0.3803   -0.9445 C   0  0  0  0  0  0  0  0  0  0  0  0
   -3.7815    0.4631   -2.2045 O   0  0  0  0  0  0  0  0  0  0  0  0
   -2.7871   -0.3372   -0.3184 N   0  0  0  0  0  0  0  0  0  0  0  0
   -1.6987   -0.9740   -1.0589 C   0  0  1  0  0  0  0  0  0  0  0  0
   -0.4083   -0.4288   -0.5104 C   0  0  0  0  0  0  0  0  0  0  0  0
   -0.3842    0.4192    0.4189 O   0  0  0  0  0  0  0  0  0  0  0  0
    0.8476   -0.8548   -1.0256 N   0  0  0  0  0  0  0  0  0  0  0  0
    2.0765   -0.3516   -0.5207 C   0  0  0  0  0  0  0  0  0  0  0  0
    2.7282   -0.9653    0.5260 C   0  0  0  0  0  0  0  0  0  0  0  0
    3.9150   -0.5055    1.0371 C   0  0  0  0  0  0  0  0  0  0  0  0
    4.4891    0.6081    0.4944 C   0  0  0  0  0  0  0  0  0  0  0  0
    5.7671    1.1082    0.9930 C   0  0  0  0  0  0  0  0  0  0  0  0
    5.8455    2.3008    1.6819 C   0  0  0  0  0  0  0  0  0  0  0  0
    7.0227    2.7801    2.1874 C   0  0  0  0  0  0  0  0  0  0  0  0
    8.1590    2.0263    1.9886 C   0  0  0  0  0  0  0  0  0  0  0  0
    8.1097    0.8353    1.3058 C   0  0  0  0  0  0  0  0  0  0  0  0
    6.8998    0.3580    0.7942 C   0  0  0  0  0  0  0  0  0  0  0  0
    6.9602   -1.1280   -0.0762 S   0  0  0  0  0  6  0  0  0  0  0  0
    6.3703   -0.9024   -1.7124 N   0  0  0  0  0  0  0  0  0  0  0  0
    6.2355   -2.2654    0.5070 O   0  0  0  0  0  0  0  0  0  0  0  0
    8.4236   -1.5413   -0.2670 O   0  0  0  0  0  0  0  0  0  0  0  0
    3.8764    1.2583   -0.5537 C   0  0  0  0  0  0  0  0  0  0  0  0
    2.6876    0.7691   -1.0395 C   0  0  0  0  0  0  0  0  0  0  0  0
   -1.6688   -2.4464   -0.7960 C   0  0  0  0  0  0  0  0  0  0  0  0
   -1.5095   -3.3620   -1.8185 C   0  0  0  0  0  0  0  0  0  0  0  0
   -1.4830   -4.7232   -1.5668 C   0  0  0  0  0  0  0  0  0  0  0  0
   -1.6146   -5.2182   -0.2853 C   0  0  0  0  0  0  0  0  0  0  0  0
   -1.7735   -4.3040    0.7352 C   0  0  0  0  0  0  0  0  0  0  0  0
   -1.7997   -2.9486    0.4835 C   0  0  0  0  0  0  0  0  0  0  0  0
   -5.8903    1.7068   -0.9039 C   0  0  0  0  0  0  0  0  0  0  0  0
   -8.4003    4.0813   -2.6965 H   0  0  0  0  0  0  0  0  0  0  0  0
   -9.8399    3.9170   -0.7120 H   0  0  0  0  0  0  0  0  0  0  0  0
   -9.6138    2.2785    0.0477 H   0  0  0  0  0  0  0  0  0  0  0  0
   -7.8310    2.7405    1.6278 H   0  0  0  0  0  0  0  0  0  0  0  0
   -6.1243    1.5387    2.8838 H   0  0  0  0  0  0  0  0  0  0  0  0
   -4.2851    0.4544    1.7299 H   0  0  0  0  0  0  0  0  0  0  0  0
   -2.7683   -0.4367    0.7064 H   0  0  0  0  0  0  0  0  0  0  0  0
   -1.7943   -0.8216   -2.1332 H   0  0  0  0  0  0  0  0  0  0  0  0
    0.8211   -1.5668   -1.8055 H   0  0  0  0  0  0  0  0  0  0  0  0
    2.2436   -1.8519    0.9356 H   0  0  0  0  0  0  0  0  0  0  0  0
    4.3559   -1.0426    1.8884 H   0  0  0  0  0  0  0  0  0  0  0  0
    4.9225    2.8538    1.8099 H   0  0  0  0  0  0  0  0  0  0  0  0
    7.0499    3.7313    2.7297 H   0  0  0  0  0  0  0  0  0  0  0  0
    9.0980    2.4202    2.3989 H   0  0  0  0  0  0  0  0  0  0  0  0
    9.0427    0.2919    1.1854 H   0  0  0  0  0  0  0  0  0  0  0  0
    6.8870   -0.0568   -2.0866 H   0  0  0  0  0  0  0  0  0  0  0  0
    6.6251   -1.7405   -2.2806 H   0  0  0  0  0  0  0  0  0  0  0  0
    4.3357    2.1637   -0.9994 H   0  0  0  0  0  0  0  0  0  0  0  0
    2.2286    1.3150   -1.8767 H   0  0  0  0  0  0  0  0  0  0  0  0
   -1.4022   -3.0343   -2.8375 H   0  0  0  0  0  0  0  0  0  0  0  0
   -1.3571   -5.4395   -2.3784 H   0  0  0  0  0  0  0  0  0  0  0  0
   -1.5904   -6.2943   -0.1142 H   0  0  0  0  0  0  0  0  0  0  0  0
   -1.8778   -4.6730    1.7443 H   0  0  0  0  0  0  0  0  0  0  0  0
   -1.9241   -2.2149    1.2762 H   0  0  0  0  0  0  0  0  0  0  0  0
   -5.8087    1.7449   -1.9819 H   0  0  0  0  0  0  0  0  0  0  0  0
  1  2  2  3
  2  3  1  0
  2  4  1  0
  4  5  2  0
  5  6  1  0
  6  7  2  0
  7  8  1  0
  8  9  1  0
  9 10  2  0
  9 11  1  0
 11 12  1  0
 12 13  1  0
 13 14  2  0
 13 15  1  0
 15 16  1  0
 16 17  2  0
 17 18  1  0
 18 19  2  0
 19 20  1  0
 20 21  2  0
 21 22  1  0
 22 23  2  0
 23 24  1  0
 24 25  2  0
 25 26  1  0
 26 27  1  0
 26 28  2  0
 26 29  2  0
 19 30  1  0
 30 31  2  0
 12 32  1  0
 32 33  2  0
 33 34  1  0
 34 35  2  0
 35 36  1  0
 36 37  2  0
  8 38  2  0
 38  4  1  0
 31 16  1  0
 37 32  1  0
 25 20  1  0
  1 39  1  0
  3 40  1  0
  3 41  1  0
  5 42  1  0
  6 43  1  0
  7 44  1  0
 11 45  1  0
 12 46  1  6
 15 47  1  0
 17 48  1  0
 18 49  1  0
 21 50  1  0
 22 51  1  0
 23 52  1  0
 24 53  1  0
 27 54  1  0
 27 55  1  0
 30 56  1  0
 31 57  1  0
 33 58  1  0
 34 59  1  0
 35 60  1  0
 36 61  1  0
 37 62  1  0
 38 63  1  0
M  END
$$$$
