@<TRIPOS>MOLECULE
*****
 63 66 0 0 0
SMALL
GASTEIGER

@<TRIPOS>ATOM
      1 N          -7.6271    3.5872   -2.1859 N.2     1  UNL1       -0.0994
      2 C          -7.9425    3.0386   -1.0685 C.2     1  UNL1        0.3081
      3 N          -9.2621    3.0798   -0.5226 N.pl3   1  UNL1       -0.2466
      4 C          -6.9389    2.3282   -0.2839 C.ar    1  UNL1        0.0654
      5 C          -7.0262    2.2684    1.0950 C.ar    1  UNL1       -0.0469
      6 C          -6.0613    1.5888    1.8062 C.ar    1  UNL1       -0.0602
      7 C          -5.0239    0.9780    1.1454 C.ar    1  UNL1       -0.0496
      8 C          -4.9055    1.0158   -0.2082 C.ar    1  UNL1        0.0375
      9 C          -3.8199    0.3803   -0.9445 C.2     1  UNL1        0.2449
     10 O          -3.7815    0.4631   -2.2045 O.2     1  UNL1       -0.2702
     11 N          -2.7871   -0.3372   -0.3184 N.am    1  UNL1       -0.2963
     12 C          -1.6987   -0.9740   -1.0589 C.3     1  UNL1        0.1255
     13 C          -0.4083   -0.4288   -0.5104 C.2     1  UNL1        0.2421
     14 O          -0.3842    0.4192    0.4189 O.2     1  UNL1       -0.2731
     15 N           0.8476   -0.8548   -1.0256 N.am    1  UNL1       -0.2837
     16 C           2.0765   -0.3516   -0.5207 C.ar    1  UNL1        0.0335
     17 C           2.7282   -0.9653    0.5260 C.ar    1  UNL1       -0.0399
     18 C           3.9150   -0.5055    1.0371 C.ar    1  UNL1       -0.0522
     19 C           4.4891    0.6081    0.4944 C.ar    1  UNL1       -0.0159
     20 C           5.7671    1.1082    0.9930 C.ar    1  UNL1        0.0084
     21 C           5.8455    2.3008    1.6819 C.ar    1  UNL1       -0.0522
     22 C           7.0227    2.7801    2.1874 C.ar    1  UNL1       -0.0611
     23 C           8.1590    2.0263    1.9886 C.ar    1  UNL1       -0.0599
     24 C           8.1097    0.8353    1.3058 C.ar    1  UNL1       -0.0348
     25 C           6.8998    0.3580    0.7942 C.ar    1  UNL1        0.1127
     26 S           6.9602   -1.1280   -0.0762 S.O2    1  UNL1        0.0565
     27 N           6.3703   -0.9024   -1.7124 N.3     1  UNL1       -0.2035
     28 O           6.2355   -2.2654    0.5070 O.2     1  UNL1       -0.1532
     29 O           8.4236   -1.5413   -0.2670 O.2     1  UNL1       -0.1532
     30 C           3.8764    1.2583   -0.5537 C.ar    1  UNL1       -0.0522
     31 C           2.6876    0.7691   -1.0395 C.ar    1  UNL1       -0.0399
     32 C          -1.6688   -2.4464   -0.7960 C.ar    1  UNL1       -0.0184
     33 C          -1.5095   -3.3620   -1.8185 C.ar    1  UNL1       -0.0563
     34 C          -1.4830   -4.7232   -1.5668 C.ar    1  UNL1       -0.0614
     35 C          -1.6146   -5.2182   -0.2853 C.ar    1  UNL1       -0.0617
     36 C          -1.7735   -4.3040    0.7352 C.ar    1  UNL1       -0.0614
     37 C          -1.7997   -2.9486    0.4835 C.ar    1  UNL1       -0.0563
     38 C          -5.8903    1.7068   -0.9039 C.ar    1  UNL1       -0.0348
     39 H          -8.4003    4.0813   -2.6965 H       1  UNL1        0.3633
     40 H          -9.8399    3.9170   -0.7120 H       1  UNL1        0.2884
     41 H          -9.6138    2.2785    0.0477 H       1  UNL1        0.2884
     42 H          -7.8310    2.7405    1.6278 H       1  UNL1        0.0626
     43 H          -6.1243    1.5387    2.8838 H       1  UNL1        0.0618
     44 H          -4.2851    0.4544    1.7299 H       1  UNL1        0.0625
     45 H          -2.7683   -0.4367    0.7064 H       1  UNL1        0.1501
     46 H          -1.7943   -0.8216   -2.1332 H       1  UNL1        0.0646
     47 H           0.8211   -1.5668   -1.8055 H       1  UNL1        0.1549
     48 H           2.2436   -1.8519    0.9356 H       1  UNL1        0.0636
     49 H           4.3559   -1.0426    1.8884 H       1  UNL1        0.0624
     50 H           4.9225    2.8538    1.8099 H       1  UNL1        0.0624
     51 H           7.0499    3.7313    2.7297 H       1  UNL1        0.0618
     52 H           9.0980    2.4202    2.3989 H       1  UNL1        0.0618
     53 H           9.0427    0.2919    1.1854 H       1  UNL1        0.0637
     54 H           6.8870   -0.0568   -2.0866 H       1  UNL1        0.1442
     55 H           6.6251   -1.7405   -2.2806 H       1  UNL1        0.1442
     56 H           4.3357    2.1637   -0.9994 H       1  UNL1        0.0624
     57 H           2.2286    1.3150   -1.8767 H       1  UNL1        0.0636
     58 H          -1.4022   -3.0343   -2.8375 H       1  UNL1        0.0621
     59 H          -1.3571   -5.4395   -2.3784 H       1  UNL1        0.0618
     60 H          -1.5904   -6.2943   -0.1142 H       1  UNL1        0.0618
     61 H          -1.8778   -4.6730    1.7443 H       1  UNL1        0.0618
     62 H          -1.9241   -2.2149    1.2762 H       1  UNL1        0.0621
     63 H          -5.8087    1.7449   -1.9819 H       1  UNL1        0.0633
@<TRIPOS>BOND
     1     1     2    2
     2     2     3    1
     3     2     4    1
     4     4     5   ar
     5     5     6   ar
     6     6     7   ar
     7     7     8   ar
     8     8     9    1
     9     9    10    2
    10     9    11   am
    11    11    12    1
    12    12    13    1
    13    13    14    2
    14    13    15   am
    15    15    16    1
    16    16    17   ar
    17    17    18   ar
    18    18    19   ar
    19    19    20    1
    20    20    21   ar
    21    21    22   ar
    22    22    23   ar
    23    23    24   ar
    24    24    25   ar
    25    25    26    1
    26    26    27    1
    27    26    28    2
    28    26    29    2
    29    19    30   ar
    30    30    31   ar
    31    12    32    1
    32    32    33   ar
    33    33    34   ar
    34    34    35   ar
    35    35    36   ar
    36    36    37   ar
    37     8    38   ar
    38    38     4   ar
    39    31    16   ar
    40    37    32   ar
    41    25    20   ar
    42     1    39    1
    43     3    40    1
    44     3    41    1
    45     5    42    1
    46     6    43    1
    47     7    44    1
    48    11    45    1
    49    12    46    1
    50    15    47    1
    51    17    48    1
    52    18    49    1
    53    21    50    1
    54    22    51    1
    55    23    52    1
    56    24    53    1
    57    27    54    1
    58    27    55    1
    59    30    56    1
    60    31    57    1
    61    33    58    1
    62    34    59    1
    63    35    60    1
    64    36    61    1
    65    37    62    1
    66    38    63    1
