@<TRIPOS>MOLECULE
*****
 44 45 0 0 0
SMALL
GASTEIGER

@<TRIPOS>ATOM
      1 C          -3.3229   -3.7432   -0.4434 C.3     1  UNL1       -0.0526
      2 C          -2.4785   -2.5001   -0.7697 C.3     1  UNL1       -0.0064
      3 N          -1.7746   -2.1688    0.3741 N.3     1  UNL1       -0.3084
      4 C          -0.9066   -1.0941    0.4893 C.3     1  UNL1        0.0498
      5 C           0.1952   -0.9903   -0.5194 C.3     1  UNL1        0.0401
      6 N           1.4079   -0.3707    0.0468 N.3     1  UNL1       -0.1742
      7 C           2.3220   -0.0616   -1.0129 C.3     1  UNL1        0.0227
      8 C           3.7666   -0.3479   -0.7220 C.3     1  UNL1       -0.0150
      9 C           4.3526    0.3813    0.4304 C.3     1  UNL1        0.0485
     10 O           5.6695    0.0275    0.6202 O.3     1  UNL1       -0.3829
     11 C           6.5265    0.2757   -0.4109 C.3     1  UNL1        0.0364
     12 S           1.0474    1.0107    0.9601 S.O2    1  UNL1        0.0675
     13 O           1.3843    0.7784    2.4196 O.2     1  UNL1       -0.1523
     14 O           1.7323    2.2462    0.4834 O.2     1  UNL1       -0.1523
     15 C          -0.6561    1.2868    0.8810 C.ar    1  UNL1        0.1491
     16 C          -1.6087    0.1903    0.6436 C.ar    1  UNL1        0.0063
     17 C          -2.9175    0.5802    0.6170 C.ar    1  UNL1       -0.0214
     18 C          -3.2192    1.9330    0.8096 C.ar    1  UNL1        0.1443
     19 S          -1.6300    2.7351    1.0432 S.2     1  UNL1       -0.0484
     20 S          -4.7581    2.7619    0.8364 S.O2    1  UNL1        0.0623
     21 N          -4.7502    3.9462   -0.4153 N.3     1  UNL1       -0.2030
     22 O          -5.8068    1.7331    0.6671 O.2     1  UNL1       -0.1527
     23 O          -4.9918    3.4553    2.1448 O.2     1  UNL1       -0.1527
     24 H          -4.1007   -3.4716    0.2786 H       1  UNL1        0.0242
     25 H          -2.6379   -4.4419    0.1170 H       1  UNL1        0.0242
     26 H          -3.6493   -4.2818   -1.3324 H       1  UNL1        0.0242
     27 H          -1.9178   -2.7983   -1.6678 H       1  UNL1        0.0421
     28 H          -3.1905   -1.7242   -1.0895 H       1  UNL1        0.0421
     29 H          -2.3653   -2.2933    1.2226 H       1  UNL1        0.1225
     30 H          -0.3537   -1.2338    1.4791 H       1  UNL1        0.0524
     31 H           0.5527   -1.9476   -0.9176 H       1  UNL1        0.0463
     32 H          -0.1015   -0.3302   -1.3684 H       1  UNL1        0.0463
     33 H           2.1767    0.9905   -1.3734 H       1  UNL1        0.0445
     34 H           2.0604   -0.7070   -1.9031 H       1  UNL1        0.0445
     35 H           4.3210   -0.0038   -1.6498 H       1  UNL1        0.0300
     36 H           3.9433   -1.4252   -0.5876 H       1  UNL1        0.0300
     37 H           3.8218    0.1519    1.3934 H       1  UNL1        0.0560
     38 H           4.3434    1.4890    0.3055 H       1  UNL1        0.0560
     39 H           6.5589    1.3654   -0.6947 H       1  UNL1        0.0523
     40 H           6.2367   -0.2812   -1.3131 H       1  UNL1        0.0523
     41 H           7.5688   -0.0632   -0.1791 H       1  UNL1        0.0523
     42 H          -3.7626   -0.0640    0.4646 H       1  UNL1        0.0646
     43 H          -3.7792    4.2144   -0.6909 H       1  UNL1        0.1443
     44 H          -5.3084    4.7912   -0.1159 H       1  UNL1        0.1443
@<TRIPOS>BOND
     1     1     2    1
     2     2     3    1
     3     3     4    1
     4     4     5    1
     5     5     6    1
     6     6     7    1
     7     7     8    1
     8     8     9    1
     9     9    10    1
    10    10    11    1
    11     6    12    1
    12    12    13    2
    13    12    14    2
    14    12    15    1
    15    15    16   ar
    16    16    17   ar
    17    17    18   ar
    18    18    19   ar
    19    18    20    1
    20    20    21    1
    21    20    22    2
    22    20    23    2
    23    16     4    1
    24    19    15   ar
    25     1    24    1
    26     1    25    1
    27     1    26    1
    28     2    27    1
    29     2    28    1
    30     3    29    1
    31     4    30    1
    32     5    31    1
    33     5    32    1
    34     7    33    1
    35     7    34    1
    36     8    35    1
    37     8    36    1
    38     9    37    1
    39     9    38    1
    40    11    39    1
    41    11    40    1
    42    11    41    1
    43    17    42    1
    44    21    43    1
    45    21    44    1
