@<TRIPOS>MOLECULE
*****
 53 52 0 0 0
SMALL
GASTEIGER

@<TRIPOS>ATOM
      1 C           0.1090   -3.0299   -3.5212 C.3     1  UNL1       -0.0651
      2 C          -0.6618   -2.5222   -2.3069 C.3     1  UNL1       -0.0511
      3 C           0.1781   -1.5038   -1.5571 C.3     1  UNL1       -0.0127
      4 C          -0.6128   -1.0311   -0.3747 C.3     1  UNL1       -0.0301
      5 N           0.0805   -0.0277    0.4476 N.4     1  UNL1        0.2433
      6 C           0.4629    1.1010   -0.4177 C.3     1  UNL1       -0.0301
      7 C          -0.7283    1.6040   -1.2262 C.3     1  UNL1       -0.0127
      8 C          -0.2897    2.7784   -2.1128 C.3     1  UNL1       -0.0511
      9 C          -1.4630    3.2895   -2.9227 C.3     1  UNL1       -0.0651
     10 C           1.1516   -0.6056    1.1363 C.3     1  UNL1       -0.0301
     11 C           2.5644   -0.3331    0.8816 C.3     1  UNL1       -0.0127
     12 C           3.1205    1.0284    1.0896 C.3     1  UNL1       -0.0511
     13 C           2.9324    1.5394    2.5048 C.3     1  UNL1       -0.0651
     14 C          -0.9380    0.5586    1.2895 C.3     1  UNL1       -0.0301
     15 C          -1.1198    0.0956    2.6639 C.3     1  UNL1       -0.0127
     16 C          -1.4876   -1.3464    2.8832 C.3     1  UNL1       -0.0511
     17 C          -2.8047   -1.6680    2.2332 C.3     1  UNL1       -0.0651
     18 H          -0.1272   -2.4535   -4.4346 H       1  UNL1        0.0230
     19 H          -0.0028   -4.1109   -3.6509 H       1  UNL1        0.0230
     20 H           1.1964   -2.8600   -3.3116 H       1  UNL1        0.0230
     21 H          -1.5927   -2.0721   -2.6972 H       1  UNL1        0.0264
     22 H          -0.9017   -3.3996   -1.6717 H       1  UNL1        0.0264
     23 H           1.0718   -2.1160   -1.2220 H       1  UNL1        0.0317
     24 H           0.4861   -0.7527   -2.2760 H       1  UNL1        0.0317
     25 H          -0.7436   -1.9185    0.2771 H       1  UNL1        0.0815
     26 H          -1.6004   -0.6938   -0.7157 H       1  UNL1        0.0815
     27 H           0.6588    1.9217    0.3002 H       1  UNL1        0.0815
     28 H           1.3187    0.9355   -1.0392 H       1  UNL1        0.0815
     29 H          -1.1695    0.8824   -1.8983 H       1  UNL1        0.0317
     30 H          -1.5179    2.0360   -0.5796 H       1  UNL1        0.0317
     31 H           0.4288    2.3563   -2.8659 H       1  UNL1        0.0264
     32 H           0.1541    3.5988   -1.5274 H       1  UNL1        0.0264
     33 H          -2.1446    2.4685   -3.2235 H       1  UNL1        0.0230
     34 H          -1.0950    3.7585   -3.8531 H       1  UNL1        0.0230
     35 H          -2.0550    4.0274   -2.3216 H       1  UNL1        0.0230
     36 H           1.0336   -1.7444    1.0054 H       1  UNL1        0.0815
     37 H           0.9897   -0.3918    2.2385 H       1  UNL1        0.0815
     38 H           2.9225   -0.6574   -0.1351 H       1  UNL1        0.0317
     39 H           3.2030   -1.0079    1.5507 H       1  UNL1        0.0317
     40 H           2.9043    1.8165    0.3889 H       1  UNL1        0.0264
     41 H           4.2785    0.9420    1.0141 H       1  UNL1        0.0264
     42 H           3.2694    0.8358    3.2801 H       1  UNL1        0.0230
     43 H           3.6085    2.4342    2.5955 H       1  UNL1        0.0230
     44 H           1.9058    1.9328    2.6551 H       1  UNL1        0.0230
     45 H          -1.9451    0.4350    0.7767 H       1  UNL1        0.0815
     46 H          -0.8522    1.7003    1.3054 H       1  UNL1        0.0815
     47 H          -2.0469    0.6575    3.0600 H       1  UNL1        0.0317
     48 H          -0.3630    0.3759    3.4227 H       1  UNL1        0.0317
     49 H          -0.6754   -2.0561    2.6419 H       1  UNL1        0.0264
     50 H          -1.6209   -1.4549    3.9935 H       1  UNL1        0.0264
     51 H          -3.2481   -0.8236    1.6708 H       1  UNL1        0.0230
     52 H          -3.5549   -1.9894    3.0097 H       1  UNL1        0.0230
     53 H          -2.6669   -2.5395    1.5469 H       1  UNL1        0.0230
@<TRIPOS>UNITY_ATOM_ATTR
5 1
charge 1
@<TRIPOS>BOND
     1     1     2    1
     2     2     3    1
     3     3     4    1
     4     4     5    1
     5     5     6    1
     6     6     7    1
     7     7     8    1
     8     8     9    1
     9     5    10    1
    10    10    11    1
    11    11    12    1
    12    12    13    1
    13     5    14    1
    14    14    15    1
    15    15    16    1
    16    16    17    1
    17     1    18    1
    18     1    19    1
    19     1    20    1
    20     2    21    1
    21     2    22    1
    22     3    23    1
    23     3    24    1
    24     4    25    1
    25     4    26    1
    26     6    27    1
    27     6    28    1
    28     7    29    1
    29     7    30    1
    30     8    31    1
    31     8    32    1
    32     9    33    1
    33     9    34    1
    34     9    35    1
    35    10    36    1
    36    10    37    1
    37    11    38    1
    38    11    39    1
    39    12    40    1
    40    12    41    1
    41    13    42    1
    42    13    43    1
    43    13    44    1
    44    14    45    1
    45    14    46    1
    46    15    47    1
    47    15    48    1
    48    16    49    1
    49    16    50    1
    50    17    51    1
    51    17    52    1
    52    17    53    1
