
     RDKit          3D

 61 63  0  0  0  0  0  0  0  0999 V2000
   -4.4661    6.1407   -1.8580 C   0  0  0  0  0  0  0  0  0  0  0  0
   -3.9642    4.7328   -1.8995 C   0  0  0  0  0  0  0  0  0  0  0  0
   -2.7325    4.6227   -1.2139 O   0  0  0  0  0  0  0  0  0  0  0  0
   -2.1048    3.3900   -1.1441 C   0  0  0  0  0  0  0  0  0  0  0  0
   -2.7020    2.4155   -1.7200 O   0  0  0  0  0  0  0  0  0  0  0  0
   -0.8711    3.1564   -0.4876 N   0  0  0  0  0  0  0  0  0  0  0  0
   -0.2288    1.8577   -0.4257 C   0  0  0  0  0  0  0  0  0  0  0  0
    1.0563    1.9667   -1.1642 C   0  0  0  0  0  0  0  0  0  0  0  0
    1.8863    0.7786   -1.2410 C   0  0  0  0  0  0  0  0  0  0  0  0
    1.6771   -0.1281   -2.2570 C   0  0  0  0  0  0  0  0  0  0  0  0
    2.4582   -1.2640   -2.3652 C   0  0  0  0  0  0  0  0  0  0  0  0
    3.4643   -1.5260   -1.4683 C   0  0  0  0  0  0  0  0  0  0  0  0
    4.2698   -2.6884   -1.5724 N   0  0  0  0  0  0  0  0  0  0  0  0
    4.8003   -3.0188   -2.6967 C   0  0  0  0  0  0  0  0  0  0  0  0
    5.6135   -4.1669   -2.8637 N   0  0  0  0  0  0  0  0  0  0  0  0
    4.5637   -2.1934   -3.8326 N   0  0  0  0  0  0  0  0  0  0  0  0
    3.6877   -0.6307   -0.4465 C   0  0  0  0  0  0  0  0  0  0  0  0
    2.8933    0.5054   -0.3527 C   0  0  0  0  0  0  0  0  0  0  0  0
   -0.1183    1.2855    1.2644 P   0  0  0  0  0  5  0  0  0  0  0  0
    0.5476    2.3658    2.0893 O   0  0  0  0  0  0  0  0  0  0  0  0
   -1.6545    1.0152    1.9588 O   0  0  0  0  0  0  0  0  0  0  0  0
   -2.3415   -0.1787    1.8687 C   0  0  0  0  0  0  0  0  0  0  0  0
   -2.1170   -1.1322    0.9204 C   0  0  0  0  0  0  0  0  0  0  0  0
   -2.8584   -2.2953    0.9145 C   0  0  0  0  0  0  0  0  0  0  0  0
   -3.8453   -2.5494    1.8487 C   0  0  0  0  0  0  0  0  0  0  0  0
   -4.0786   -1.5866    2.8136 C   0  0  0  0  0  0  0  0  0  0  0  0
   -3.3229   -0.4158    2.8086 C   0  0  0  0  0  0  0  0  0  0  0  0
    0.8738   -0.1111    1.3921 O   0  0  0  0  0  0  0  0  0  0  0  0
    0.6954   -1.0677    2.3791 C   0  0  0  0  0  0  0  0  0  0  0  0
    1.1432   -2.3400    2.0889 C   0  0  0  0  0  0  0  0  0  0  0  0
    1.0092   -3.3643    3.0122 C   0  0  0  0  0  0  0  0  0  0  0  0
    0.4227   -3.1308    4.2458 C   0  0  0  0  0  0  0  0  0  0  0  0
   -0.0134   -1.8513    4.5046 C   0  0  0  0  0  0  0  0  0  0  0  0
    0.1216   -0.8376    3.5847 C   0  0  0  0  0  0  0  0  0  0  0  0
   -4.0766    6.7527   -2.7073 H   0  0  0  0  0  0  0  0  0  0  0  0
   -4.1260    6.6159   -0.9323 H   0  0  0  0  0  0  0  0  0  0  0  0
   -5.5691    6.1907   -1.9025 H   0  0  0  0  0  0  0  0  0  0  0  0
   -4.6975    3.9797   -1.5395 H   0  0  0  0  0  0  0  0  0  0  0  0
   -3.7254    4.5118   -2.9771 H   0  0  0  0  0  0  0  0  0  0  0  0
   -0.3940    3.9533   -0.0224 H   0  0  0  0  0  0  0  0  0  0  0  0
   -0.9402    1.1582   -0.9589 H   0  0  0  0  0  0  0  0  0  0  0  0
    0.7854    2.2562   -2.2240 H   0  0  0  0  0  0  0  0  0  0  0  0
    1.6629    2.8540   -0.8165 H   0  0  0  0  0  0  0  0  0  0  0  0
    0.8895    0.0356   -2.9926 H   0  0  0  0  0  0  0  0  0  0  0  0
    2.2963   -1.9858   -3.1654 H   0  0  0  0  0  0  0  0  0  0  0  0
    6.5560   -4.0998   -3.3058 H   0  0  0  0  0  0  0  0  0  0  0  0
    5.3007   -5.1199   -2.5521 H   0  0  0  0  0  0  0  0  0  0  0  0
    4.6802   -1.1693   -3.7130 H   0  0  0  0  0  0  0  0  0  0  0  0
    4.2867   -2.6727   -4.7142 H   0  0  0  0  0  0  0  0  0  0  0  0
    4.4775   -0.8447    0.2507 H   0  0  0  0  0  0  0  0  0  0  0  0
    3.1125    1.1744    0.4660 H   0  0  0  0  0  0  0  0  0  0  0  0
   -1.3608   -0.9611    0.1861 H   0  0  0  0  0  0  0  0  0  0  0  0
   -2.6991   -3.0781    0.1650 H   0  0  0  0  0  0  0  0  0  0  0  0
   -4.4303   -3.4575    1.8520 H   0  0  0  0  0  0  0  0  0  0  0  0
   -4.8393   -1.7075    3.5879 H   0  0  0  0  0  0  0  0  0  0  0  0
   -3.5400    0.3104    3.5829 H   0  0  0  0  0  0  0  0  0  0  0  0
    1.6177   -2.5914    1.1299 H   0  0  0  0  0  0  0  0  0  0  0  0
    1.3553   -4.3803    2.8090 H   0  0  0  0  0  0  0  0  0  0  0  0
    0.3193   -3.9340    4.9660 H   0  0  0  0  0  0  0  0  0  0  0  0
   -0.4721   -1.6931    5.4857 H   0  0  0  0  0  0  0  0  0  0  0  0
   -0.2344    0.1465    3.8328 H   0  0  0  0  0  0  0  0  0  0  0  0
  1  2  1  0
  2  3  1  0
  3  4  1  0
  4  5  2  0
  4  6  1  0
  6  7  1  0
  7  8  1  0
  8  9  1  0
  9 10  2  0
 10 11  1  0
 11 12  2  0
 12 13  1  0
 13 14  2  3
 14 15  1  0
 14 16  1  0
 12 17  1  0
 17 18  2  0
  7 19  1  0
 19 20  2  0
 19 21  1  0
 21 22  1  0
 22 23  2  0
 23 24  1  0
 24 25  2  0
 25 26  1  0
 26 27  2  0
 19 28  1  0
 28 29  1  0
 29 30  2  0
 30 31  1  0
 31 32  2  0
 32 33  1  0
 33 34  2  0
 18  9  1  0
 27 22  1  0
 34 29  1  0
  1 35  1  0
  1 36  1  0
  1 37  1  0
  2 38  1  0
  2 39  1  0
  6 40  1  0
  7 41  1  0
  8 42  1  0
  8 43  1  0
 10 44  1  0
 11 45  1  0
 15 46  1  0
 15 47  1  0
 16 48  1  0
 16 49  1  0
 17 50  1  0
 18 51  1  0
 23 52  1  0
 24 53  1  0
 25 54  1  0
 26 55  1  0
 27 56  1  0
 30 57  1  0
 31 58  1  0
 32 59  1  0
 33 60  1  0
 34 61  1  0
M  END
$$$$
