@<TRIPOS>MOLECULE
*****
 61 63 0 0 0
SMALL
GASTEIGER

@<TRIPOS>ATOM
      1 C          -4.4661    6.1407   -1.8580 C.3     1  UNL1       -0.0305
      2 C          -3.9642    4.7328   -1.8995 C.3     1  UNL1        0.0912
      3 O          -2.7325    4.6227   -1.2139 O.3     1  UNL1       -0.4507
      4 C          -2.1048    3.3900   -1.1441 C.2     1  UNL1        0.4010
      5 O          -2.7020    2.4155   -1.7200 O.2     1  UNL1       -0.2265
      6 N          -0.8711    3.1564   -0.4876 N.am    1  UNL1       -0.2648
      7 C          -0.2288    1.8577   -0.4257 C.3     1  UNL1        0.1544
      8 C           1.0563    1.9667   -1.1642 C.3     1  UNL1        0.0044
      9 C           1.8863    0.7786   -1.2410 C.ar    1  UNL1       -0.0447
     10 C           1.6771   -0.1281   -2.2570 C.ar    1  UNL1       -0.0551
     11 C           2.4582   -1.2640   -2.3652 C.ar    1  UNL1       -0.0194
     12 C           3.4643   -1.5260   -1.4683 C.ar    1  UNL1        0.1420
     13 N           4.2698   -2.6884   -1.5724 N.pl3   1  UNL1       -0.0734
     14 C           4.8003   -3.0188   -2.6967 C.cat   1  UNL1        0.3821
     15 N           5.6135   -4.1669   -2.8637 N.pl3   1  UNL1       -0.2889
     16 N           4.5637   -2.1934   -3.8326 N.pl3   1  UNL1       -0.2889
     17 C           3.6877   -0.6307   -0.4465 C.ar    1  UNL1       -0.0194
     18 C           2.8933    0.5054   -0.3527 C.ar    1  UNL1       -0.0551
     19 P          -0.1183    1.2855    1.2644 P.3     1  UNL1        0.4540
     20 O           0.5476    2.3658    2.0893 O.2     1  UNL1       -0.2304
     21 O          -1.6545    1.0152    1.9588 O.3     1  UNL1       -0.4144
     22 C          -2.3415   -0.1787    1.8687 C.ar    1  UNL1        0.1309
     23 C          -2.1170   -1.1322    0.9204 C.ar    1  UNL1       -0.0194
     24 C          -2.8584   -2.2953    0.9145 C.ar    1  UNL1       -0.0583
     25 C          -3.8453   -2.5494    1.8487 C.ar    1  UNL1       -0.0615
     26 C          -4.0786   -1.5866    2.8136 C.ar    1  UNL1       -0.0583
     27 C          -3.3229   -0.4158    2.8086 C.ar    1  UNL1       -0.0194
     28 O           0.8738   -0.1111    1.3921 O.3     1  UNL1       -0.4144
     29 C           0.6954   -1.0677    2.3791 C.ar    1  UNL1        0.1309
     30 C           1.1432   -2.3400    2.0889 C.ar    1  UNL1       -0.0194
     31 C           1.0092   -3.3643    3.0122 C.ar    1  UNL1       -0.0583
     32 C           0.4227   -3.1308    4.2458 C.ar    1  UNL1       -0.0615
     33 C          -0.0134   -1.8513    4.5046 C.ar    1  UNL1       -0.0583
     34 C           0.1216   -0.8376    3.5847 C.ar    1  UNL1       -0.0194
     35 H          -4.0766    6.7527   -2.7073 H       1  UNL1        0.0262
     36 H          -4.1260    6.6159   -0.9323 H       1  UNL1        0.0262
     37 H          -5.5691    6.1907   -1.9025 H       1  UNL1        0.0262
     38 H          -4.6975    3.9797   -1.5395 H       1  UNL1        0.0695
     39 H          -3.7254    4.5118   -2.9771 H       1  UNL1        0.0695
     40 H          -0.3940    3.9533   -0.0224 H       1  UNL1        0.1530
     41 H          -0.9402    1.1582   -0.9589 H       1  UNL1        0.0652
     42 H           0.7854    2.2562   -2.2240 H       1  UNL1        0.0338
     43 H           1.6629    2.8540   -0.8165 H       1  UNL1        0.0338
     44 H           0.8895    0.0356   -2.9926 H       1  UNL1        0.0621
     45 H           2.2963   -1.9858   -3.1654 H       1  UNL1        0.0653
     46 H           6.5560   -4.0998   -3.3058 H       1  UNL1        0.2547
     47 H           5.3007   -5.1199   -2.5521 H       1  UNL1        0.2547
     48 H           4.6802   -1.1693   -3.7130 H       1  UNL1        0.2547
     49 H           4.2867   -2.6727   -4.7142 H       1  UNL1        0.2547
     50 H           4.4775   -0.8447    0.2507 H       1  UNL1        0.0653
     51 H           3.1125    1.1744    0.4660 H       1  UNL1        0.0621
     52 H          -1.3608   -0.9611    0.1861 H       1  UNL1        0.0654
     53 H          -2.6991   -3.0781    0.1650 H       1  UNL1        0.0619
     54 H          -4.4303   -3.4575    1.8520 H       1  UNL1        0.0618
     55 H          -4.8393   -1.7075    3.5879 H       1  UNL1        0.0619
     56 H          -3.5400    0.3104    3.5829 H       1  UNL1        0.0654
     57 H           1.6177   -2.5914    1.1299 H       1  UNL1        0.0654
     58 H           1.3553   -4.3803    2.8090 H       1  UNL1        0.0619
     59 H           0.3193   -3.9340    4.9660 H       1  UNL1        0.0618
     60 H          -0.4721   -1.6931    5.4857 H       1  UNL1        0.0619
     61 H          -0.2344    0.1465    3.8328 H       1  UNL1        0.0654
@<TRIPOS>BOND
     1     1     2    1
     2     2     3    1
     3     3     4    1
     4     4     5    2
     5     4     6   am
     6     6     7    1
     7     7     8    1
     8     8     9    1
     9     9    10   ar
    10    10    11   ar
    11    11    12   ar
    12    12    13    1
    13    13    14    2
    14    14    15    1
    15    14    16    1
    16    12    17   ar
    17    17    18   ar
    18     7    19    1
    19    19    20    2
    20    19    21    1
    21    21    22    1
    22    22    23   ar
    23    23    24   ar
    24    24    25   ar
    25    25    26   ar
    26    26    27   ar
    27    19    28    1
    28    28    29    1
    29    29    30   ar
    30    30    31   ar
    31    31    32   ar
    32    32    33   ar
    33    33    34   ar
    34    18     9   ar
    35    27    22   ar
    36    34    29   ar
    37     1    35    1
    38     1    36    1
    39     1    37    1
    40     2    38    1
    41     2    39    1
    42     6    40    1
    43     7    41    1
    44     8    42    1
    45     8    43    1
    46    10    44    1
    47    11    45    1
    48    15    46    1
    49    15    47    1
    50    16    48    1
    51    16    49    1
    52    17    50    1
    53    18    51    1
    54    23    52    1
    55    24    53    1
    56    25    54    1
    57    26    55    1
    58    27    56    1
    59    30    57    1
    60    31    58    1
    61    32    59    1
    62    33    60    1
    63    34    61    1
