@<TRIPOS>MOLECULE
*****
 51 53 0 0 0
SMALL
GASTEIGER

@<TRIPOS>ATOM
      1 C           7.1045   -0.0650    0.1995 C.3     1  UNL1        0.0365
      2 O           5.7152   -0.1350    0.3340 O.3     1  UNL1       -0.3814
      3 C           5.0948    0.7257   -0.5915 C.3     1  UNL1        0.0645
      4 C           3.5882    0.5614   -0.3478 C.3     1  UNL1        0.0552
      5 C           3.3537    0.8751    1.1033 C.3     1  UNL1       -0.0323
      6 C           2.9923   -0.4201    1.7523 C.3     1  UNL1       -0.0370
      7 C           2.9596   -1.4443    0.6507 C.3     1  UNL1        0.0209
      8 N           3.2691   -0.8037   -0.5771 N.3     1  UNL1       -0.1713
      9 S           2.1961   -1.1018   -1.8526 S.O2    1  UNL1        0.0612
     10 O           2.7561   -0.4642   -3.1046 O.2     1  UNL1       -0.1528
     11 O           2.1957   -2.5981   -2.1235 O.2     1  UNL1       -0.1528
     12 C           0.5731   -0.5691   -1.5561 C.ar    1  UNL1        0.1063
     13 C          -0.3398   -1.4334   -0.9622 C.ar    1  UNL1       -0.0335
     14 C          -1.6319   -1.0782   -0.7008 C.ar    1  UNL1       -0.0377
     15 C          -2.0266    0.2014   -1.0505 C.ar    1  UNL1        0.0477
     16 C          -1.1551    1.0911   -1.6412 C.ar    1  UNL1        0.0502
     17 C           0.1503    0.6925   -1.8907 C.ar    1  UNL1       -0.0226
     18 C          -1.8731    2.3460   -1.8838 C.2     1  UNL1        0.2496
     19 O          -1.3716    3.3722   -2.4123 O.2     1  UNL1       -0.2817
     20 C          -3.2228    2.1482   -1.4020 C.2     1  UNL1        0.2913
     21 O          -4.1370    3.0227   -1.4455 O.2     1  UNL1       -0.2661
     22 N          -3.2961    0.8185   -0.8920 N.am    1  UNL1       -0.2640
     23 C          -4.4823    0.2362   -0.3186 C.3     1  UNL1        0.0226
     24 C          -4.5484    0.4824    1.1803 C.3     1  UNL1       -0.0082
     25 C          -5.7860   -0.1239    1.7846 C.3     1  UNL1        0.0848
     26 O          -6.9507    0.3960    1.2400 O.3     1  UNL1       -0.3892
     27 C          -5.8263   -1.6153    1.6187 C.3     1  UNL1        0.1160
     28 F          -4.6963   -2.1254    2.2619 F       1  UNL1       -0.2464
     29 H           7.3415   -0.3749   -0.8377 H       1  UNL1        0.0523
     30 H           7.4124    0.9703    0.4306 H       1  UNL1        0.0523
     31 H           7.5198   -0.8042    0.9289 H       1  UNL1        0.0523
     32 H           5.2922    0.2999   -1.5858 H       1  UNL1        0.0576
     33 H           5.4142    1.7695   -0.4715 H       1  UNL1        0.0576
     34 H           3.0251    1.2827   -0.9869 H       1  UNL1        0.0502
     35 H           2.5493    1.6506    1.2397 H       1  UNL1        0.0282
     36 H           4.2491    1.2962    1.6122 H       1  UNL1        0.0282
     37 H           1.9885   -0.3810    2.2383 H       1  UNL1        0.0279
     38 H           3.7023   -0.7004    2.5746 H       1  UNL1        0.0279
     39 H           3.7785   -2.1797    0.8727 H       1  UNL1        0.0444
     40 H           2.0263   -2.0420    0.6468 H       1  UNL1        0.0444
     41 H           0.0125   -2.4225   -0.7062 H       1  UNL1        0.0638
     42 H          -2.3168   -1.7805   -0.2355 H       1  UNL1        0.0637
     43 H           0.8184    1.3924   -2.3500 H       1  UNL1        0.0645
     44 H          -5.3662    0.6675   -0.8251 H       1  UNL1        0.0469
     45 H          -4.4644   -0.8654   -0.5059 H       1  UNL1        0.0469
     46 H          -3.6625    0.0537    1.6520 H       1  UNL1        0.0306
     47 H          -4.5500    1.5820    1.3133 H       1  UNL1        0.0306
     48 H          -5.7882    0.1287    2.8606 H       1  UNL1        0.0619
     49 H          -7.0138    1.3732    1.3738 H       1  UNL1        0.2099
     50 H          -6.7059   -1.9980    2.1828 H       1  UNL1        0.0641
     51 H          -5.8671   -1.9101    0.5624 H       1  UNL1        0.0641
@<TRIPOS>BOND
     1     1     2    1
     2     2     3    1
     3     3     4    1
     4     4     5    1
     5     5     6    1
     6     6     7    1
     7     7     8    1
     8     8     9    1
     9     9    10    2
    10     9    11    2
    11     9    12    1
    12    12    13   ar
    13    13    14   ar
    14    14    15   ar
    15    15    16   ar
    16    16    17   ar
    17    16    18    1
    18    18    19    2
    19    18    20    1
    20    20    21    2
    21    20    22   am
    22    22    23    1
    23    23    24    1
    24    24    25    1
    25    25    26    1
    26    25    27    1
    27    27    28    1
    28     8     4    1
    29    17    12   ar
    30    22    15    1
    31     1    29    1
    32     1    30    1
    33     1    31    1
    34     3    32    1
    35     3    33    1
    36     4    34    1
    37     5    35    1
    38     5    36    1
    39     6    37    1
    40     6    38    1
    41     7    39    1
    42     7    40    1
    43    13    41    1
    44    14    42    1
    45    17    43    1
    46    23    44    1
    47    23    45    1
    48    24    46    1
    49    24    47    1
    50    25    48    1
    51    26    49    1
    52    27    50    1
    53    27    51    1
