@<TRIPOS>MOLECULE
*****
 54 57 0 0 0
SMALL
GASTEIGER

@<TRIPOS>ATOM
      1 C          -5.5157    2.1014   -0.3098 C.3     1  UNL1       -0.0288
      2 C          -4.8641    0.8392    0.1672 C.3     1  UNL1        0.1831
      3 C          -5.7751    0.0647    1.0456 C.3     1  UNL1       -0.0288
      4 C          -3.5736    1.2236    0.8039 C.2     1  UNL1        0.3067
      5 N          -3.3796    2.5807    1.2538 N.pl3   1  UNL1       -0.2488
      6 N          -2.6781    0.3751    0.9464 N.2     1  UNL1       -0.0727
      7 C          -2.5525   -0.9877    0.6327 C.3     1  UNL1        0.1959
      8 C          -2.8633   -1.8330    1.8459 C.3     1  UNL1       -0.0112
      9 C          -1.1418   -1.2550    0.2445 C.ar    1  UNL1        0.0420
     10 C          -0.2253   -0.2293    0.1582 C.ar    1  UNL1       -0.0301
     11 C           1.0795   -0.4115   -0.2416 C.ar    1  UNL1        0.0330
     12 N           1.9234    0.7259   -0.3188 N.pl3   1  UNL1       -0.2977
     13 C           3.1220    0.6187   -1.0810 C.ar    1  UNL1        0.1506
     14 N           3.0127    0.5397   -2.4228 N.ar    1  UNL1       -0.2379
     15 C           4.0970    0.4455   -3.2006 C.ar    1  UNL1        0.0318
     16 C           5.3452    0.4302   -2.6080 C.ar    1  UNL1       -0.0159
     17 C           5.4776    0.5095   -1.2441 C.ar    1  UNL1        0.0946
     18 N           6.6889    0.5001   -0.6831 N.ar    1  UNL1       -0.2395
     19 C           6.8705    0.5827    0.6532 C.ar    1  UNL1        0.1622
     20 C           8.2550    0.5693    1.1746 C.3     1  UNL1        0.4357
     21 F           8.8711   -0.5737    0.7020 F       1  UNL1       -0.1644
     22 F           8.1705    0.5673    2.5588 F       1  UNL1       -0.1644
     23 F           8.9345    1.6832    0.7050 F       1  UNL1       -0.1644
     24 C           5.7405    0.6778    1.4206 C.ar    1  UNL1        0.0584
     25 N           4.5217    0.6876    0.8668 N.ar    1  UNL1       -0.2479
     26 C           4.3307    0.6068   -0.4506 C.ar    1  UNL1        0.1290
     27 C           1.4970   -1.6755   -0.5703 C.ar    1  UNL1       -0.0378
     28 C           0.5979   -2.7366   -0.4946 C.ar    1  UNL1       -0.0243
     29 C          -0.7137   -2.5182   -0.0891 C.ar    1  UNL1        0.1311
     30 F          -1.5572   -3.5942   -0.0317 F       1  UNL1       -0.2050
     31 C          -3.3845   -1.4618   -0.5373 C.3     1  UNL1        0.1183
     32 S          -4.3731   -0.1777   -1.2353 S.O2    1  UNL1       -0.0101
     33 O          -3.4952    0.6522   -2.1493 O.2     1  UNL1       -0.1731
     34 O          -5.5943   -0.6604   -1.9287 O.2     1  UNL1       -0.1731
     35 H          -4.8971    2.6044   -1.0618 H       1  UNL1        0.0256
     36 H          -5.5098    2.8018    0.5770 H       1  UNL1        0.0256
     37 H          -6.5648    1.9409   -0.5907 H       1  UNL1        0.0256
     38 H          -6.7825    0.5002    1.0133 H       1  UNL1        0.0256
     39 H          -5.8938   -0.9900    0.6841 H       1  UNL1        0.0256
     40 H          -5.3804    0.1174    2.0751 H       1  UNL1        0.0256
     41 H          -3.3713    3.2914    0.4590 H       1  UNL1        0.2881
     42 H          -3.2631    2.8514    2.2399 H       1  UNL1        0.2881
     43 H          -3.0543   -1.1793    2.7479 H       1  UNL1        0.0279
     44 H          -2.0843   -2.5424    2.1302 H       1  UNL1        0.0279
     45 H          -3.8040   -2.4246    1.6728 H       1  UNL1        0.0279
     46 H          -0.5350    0.7950    0.4177 H       1  UNL1        0.0641
     47 H           1.6662    1.6057    0.1724 H       1  UNL1        0.1536
     48 H           3.9914    0.3800   -4.2812 H       1  UNL1        0.0831
     49 H           6.2101    0.3508   -3.2731 H       1  UNL1        0.0655
     50 H           5.8454    0.7439    2.4899 H       1  UNL1        0.0851
     51 H           2.5258   -1.8144   -0.8801 H       1  UNL1        0.0637
     52 H           0.9402   -3.7272   -0.7546 H       1  UNL1        0.0647
     53 H          -2.7939   -1.9124   -1.3520 H       1  UNL1        0.0550
     54 H          -4.0938   -2.2591   -0.1793 H       1  UNL1        0.0550
@<TRIPOS>BOND
     1     1     2    1
     2     2     3    1
     3     2     4    1
     4     4     5    1
     5     4     6    2
     6     6     7    1
     7     7     8    1
     8     7     9    1
     9     9    10   ar
    10    10    11   ar
    11    11    12    1
    12    12    13    1
    13    13    14   ar
    14    14    15   ar
    15    15    16   ar
    16    16    17   ar
    17    17    18   ar
    18    18    19   ar
    19    19    20    1
    20    20    21    1
    21    20    22    1
    22    20    23    1
    23    19    24   ar
    24    24    25   ar
    25    25    26   ar
    26    11    27   ar
    27    27    28   ar
    28    28    29   ar
    29    29    30    1
    30     7    31    1
    31    31    32    1
    32    32    33    2
    33    32    34    2
    34    32     2    1
    35    29     9   ar
    36    26    13   ar
    37    26    17   ar
    38     1    35    1
    39     1    36    1
    40     1    37    1
    41     3    38    1
    42     3    39    1
    43     3    40    1
    44     5    41    1
    45     5    42    1
    46     8    43    1
    47     8    44    1
    48     8    45    1
    49    10    46    1
    50    12    47    1
    51    15    48    1
    52    16    49    1
    53    24    50    1
    54    27    51    1
    55    28    52    1
    56    31    53    1
    57    31    54    1
