@<TRIPOS>MOLECULE
*****
 73 78 0 0 0
SMALL
GASTEIGER

@<TRIPOS>ATOM
      1 C          -5.7415    7.4664   -1.0072 C.3     1  UNL1       -0.0151
      2 N          -5.5446    6.1123   -0.6309 N.3     1  UNL1       -0.3089
      3 C          -4.2822    5.5636   -1.0913 C.3     1  UNL1        0.0820
      4 C          -3.1344    6.4680   -0.6348 C.3     1  UNL1       -0.0411
      5 C          -4.0265    4.2045   -0.4902 C.2     1  UNL1        0.2350
      6 O          -4.8145    3.7271    0.3591 O.2     1  UNL1       -0.2737
      7 N          -2.8794    3.5349   -0.9447 N.am    1  UNL1       -0.2691
      8 C          -2.5215    2.2012   -0.4592 C.ar    1  UNL1        0.1263
      9 C          -3.2802    1.4698    0.2154 C.ar    1  UNL1       -0.0208
     10 C          -2.9115    0.1522    0.8105 C.ar    1  UNL1       -0.0466
     11 C          -1.5624   -0.0935    0.4383 C.ar    1  UNL1        0.0349
     12 C          -1.0567   -1.4458    0.8405 C.ar    1  UNL1        0.0837
     13 C          -1.2536   -2.5449    0.0428 C.ar    1  UNL1        0.1006
     14 C          -1.9192   -2.8303   -1.1975 C.ar    1  UNL1        0.0387
     15 C          -2.1354   -3.9771   -1.7325 C.ar    1  UNL1        0.0403
     16 N          -2.6089   -4.6687   -2.7750 N.ar    1  UNL1       -0.2399
     17 C          -3.1028   -3.3918   -3.7411 C.ar    1  UNL1        0.1259
     18 C          -3.6337   -4.0261   -4.9511 C.3     1  UNL1       -0.0046
     19 N          -2.8622   -2.4223   -3.1521 N.ar    1  UNL1       -0.2399
     20 C          -2.3945   -1.7638   -2.1029 C.ar    1  UNL1        0.0403
     21 N          -0.6292   -3.5484    0.7512 N.ar    1  UNL1       -0.2271
     22 C          -0.1020   -3.0976    1.9004 C.ar    1  UNL1        0.1390
     23 C           0.5770   -3.7178    2.8932 C.ar    1  UNL1       -0.0158
     24 C           1.0270   -3.0292    4.0257 C.ar    1  UNL1       -0.0456
     25 C           1.7252   -3.7810    5.1113 C.3     1  UNL1       -0.0395
     26 C           0.7489   -1.6917    4.0734 C.ar    1  UNL1       -0.0421
     27 C           0.0387   -1.0846    3.0067 C.ar    1  UNL1        0.0120
     28 N          -0.3806   -1.7707    1.9398 N.ar    1  UNL1       -0.2986
     29 C          -0.8385    0.6795   -0.2425 C.ar    1  UNL1        0.1250
     30 C           0.5725    0.4781   -0.2706 C.1     1  UNL1       -0.0404
     31 C           1.8944    0.3128   -0.2952 C.1     1  UNL1       -0.0595
     32 C           3.4944    0.1310   -0.3231 C.ar    1  UNL1        0.0259
     33 C           3.8735   -0.2784   -1.5069 C.ar    1  UNL1       -0.0457
     34 C           5.1821   -0.8998   -1.4861 C.ar    1  UNL1       -0.0512
     35 C           5.8042   -0.9513   -0.2533 C.ar    1  UNL1        0.0032
     36 C           7.0642   -1.6174   -0.2142 C.ar    1  UNL1        0.0459
     37 C           7.7242   -2.1557   -1.4029 C.3     1  UNL1       -0.0218
     38 N           7.6645   -1.7190    0.9715 N.ar    1  UNL1       -0.2595
     39 C           7.1789   -1.2377    2.1343 C.ar    1  UNL1        0.0285
     40 C           5.9402   -0.5731    2.1416 C.ar    1  UNL1       -0.0358
     41 C           5.3265   -0.4765    0.9458 C.ar    1  UNL1       -0.0136
     42 C           3.9818    0.1515    0.8724 C.ar    1  UNL1       -0.0385
     43 N          -1.1743    1.9513   -0.8199 N.ar    1  UNL1       -0.2229
     44 H          -5.0659    7.7685   -1.8395 H       1  UNL1        0.0388
     45 H          -6.7688    7.6426   -1.4201 H       1  UNL1        0.0388
     46 H          -5.5537    8.1628   -0.1652 H       1  UNL1        0.0388
     47 H          -6.2967    5.5231   -1.1464 H       1  UNL1        0.1223
     48 H          -4.2339    5.5525   -2.1667 H       1  UNL1        0.0554
     49 H          -3.1890    7.4227   -1.1536 H       1  UNL1        0.0249
     50 H          -2.1773    5.9270   -0.8869 H       1  UNL1        0.0249
     51 H          -3.1476    6.5908    0.4840 H       1  UNL1        0.0249
     52 H          -2.2846    4.0033   -1.6539 H       1  UNL1        0.1563
     53 H          -4.3505    1.6418    0.4657 H       1  UNL1        0.0652
     54 H          -3.4866   -0.4290    1.3449 H       1  UNL1        0.0626
     55 H          -1.7088   -4.8873   -0.9987 H       1  UNL1        0.0837
     56 H          -2.8325   -4.3465   -5.6805 H       1  UNL1        0.0308
     57 H          -4.2932   -3.2535   -5.4726 H       1  UNL1        0.0308
     58 H          -4.2360   -4.9030   -4.7124 H       1  UNL1        0.0308
     59 H          -2.3192   -0.8135   -1.8218 H       1  UNL1        0.0837
     60 H           0.8195   -4.7900    2.8710 H       1  UNL1        0.0657
     61 H           2.0304   -4.7953    4.7091 H       1  UNL1        0.0278
     62 H           2.4958   -3.2597    5.6346 H       1  UNL1        0.0278
     63 H           0.9149   -4.0663    5.8468 H       1  UNL1        0.0278
     64 H           1.0365   -1.0872    4.8964 H       1  UNL1        0.0635
     65 H          -0.1568   -0.0293    3.0849 H       1  UNL1        0.0813
     66 H           3.3687   -0.2261   -2.4529 H       1  UNL1        0.0630
     67 H           5.6176   -1.2869   -2.3789 H       1  UNL1        0.0625
     68 H           8.8433   -2.0310   -1.2291 H       1  UNL1        0.0293
     69 H           7.5616   -3.2966   -1.4747 H       1  UNL1        0.0293
     70 H           7.5470   -1.5986   -2.3347 H       1  UNL1        0.0293
     71 H           7.7007   -1.3689    3.0420 H       1  UNL1        0.0830
     72 H           5.5050   -0.1378    3.0522 H       1  UNL1        0.0639
     73 H           3.6326    0.5615    1.8084 H       1  UNL1        0.0636
@<TRIPOS>BOND
     1     1     2    1
     2     2     3    1
     3     3     4    1
     4     3     5    1
     5     5     6    2
     6     5     7   am
     7     7     8    1
     8     8     9   ar
     9     9    10   ar
    10    10    11   ar
    11    11    12    1
    12    12    13   ar
    13    13    14    1
    14    14    15   ar
    15    15    16   ar
    16    16    17   ar
    17    17    18    1
    18    17    19   ar
    19    19    20   ar
    20    13    21   ar
    21    21    22   ar
    22    22    23   ar
    23    23    24   ar
    24    24    25    1
    25    24    26   ar
    26    26    27   ar
    27    27    28   ar
    28    11    29   ar
    29    29    30    1
    30    30    31    3
    31    31    32    1
    32    32    33   ar
    33    33    34   ar
    34    34    35   ar
    35    35    36   ar
    36    36    37    1
    37    36    38   ar
    38    38    39   ar
    39    39    40   ar
    40    40    41   ar
    41    41    42   ar
    42    29    43   ar
    43    43     8   ar
    44    28    12   ar
    45    42    32   ar
    46    20    14   ar
    47    28    22   ar
    48    41    35   ar
    49     1    44    1
    50     1    45    1
    51     1    46    1
    52     2    47    1
    53     3    48    1
    54     4    49    1
    55     4    50    1
    56     4    51    1
    57     7    52    1
    58     9    53    1
    59    10    54    1
    60    15    55    1
    61    18    56    1
    62    18    57    1
    63    18    58    1
    64    20    59    1
    65    23    60    1
    66    25    61    1
    67    25    62    1
    68    25    63    1
    69    26    64    1
    70    27    65    1
    71    33    66    1
    72    34    67    1
    73    37    68    1
    74    37    69    1
    75    37    70    1
    76    39    71    1
    77    40    72    1
    78    42    73    1
