
     RDKit          3D

 73 78  0  0  0  0  0  0  0  0999 V2000
   -5.7415    7.4664   -1.0072 C   0  0  0  0  0  0  0  0  0  0  0  0
   -5.5446    6.1123   -0.6309 N   0  0  0  0  0  0  0  0  0  0  0  0
   -4.2822    5.5636   -1.0913 C   0  0  1  0  0  0  0  0  0  0  0  0
   -3.1344    6.4680   -0.6348 C   0  0  0  0  0  0  0  0  0  0  0  0
   -4.0265    4.2045   -0.4902 C   0  0  0  0  0  0  0  0  0  0  0  0
   -4.8145    3.7271    0.3591 O   0  0  0  0  0  0  0  0  0  0  0  0
   -2.8794    3.5349   -0.9447 N   0  0  0  0  0  0  0  0  0  0  0  0
   -2.5215    2.2012   -0.4592 C   0  0  0  0  0  0  0  0  0  0  0  0
   -3.2802    1.4698    0.2154 C   0  0  0  0  0  0  0  0  0  0  0  0
   -2.9115    0.1522    0.8105 C   0  0  0  0  0  0  0  0  0  0  0  0
   -1.5624   -0.0935    0.4383 C   0  0  0  0  0  0  0  0  0  0  0  0
   -1.0567   -1.4458    0.8405 C   0  0  0  0  0  0  0  0  0  0  0  0
   -1.2536   -2.5449    0.0428 C   0  0  0  0  0  0  0  0  0  0  0  0
   -1.9192   -2.8303   -1.1975 C   0  0  0  0  0  0  0  0  0  0  0  0
   -2.1354   -3.9771   -1.7325 C   0  0  0  0  0  0  0  0  0  0  0  0
   -2.6089   -4.6687   -2.7750 N   0  0  0  0  0  0  0  0  0  0  0  0
   -3.1028   -3.3918   -3.7411 C   0  0  0  0  0  0  0  0  0  0  0  0
   -3.6337   -4.0261   -4.9511 C   0  0  0  0  0  0  0  0  0  0  0  0
   -2.8622   -2.4223   -3.1521 N   0  0  0  0  0  0  0  0  0  0  0  0
   -2.3945   -1.7638   -2.1029 C   0  0  0  0  0  0  0  0  0  0  0  0
   -0.6292   -3.5484    0.7512 N   0  0  0  0  0  0  0  0  0  0  0  0
   -0.1020   -3.0976    1.9004 C   0  0  0  0  0  0  0  0  0  0  0  0
    0.5770   -3.7178    2.8932 C   0  0  0  0  0  0  0  0  0  0  0  0
    1.0270   -3.0292    4.0257 C   0  0  0  0  0  0  0  0  0  0  0  0
    1.7252   -3.7810    5.1113 C   0  0  0  0  0  0  0  0  0  0  0  0
    0.7489   -1.6917    4.0734 C   0  0  0  0  0  0  0  0  0  0  0  0
    0.0387   -1.0846    3.0067 C   0  0  0  0  0  0  0  0  0  0  0  0
   -0.3806   -1.7707    1.9398 N   0  0  0  0  0  0  0  0  0  0  0  0
   -0.8385    0.6795   -0.2425 C   0  0  0  0  0  0  0  0  0  0  0  0
    0.5725    0.4781   -0.2706 C   0  0  0  0  0  0  0  0  0  0  0  0
    1.8944    0.3128   -0.2952 C   0  0  0  0  0  0  0  0  0  0  0  0
    3.4944    0.1310   -0.3231 C   0  0  0  0  0  0  0  0  0  0  0  0
    3.8735   -0.2784   -1.5069 C   0  0  0  0  0  0  0  0  0  0  0  0
    5.1821   -0.8998   -1.4861 C   0  0  0  0  0  0  0  0  0  0  0  0
    5.8042   -0.9513   -0.2533 C   0  0  0  0  0  0  0  0  0  0  0  0
    7.0642   -1.6174   -0.2142 C   0  0  0  0  0  0  0  0  0  0  0  0
    7.7242   -2.1557   -1.4029 C   0  0  0  0  0  0  0  0  0  0  0  0
    7.6645   -1.7190    0.9715 N   0  0  0  0  0  0  0  0  0  0  0  0
    7.1789   -1.2377    2.1343 C   0  0  0  0  0  0  0  0  0  0  0  0
    5.9402   -0.5731    2.1416 C   0  0  0  0  0  0  0  0  0  0  0  0
    5.3265   -0.4765    0.9458 C   0  0  0  0  0  0  0  0  0  0  0  0
    3.9818    0.1515    0.8724 C   0  0  0  0  0  0  0  0  0  0  0  0
   -1.1743    1.9513   -0.8199 N   0  0  0  0  0  0  0  0  0  0  0  0
   -5.0659    7.7685   -1.8395 H   0  0  0  0  0  0  0  0  0  0  0  0
   -6.7688    7.6426   -1.4201 H   0  0  0  0  0  0  0  0  0  0  0  0
   -5.5537    8.1628   -0.1652 H   0  0  0  0  0  0  0  0  0  0  0  0
   -6.2967    5.5231   -1.1464 H   0  0  0  0  0  0  0  0  0  0  0  0
   -4.2339    5.5525   -2.1667 H   0  0  0  0  0  0  0  0  0  0  0  0
   -3.1890    7.4227   -1.1536 H   0  0  0  0  0  0  0  0  0  0  0  0
   -2.1773    5.9270   -0.8869 H   0  0  0  0  0  0  0  0  0  0  0  0
   -3.1476    6.5908    0.4840 H   0  0  0  0  0  0  0  0  0  0  0  0
   -2.2846    4.0033   -1.6539 H   0  0  0  0  0  0  0  0  0  0  0  0
   -4.3505    1.6418    0.4657 H   0  0  0  0  0  0  0  0  0  0  0  0
   -3.4866   -0.4290    1.3449 H   0  0  0  0  0  0  0  0  0  0  0  0
   -1.7088   -4.8873   -0.9987 H   0  0  0  0  0  0  0  0  0  0  0  0
   -2.8325   -4.3465   -5.6805 H   0  0  0  0  0  0  0  0  0  0  0  0
   -4.2932   -3.2535   -5.4726 H   0  0  0  0  0  0  0  0  0  0  0  0
   -4.2360   -4.9030   -4.7124 H   0  0  0  0  0  0  0  0  0  0  0  0
   -2.3192   -0.8135   -1.8218 H   0  0  0  0  0  0  0  0  0  0  0  0
    0.8195   -4.7900    2.8710 H   0  0  0  0  0  0  0  0  0  0  0  0
    2.0304   -4.7953    4.7091 H   0  0  0  0  0  0  0  0  0  0  0  0
    2.4958   -3.2597    5.6346 H   0  0  0  0  0  0  0  0  0  0  0  0
    0.9149   -4.0663    5.8468 H   0  0  0  0  0  0  0  0  0  0  0  0
    1.0365   -1.0872    4.8964 H   0  0  0  0  0  0  0  0  0  0  0  0
   -0.1568   -0.0293    3.0849 H   0  0  0  0  0  0  0  0  0  0  0  0
    3.3687   -0.2261   -2.4529 H   0  0  0  0  0  0  0  0  0  0  0  0
    5.6176   -1.2869   -2.3789 H   0  0  0  0  0  0  0  0  0  0  0  0
    8.8433   -2.0310   -1.2291 H   0  0  0  0  0  0  0  0  0  0  0  0
    7.5616   -3.2966   -1.4747 H   0  0  0  0  0  0  0  0  0  0  0  0
    7.5470   -1.5986   -2.3347 H   0  0  0  0  0  0  0  0  0  0  0  0
    7.7007   -1.3689    3.0420 H   0  0  0  0  0  0  0  0  0  0  0  0
    5.5050   -0.1378    3.0522 H   0  0  0  0  0  0  0  0  0  0  0  0
    3.6326    0.5615    1.8084 H   0  0  0  0  0  0  0  0  0  0  0  0
  1  2  1  0
  2  3  1  0
  3  4  1  0
  3  5  1  0
  5  6  2  0
  5  7  1  0
  7  8  1  0
  8  9  2  0
  9 10  1  0
 10 11  2  0
 11 12  1  0
 12 13  2  0
 13 14  1  0
 14 15  2  0
 15 16  1  0
 16 17  2  0
 17 18  1  0
 17 19  1  0
 19 20  2  0
 13 21  1  0
 21 22  2  0
 22 23  1  0
 23 24  2  0
 24 25  1  0
 24 26  1  0
 26 27  2  0
 27 28  1  0
 11 29  1  0
 29 30  1  0
 30 31  3  0
 31 32  1  0
 32 33  2  0
 33 34  1  0
 34 35  2  0
 35 36  1  0
 36 37  1  0
 36 38  2  0
 38 39  1  0
 39 40  2  0
 40 41  1  0
 41 42  2  0
 29 43  2  0
 43  8  1  0
 28 12  1  0
 42 32  1  0
 20 14  1  0
 28 22  1  0
 41 35  1  0
  1 44  1  0
  1 45  1  0
  1 46  1  0
  2 47  1  0
  3 48  1  6
  4 49  1  0
  4 50  1  0
  4 51  1  0
  7 52  1  0
  9 53  1  0
 10 54  1  0
 15 55  1  0
 18 56  1  0
 18 57  1  0
 18 58  1  0
 20 59  1  0
 23 60  1  0
 25 61  1  0
 25 62  1  0
 25 63  1  0
 26 64  1  0
 27 65  1  0
 33 66  1  0
 34 67  1  0
 37 68  1  0
 37 69  1  0
 37 70  1  0
 39 71  1  0
 40 72  1  0
 42 73  1  0
M  END
$$$$
