@<TRIPOS>MOLECULE
*****
 123 124 0 0 0
SMALL
GASTEIGER

@<TRIPOS>ATOM
      1 C          10.5473   -1.8973    0.5689 C.3     1  UNK1       -0.0524
      2 C           9.5015   -2.9663    0.3255 C.3     1  UNK1       -0.0040
      3 N           8.8175   -3.2896    1.5754 N.3     1  UNK1       -0.3028
      4 C           9.7974   -3.9519    2.4096 C.3     1  UNK1       -0.0040
      5 C           9.2148   -4.3284    3.7367 C.3     1  UNK1       -0.0524
      6 C           7.7016   -4.1952    1.3180 C.3     1  UNK1       -0.0011
      7 C           6.6196   -3.5357    0.5336 C.3     1  UNK1       -0.0401
      8 C           6.0788   -2.3056    1.2591 C.3     1  UNK1       -0.0498
      9 C           5.0617   -1.6362    0.4217 C.3     1  UNK1       -0.0259
     10 C           4.4552   -0.3777    1.0369 C.3     1  UNK1        0.0994
     11 N           3.4830    0.1723    0.0867 N.am    1  UNK1       -0.3025
     12 C           2.0995    0.3902    0.4359 C.2     1  UNK1        0.2340
     13 O           1.7798    0.0810    1.6238 O.2     1  UNK1       -0.2738
     14 C           1.1924    0.9327   -0.5676 C.3     1  UNK1        0.0996
     15 C           1.7707    2.0955   -1.3664 C.3     1  UNK1       -0.0236
     16 C           2.1671    3.2717   -0.5476 C.3     1  UNK1       -0.0446
     17 C           2.7238    4.3088   -1.5476 C.3     1  UNK1       -0.0626
     18 C           1.0784    3.9732    0.1894 C.3     1  UNK1       -0.0626
     19 N          -0.1573    1.1996   -0.1843 N.am    1  UNK1       -0.3025
     20 C          -1.2726    0.5085   -0.7277 C.2     1  UNK1        0.2337
     21 O          -1.1191   -0.4133   -1.5469 O.2     1  UNK1       -0.2738
     22 C          -2.6720    0.8798   -0.3336 C.3     1  UNK1        0.0966
     23 C          -2.8601    1.1699    1.0975 C.3     1  UNK1       -0.0381
     24 N          -3.6509    0.0199   -0.9072 N.am    1  UNK1       -0.3027
     25 C          -3.8323   -0.2051   -2.3200 C.2     1  UNK1        0.2343
     26 O          -3.0520    0.3908   -3.1015 O.2     1  UNK1       -0.2738
     27 C          -4.9010   -1.1120   -2.7438 C.3     1  UNK1        0.1036
     28 C          -5.4886   -0.9561   -4.0790 C.3     1  UNK1       -0.0006
     29 C          -6.1615    0.2947   -4.4141 C.ar    1  UNK1       -0.0451
     30 C          -7.5046    0.4393   -4.0984 C.ar    1  UNK1       -0.0585
     31 C          -8.1615    1.5852   -4.4409 C.ar    1  UNK1       -0.0615
     32 C          -7.5431    2.6208   -5.0957 C.ar    1  UNK1       -0.0617
     33 C          -6.2006    2.4607   -5.4036 C.ar    1  UNK1       -0.0615
     34 C          -5.5229    1.3092   -5.0633 C.ar    1  UNK1       -0.0585
     35 N          -5.9431   -1.2338   -1.7632 N.am    1  UNK1       -0.2997
     36 C          -6.3659   -2.2983   -0.9891 C.2     0  UNK0        0.2447
     37 O          -5.7833   -3.3954   -1.1114 O.2     0  UNK0       -0.2702
     38 C          -7.5013   -2.1093   -0.0382 C.ar    0  UNK0        0.0367
     39 C          -8.2109   -3.1857    0.4464 C.ar    0  UNK0       -0.0494
     40 C          -9.2711   -3.0207    1.3303 C.ar    0  UNK0       -0.0574
     41 C          -9.6578   -1.7698    1.7623 C.ar    0  UNK0       -0.0419
     42 C         -10.8120   -1.5732    2.6901 C.3     0  UNK0       -0.0127
     43 C         -12.0715   -1.2892    1.8821 C.3     0  UNK0       -0.0560
     44 C         -10.5578   -0.4243    3.5982 C.3     0  UNK0       -0.0560
     45 C         -11.0710   -2.8285    3.4958 C.3     0  UNK0       -0.0560
     46 C          -8.9462   -0.6925    1.2786 C.ar    0  UNK0       -0.0574
     47 C          -7.8736   -0.8545    0.3832 C.ar    0  UNK0       -0.0494
     48 C           5.5669    0.6074    1.2039 C.2     1  UNK1        0.2340
     49 O           6.4373    0.4403    2.1088 O.2     1  UNK1       -0.2738
     50 N           5.7306    1.7573    0.3945 N.am    2  UNK2       -0.2991
     51 C           6.7991    2.6960    0.5678 C.3     2  UNK2        0.1437
     52 C           7.8685    2.5079   -0.5173 C.3     2  UNK2        0.0730
     53 O           7.3193    2.6944   -1.7726 O.3     2  UNK2       -0.3926
     54 C           6.3767    4.0949    0.6447 C.2     2  UNK2        0.3297
     55 O           5.2030    4.5254    0.5606 O.2     2  UNK2       -0.2487
     56 O           7.3579    5.0836    0.8274 O.3     2  UNK2       -0.4666
     57 C           7.0526    6.4599    0.8998 C.3     2  UNK2        0.0817
     58 H          11.5171   -2.3038    0.2291 H       1  UNK1        0.0242
     59 H          10.5956   -1.5583    1.6137 H       1  UNK1        0.0242
     60 H          10.3361   -0.9779   -0.0654 H       1  UNK1        0.0242
     61 H           8.7683   -2.5474   -0.4044 H       1  UNK1        0.0424
     62 H           9.9202   -3.8895   -0.1154 H       1  UNK1        0.0424
     63 H          10.1328   -4.8636    1.8568 H       1  UNK1        0.0424
     64 H          10.7169   -3.3576    2.5611 H       1  UNK1        0.0424
     65 H          10.0207   -4.3269    4.5157 H       1  UNK1        0.0242
     66 H           8.4431   -3.6204    4.0935 H       1  UNK1        0.0242
     67 H           8.8408   -5.3858    3.7280 H       1  UNK1        0.0242
     68 H           7.3220   -4.6193    2.2527 H       1  UNK1        0.0426
     69 H           8.1576   -5.0306    0.7068 H       1  UNK1        0.0426
     70 H           6.9042   -3.2377   -0.4833 H       1  UNK1        0.0278
     71 H           5.7874   -4.2769    0.4417 H       1  UNK1        0.0278
     72 H           5.5916   -2.6428    2.2046 H       1  UNK1        0.0266
     73 H           6.9568   -1.6876    1.5153 H       1  UNK1        0.0266
     74 H           5.5413   -1.3695   -0.5691 H       1  UNK1        0.0288
     75 H           4.2643   -2.3750    0.1611 H       1  UNK1        0.0288
     76 H           4.0063   -0.5931    2.0124 H       1  UNK1        0.0594
     77 H           3.7788    0.4288   -0.8818 H       1  UNK1        0.1495
     78 H           1.1085    0.1076   -1.3627 H       1  UNK1        0.0594
     79 H           0.9618    2.4094   -2.0565 H       1  UNK1        0.0290
     80 H           2.6209    1.7219   -1.9246 H       1  UNK1        0.0290
     81 H           3.0342    3.0336    0.1308 H       1  UNK1        0.0296
     82 H           3.5966    3.8917   -2.0842 H       1  UNK1        0.0232
     83 H           1.8916    4.4212   -2.2939 H       1  UNK1        0.0232
     84 H           2.9451    5.2586   -1.0169 H       1  UNK1        0.0232
     85 H           1.4127    5.0558    0.3089 H       1  UNK1        0.0232
     86 H           0.9404    3.6414    1.2428 H       1  UNK1        0.0232
     87 H           0.1780    4.0093   -0.4164 H       1  UNK1        0.0232
     88 H          -0.4289    1.9286    0.5454 H       1  UNK1        0.1495
     89 H          -2.7903    1.8675   -0.9237 H       1  UNK1        0.0592
     90 H          -2.8239    2.2554    1.3084 H       1  UNK1        0.0252
     91 H          -2.1597    0.5773    1.7495 H       1  UNK1        0.0252
     92 H          -3.9224    0.8788    1.3533 H       1  UNK1        0.0252
     93 H          -4.3197   -0.5036   -0.2721 H       1  UNK1        0.1495
     94 H          -4.4113   -2.1521   -2.7490 H       1  UNK1        0.0598
     95 H          -6.2648   -1.7712   -4.2007 H       1  UNK1        0.0336
     96 H          -4.7176   -1.2046   -4.8548 H       1  UNK1        0.0336
     97 H          -8.0071   -0.3678   -3.5820 H       1  UNK1        0.0620
     98 H          -9.2187    1.7382   -4.2100 H       1  UNK1        0.0618
     99 H          -8.0295    3.5388   -5.3861 H       1  UNK1        0.0618
    100 H          -5.6241    3.2312   -5.9291 H       1  UNK1        0.0618
    101 H          -4.4876    1.2200   -5.3149 H       1  UNK1        0.0620
    102 H          -6.4893   -0.3136   -1.6336 H       1  UNK1        0.1498
    103 H          -7.9282   -4.1787    0.1206 H       0  UNK0        0.0625
    104 H          -9.8450   -3.8486    1.7221 H       0  UNK0        0.0621
    105 H         -11.8268   -0.5239    1.1152 H       0  UNK0        0.0238
    106 H         -12.3101   -2.2243    1.3316 H       0  UNK0        0.0238
    107 H         -12.8767   -0.9755    2.5836 H       0  UNK0        0.0238
    108 H         -11.3689   -0.4245    4.3870 H       0  UNK0        0.0238
    109 H          -9.5712   -0.4802    4.1062 H       0  UNK0        0.0238
    110 H         -10.6168    0.5438    3.0915 H       0  UNK0        0.0238
    111 H         -11.6263   -3.5767    2.8724 H       0  UNK0        0.0238
    112 H         -10.1493   -3.2631    3.9269 H       0  UNK0        0.0238
    113 H         -11.7395   -2.5577    4.3304 H       0  UNK0        0.0238
    114 H          -9.2388    0.2995    1.6061 H       0  UNK0        0.0621
    115 H          -7.3627    0.0383    0.0496 H       0  UNK0        0.0625
    116 H           5.0529    1.9325   -0.3677 H       2  UNK2        0.1496
    117 H           7.3293    2.4073    1.5231 H       2  UNK2        0.0638
    118 H           8.6516    3.2721   -0.3637 H       2  UNK2        0.0581
    119 H           8.3091    1.4940   -0.3680 H       2  UNK2        0.0581
    120 H           7.9610    2.3114   -2.4303 H       2  UNK2        0.2095
    121 H           5.9863    6.5727    1.1997 H       2  UNK2        0.0661
    122 H           7.2184    6.8969   -0.1220 H       2  UNK2        0.0661
    123 H           7.7183    6.9205    1.6515 H       2  UNK2        0.0661
@<TRIPOS>BOND
     1     1     2    1
     2     2     3    1
     3     3     4    1
     4     4     5    1
     5     3     6    1
     6     6     7    1
     7     7     8    1
     8     8     9    1
     9     9    10    1
    10    10    11    1
    11    11    12   am
    12    12    13    2
    13    12    14    1
    14    14    15    1
    15    15    16    1
    16    16    17    1
    17    16    18    1
    18    14    19    1
    19    19    20   am
    20    20    21    2
    21    20    22    1
    22    22    23    1
    23    22    24    1
    24    24    25   am
    25    25    26    2
    26    25    27    1
    27    27    28    1
    28    28    29    1
    29    29    30   ar
    30    30    31   ar
    31    31    32   ar
    32    32    33   ar
    33    33    34   ar
    34    27    35    1
    35    35    36   am
    36    36    37    2
    37    36    38    1
    38    38    39   ar
    39    39    40   ar
    40    40    41   ar
    41    41    42    1
    42    42    43    1
    43    42    44    1
    44    42    45    1
    45    41    46   ar
    46    46    47   ar
    47    10    48    1
    48    48    49    2
    49    48    50   am
    50    50    51    1
    51    51    52    1
    52    52    53    1
    53    51    54    1
    54    54    55    2
    55    54    56    1
    56    56    57    1
    57    34    29   ar
    58    47    38   ar
    59     1    58    1
    60     1    59    1
    61     1    60    1
    62     2    61    1
    63     2    62    1
    64     4    63    1
    65     4    64    1
    66     5    65    1
    67     5    66    1
    68     5    67    1
    69     6    68    1
    70     6    69    1
    71     7    70    1
    72     7    71    1
    73     8    72    1
    74     8    73    1
    75     9    74    1
    76     9    75    1
    77    10    76    1
    78    11    77    1
    79    14    78    1
    80    15    79    1
    81    15    80    1
    82    16    81    1
    83    17    82    1
    84    17    83    1
    85    17    84    1
    86    18    85    1
    87    18    86    1
    88    18    87    1
    89    19    88    1
    90    22    89    1
    91    23    90    1
    92    23    91    1
    93    23    92    1
    94    24    93    1
    95    27    94    1
    96    28    95    1
    97    28    96    1
    98    30    97    1
    99    31    98    1
   100    32    99    1
   101    33   100    1
   102    34   101    1
   103    35   102    1
   104    39   103    1
   105    40   104    1
   106    43   105    1
   107    43   106    1
   108    43   107    1
   109    44   108    1
   110    44   109    1
   111    44   110    1
   112    45   111    1
   113    45   112    1
   114    45   113    1
   115    46   114    1
   116    47   115    1
   117    50   116    1
   118    51   117    1
   119    52   118    1
   120    52   119    1
   121    53   120    1
   122    57   121    1
   123    57   122    1
   124    57   123    1
