@<TRIPOS>MOLECULE
*****
 43 46 0 0 0
SMALL
GASTEIGER

@<TRIPOS>ATOM
      1 C           6.3985   -0.8007    0.4676 C.3     1  UNL1        0.0302
      2 N           4.9572   -0.9737    0.2837 N.ar    1  UNL1       -0.2741
      3 C           4.0478   -0.1592    0.8151 C.ar    1  UNL1        0.0308
      4 C           2.7926   -0.5897    0.4588 C.ar    1  UNL1        0.0185
      5 C           1.5292    0.0477    0.8539 C.3     1  UNL1        0.0869
      6 C           0.9848    0.9903   -0.1541 C.3     1  UNL1       -0.0161
      7 C          -0.3783    0.6221   -0.7163 C.3     1  UNL1        0.0027
      8 C          -0.1153   -0.1253   -1.9721 C.3     1  UNL1        0.0064
      9 S          -1.5669   -1.1054   -2.5307 S.3     1  UNL1       -0.0907
     10 C          -1.9455   -1.9695   -0.9773 C.2     1  UNL1        0.1476
     11 N          -2.4056   -3.3009   -0.9357 N.pl3   1  UNL1       -0.3380
     12 N          -1.7693   -1.3004    0.0537 N.2     1  UNL1       -0.2495
     13 C          -1.3197    0.0447    0.2779 C.3     1  UNL1        0.1185
     14 C          -2.5315    0.8832    0.3347 C.ar    1  UNL1        0.0178
     15 C          -3.7634    0.2893    0.1594 C.ar    1  UNL1       -0.0507
     16 C          -4.9497    1.0013    0.1895 C.ar    1  UNL1       -0.0259
     17 C          -4.9303    2.3630    0.4018 C.ar    1  UNL1        0.1261
     18 F          -6.0864    3.0894    0.4361 F       1  UNL1       -0.2054
     19 C          -3.7332    2.9825    0.5789 C.ar    1  UNL1        0.0091
     20 C          -2.5587    2.2409    0.5435 C.ar    1  UNL1        0.1317
     21 F          -1.4227    2.8853    0.7291 F       1  UNL1       -0.2050
     22 C          -0.5790   -0.0935    1.5815 C.3     1  UNL1        0.0781
     23 O           0.5665   -0.8621    1.2460 O.3     1  UNL1       -0.3691
     24 C           2.9813   -1.7098   -0.3180 C.ar    1  UNL1        0.0550
     25 N           4.3281   -1.9082   -0.3985 N.ar    1  UNL1       -0.1796
     26 H           6.5895   -0.4861    1.5320 H       1  UNL1        0.0473
     27 H           6.9468   -1.7492    0.3250 H       1  UNL1        0.0473
     28 H           6.8004    0.0147   -0.1644 H       1  UNL1        0.0473
     29 H           4.2651    0.7127    1.4356 H       1  UNL1        0.0830
     30 H           1.7499    0.6483    1.7900 H       1  UNL1        0.0647
     31 H           1.7323    0.9863   -1.0119 H       1  UNL1        0.0297
     32 H           1.0371    2.0608    0.1741 H       1  UNL1        0.0297
     33 H          -0.7887    1.6363   -1.0598 H       1  UNL1        0.0337
     34 H           0.1206    0.5869   -2.7793 H       1  UNL1        0.0384
     35 H           0.7149   -0.8555   -1.9002 H       1  UNL1        0.0384
     36 H          -3.1163   -3.6652   -1.5948 H       1  UNL1        0.1442
     37 H          -2.0275   -3.9594   -0.2206 H       1  UNL1        0.1442
     38 H          -3.8791   -0.7893   -0.0152 H       1  UNL1        0.0623
     39 H          -5.9035    0.4919    0.0461 H       1  UNL1        0.0646
     40 H          -3.6869    4.0507    0.7476 H       1  UNL1        0.0675
     41 H          -1.1027   -0.6960    2.3491 H       1  UNL1        0.0588
     42 H          -0.2204    0.7992    2.0477 H       1  UNL1        0.0588
     43 H           2.2380   -2.3279   -0.7827 H       1  UNL1        0.0851
@<TRIPOS>BOND
     1     1     2    1
     2     2     3   ar
     3     3     4   ar
     4     4     5    1
     5     5     6    1
     6     6     7    1
     7     7     8    1
     8     8     9    1
     9     9    10    1
    10    10    11    1
    11    10    12    2
    12    12    13    1
    13    13    14    1
    14    14    15   ar
    15    15    16   ar
    16    16    17   ar
    17    17    18    1
    18    17    19   ar
    19    19    20   ar
    20    20    21    1
    21    13    22    1
    22    22    23    1
    23     4    24   ar
    24    24    25   ar
    25    25     2   ar
    26    23     5    1
    27    13     7    1
    28    20    14   ar
    29     1    26    1
    30     1    27    1
    31     1    28    1
    32     3    29    1
    33     5    30    1
    34     6    31    1
    35     6    32    1
    36     7    33    1
    37     8    34    1
    38     8    35    1
    39    11    36    1
    40    11    37    1
    41    15    38    1
    42    16    39    1
    43    19    40    1
    44    22    41    1
    45    22    42    1
    46    24    43    1
