
     RDKit          3D

 43 46  0  0  0  0  0  0  0  0999 V2000
    6.3985   -0.8007    0.4676 C   0  0  0  0  0  0  0  0  0  0  0  0
    4.9572   -0.9737    0.2837 N   0  0  0  0  0  0  0  0  0  0  0  0
    4.0478   -0.1592    0.8151 C   0  0  0  0  0  0  0  0  0  0  0  0
    2.7926   -0.5897    0.4588 C   0  0  0  0  0  0  0  0  0  0  0  0
    1.5292    0.0477    0.8539 C   0  0  1  0  0  0  0  0  0  0  0  0
    0.9848    0.9903   -0.1541 C   0  0  0  0  0  0  0  0  0  0  0  0
   -0.3783    0.6221   -0.7163 C   0  0  1  0  0  0  0  0  0  0  0  0
   -0.1153   -0.1253   -1.9721 C   0  0  0  0  0  0  0  0  0  0  0  0
   -1.5669   -1.1054   -2.5307 S   0  0  0  0  0  0  0  0  0  0  0  0
   -1.9455   -1.9695   -0.9773 C   0  0  0  0  0  0  0  0  0  0  0  0
   -2.4056   -3.3009   -0.9357 N   0  0  0  0  0  0  0  0  0  0  0  0
   -1.7693   -1.3004    0.0537 N   0  0  0  0  0  0  0  0  0  0  0  0
   -1.3197    0.0447    0.2779 C   0  0  2  0  0  0  0  0  0  0  0  0
   -2.5315    0.8832    0.3347 C   0  0  0  0  0  0  0  0  0  0  0  0
   -3.7634    0.2893    0.1594 C   0  0  0  0  0  0  0  0  0  0  0  0
   -4.9497    1.0013    0.1895 C   0  0  0  0  0  0  0  0  0  0  0  0
   -4.9303    2.3630    0.4018 C   0  0  0  0  0  0  0  0  0  0  0  0
   -6.0864    3.0894    0.4361 F   0  0  0  0  0  0  0  0  0  0  0  0
   -3.7332    2.9825    0.5789 C   0  0  0  0  0  0  0  0  0  0  0  0
   -2.5587    2.2409    0.5435 C   0  0  0  0  0  0  0  0  0  0  0  0
   -1.4227    2.8853    0.7291 F   0  0  0  0  0  0  0  0  0  0  0  0
   -0.5790   -0.0935    1.5815 C   0  0  0  0  0  0  0  0  0  0  0  0
    0.5665   -0.8621    1.2460 O   0  0  0  0  0  0  0  0  0  0  0  0
    2.9813   -1.7098   -0.3180 C   0  0  0  0  0  0  0  0  0  0  0  0
    4.3281   -1.9082   -0.3985 N   0  0  0  0  0  0  0  0  0  0  0  0
    6.5895   -0.4861    1.5320 H   0  0  0  0  0  0  0  0  0  0  0  0
    6.9468   -1.7492    0.3250 H   0  0  0  0  0  0  0  0  0  0  0  0
    6.8004    0.0147   -0.1644 H   0  0  0  0  0  0  0  0  0  0  0  0
    4.2651    0.7127    1.4356 H   0  0  0  0  0  0  0  0  0  0  0  0
    1.7499    0.6483    1.7900 H   0  0  0  0  0  0  0  0  0  0  0  0
    1.7323    0.9863   -1.0119 H   0  0  0  0  0  0  0  0  0  0  0  0
    1.0371    2.0608    0.1741 H   0  0  0  0  0  0  0  0  0  0  0  0
   -0.7887    1.6363   -1.0598 H   0  0  0  0  0  0  0  0  0  0  0  0
    0.1206    0.5869   -2.7793 H   0  0  0  0  0  0  0  0  0  0  0  0
    0.7149   -0.8555   -1.9002 H   0  0  0  0  0  0  0  0  0  0  0  0
   -3.1163   -3.6652   -1.5948 H   0  0  0  0  0  0  0  0  0  0  0  0
   -2.0275   -3.9594   -0.2206 H   0  0  0  0  0  0  0  0  0  0  0  0
   -3.8791   -0.7893   -0.0152 H   0  0  0  0  0  0  0  0  0  0  0  0
   -5.9035    0.4919    0.0461 H   0  0  0  0  0  0  0  0  0  0  0  0
   -3.6869    4.0507    0.7476 H   0  0  0  0  0  0  0  0  0  0  0  0
   -1.1027   -0.6960    2.3491 H   0  0  0  0  0  0  0  0  0  0  0  0
   -0.2204    0.7992    2.0477 H   0  0  0  0  0  0  0  0  0  0  0  0
    2.2380   -2.3279   -0.7827 H   0  0  0  0  0  0  0  0  0  0  0  0
  1  2  1  0
  2  3  1  0
  3  4  2  0
  4  5  1  0
  5  6  1  0
  6  7  1  0
  7  8  1  0
  8  9  1  0
  9 10  1  0
 10 11  1  0
 10 12  2  0
 12 13  1  0
 13 14  1  1
 14 15  2  0
 15 16  1  0
 16 17  2  0
 17 18  1  0
 17 19  1  0
 19 20  2  0
 20 21  1  0
 13 22  1  0
 22 23  1  0
  4 24  1  0
 24 25  2  0
 25  2  1  0
 23  5  1  0
 13  7  1  0
 20 14  1  0
  1 26  1  0
  1 27  1  0
  1 28  1  0
  3 29  1  0
  5 30  1  1
  6 31  1  0
  6 32  1  0
  7 33  1  6
  8 34  1  0
  8 35  1  0
 11 36  1  0
 11 37  1  0
 15 38  1  0
 16 39  1  0
 19 40  1  0
 22 41  1  0
 22 42  1  0
 24 43  1  0
M  END
$$$$
