@<TRIPOS>MOLECULE
*****
 18 17 0 0 0
SMALL
GASTEIGER

@<TRIPOS>ATOM
      1 CA         -0.8243   -0.2430    0.3172 C.3     1  UNL1        0.1142
      2 N          -0.6238    0.8663    1.1962 N.3     1  UNL1       -0.3179
      3 C           0.2666   -0.3964   -0.7097 C.3     1  UNL1        0.0749
      4 P           1.8995   -0.6505   -0.0380 P.3     1  UNL1        0.3298
      5 O           2.0891   -0.0073    1.5100 O.3     1  UNL1       -0.3240
      6 O           3.0538    0.1345   -1.0251 O.3     1  UNL1       -0.3240
      7 O           2.2529   -2.1223   -0.0690 O.2     1  UNL1       -0.2588
      8 C          -2.0908   -0.0478   -0.4767 C.2     1  UNL1        0.3223
      9 O          -2.9341    1.0753   -0.3494 O.3     1  UNL1       -0.4795
     10 OXT        -2.6406   -0.7714   -1.3553 O.2     1  UNL1       -0.2492
     11 HA         -0.9170   -1.1894    0.8659 H       1  UNL1        0.0580
     12 H1         -1.4962    1.4692    1.2232 H       1  UNL1        0.1190
     13 H2         -0.5066    0.5585    2.1930 H       1  UNL1        0.1190
     14 H           0.2809    0.4875   -1.3814 H       1  UNL1        0.0408
     15 H          -0.0160   -1.2816   -1.3441 H       1  UNL1        0.0408
     16 H           2.8465   -0.4650    1.9716 H       1  UNL1        0.2198
     17 H           2.5892    0.9609   -1.3563 H       1  UNL1        0.2198
     18 H          -3.2293    1.6225   -1.1721 H       1  UNL1        0.2951
@<TRIPOS>BOND
     1     1     2    1
     2     1     3    1
     3     3     4    1
     4     4     5    1
     5     4     6    1
     6     4     7    2
     7     1     8    1
     8     8     9    1
     9     8    10    2
    10     1    11    1
    11     2    12    1
    12     2    13    1
    13     3    14    1
    14     3    15    1
    15     5    16    1
    16     6    17    1
    17     9    18    1
