
     RDKit          3D

 18 17  0  0  0  0  0  0  0  0999 V2000
   -0.8243   -0.2430    0.3172 C   0  0  2  0  0  0  0  0  0  0  0  0
   -0.6238    0.8663    1.1962 N   0  0  0  0  0  0  0  0  0  0  0  0
    0.2666   -0.3964   -0.7097 C   0  0  0  0  0  0  0  0  0  0  0  0
    1.8995   -0.6505   -0.0380 P   0  0  0  0  0  0  0  0  0  0  0  0
    2.0891   -0.0073    1.5100 O   0  0  0  0  0  0  0  0  0  0  0  0
    3.0538    0.1345   -1.0251 O   0  0  0  0  0  0  0  0  0  0  0  0
    2.2529   -2.1223   -0.0690 O   0  0  0  0  0  0  0  0  0  0  0  0
   -2.0908   -0.0478   -0.4767 C   0  0  0  0  0  0  0  0  0  0  0  0
   -2.9341    1.0753   -0.3494 O   0  0  0  0  0  0  0  0  0  0  0  0
   -2.6406   -0.7714   -1.3553 O   0  0  0  0  0  0  0  0  0  0  0  0
   -0.9170   -1.1894    0.8659 H   0  0  0  0  0  0  0  0  0  0  0  0
   -1.4962    1.4692    1.2232 H   0  0  0  0  0  0  0  0  0  0  0  0
   -0.5066    0.5585    2.1930 H   0  0  0  0  0  0  0  0  0  0  0  0
    0.2809    0.4875   -1.3814 H   0  0  0  0  0  0  0  0  0  0  0  0
   -0.0160   -1.2816   -1.3441 H   0  0  0  0  0  0  0  0  0  0  0  0
    2.8465   -0.4650    1.9716 H   0  0  0  0  0  0  0  0  0  0  0  0
    2.5892    0.9609   -1.3563 H   0  0  0  0  0  0  0  0  0  0  0  0
   -3.2293    1.6225   -1.1721 H   0  0  0  0  0  0  0  0  0  0  0  0
  1  2  1  0
  1  3  1  0
  3  4  1  0
  4  5  1  0
  4  6  1  0
  4  7  2  0
  1  8  1  0
  8  9  1  0
  8 10  2  0
  1 11  1  1
  2 12  1  0
  2 13  1  0
  3 14  1  0
  3 15  1  0
  5 16  1  0
  6 17  1  0
  9 18  1  0
M  END
$$$$
