
     RDKit          3D

 40 43  0  0  0  0  0  0  0  0999 V2000
    7.3095    1.2111   -0.3010 C   0  0  0  0  0  0  0  0  0  0  0  0
    5.9703    0.6198    0.1502 C   0  0  0  0  0  0  0  0  0  0  0  0
    6.0797   -0.5125    0.9435 N   0  0  0  0  0  0  0  0  0  0  0  0
    4.2824   -0.8677    1.2409 S   0  0  0  0  0  0  0  0  0  0  0  0
    3.7145    0.4515    0.3284 C   0  0  0  0  0  0  0  0  0  0  0  0
    2.2885    0.8558    0.0818 C   0  0  0  0  0  0  0  0  0  0  0  0
    1.7919    2.1002    0.0850 N   0  0  0  0  0  0  0  0  0  0  0  0
    0.4807    2.0471   -0.1760 N   0  0  0  0  0  0  0  0  0  0  0  0
    0.1420    0.7712   -0.3452 C   0  0  0  0  0  0  0  0  0  0  0  0
    1.2751    0.0303   -0.1831 N   0  0  0  0  0  0  0  0  0  0  0  0
    1.2165   -1.4036   -0.3102 C   0  0  0  0  0  0  0  0  0  0  0  0
   -0.0104   -1.9942    0.3696 C   0  0  0  0  0  0  0  0  0  0  0  0
   -1.1462   -1.1056    0.2679 N   0  0  0  0  0  0  0  0  0  0  0  0
   -2.2927   -1.3097    1.0526 C   0  0  0  0  0  0  0  0  0  0  0  0
   -2.3521   -2.2803    1.8669 O   0  0  0  0  0  0  0  0  0  0  0  0
   -3.4448   -0.4220    0.9606 C   0  0  0  0  0  0  0  0  0  0  0  0
   -4.4793   -0.6609    0.0672 C   0  0  0  0  0  0  0  0  0  0  0  0
   -5.5745    0.1767   -0.0250 C   0  0  0  0  0  0  0  0  0  0  0  0
   -5.6559    1.2916    0.7919 C   0  0  0  0  0  0  0  0  0  0  0  0
   -6.7441    2.1191    0.6965 F   0  0  0  0  0  0  0  0  0  0  0  0
   -4.6444    1.5575    1.6906 C   0  0  0  0  0  0  0  0  0  0  0  0
   -4.7354    2.6599    2.4913 F   0  0  0  0  0  0  0  0  0  0  0  0
   -3.5636    0.7042    1.7608 C   0  0  0  0  0  0  0  0  0  0  0  0
   -2.5767    0.9938    2.6613 F   0  0  0  0  0  0  0  0  0  0  0  0
   -1.1129    0.0135   -0.6519 C   0  0  2  0  0  0  0  0  0  0  0  0
   -1.0666   -0.5688   -2.0502 C   0  0  0  0  0  0  0  0  0  0  0  0
    4.7906    1.0302   -0.1071 N   0  0  0  0  0  0  0  0  0  0  0  0
    7.1103    2.2467   -0.6461 H   0  0  0  0  0  0  0  0  0  0  0  0
    7.9959    1.2710    0.5482 H   0  0  0  0  0  0  0  0  0  0  0  0
    7.6940    0.6459   -1.1664 H   0  0  0  0  0  0  0  0  0  0  0  0
    2.0945   -1.8729    0.2019 H   0  0  0  0  0  0  0  0  0  0  0  0
    1.2120   -1.7551   -1.3557 H   0  0  0  0  0  0  0  0  0  0  0  0
   -0.2748   -2.9724   -0.0919 H   0  0  0  0  0  0  0  0  0  0  0  0
    0.1852   -2.1973    1.4419 H   0  0  0  0  0  0  0  0  0  0  0  0
   -4.4366   -1.5331   -0.5862 H   0  0  0  0  0  0  0  0  0  0  0  0
   -6.3885    0.0174   -0.7055 H   0  0  0  0  0  0  0  0  0  0  0  0
   -1.9579    0.6931   -0.5027 H   0  0  0  0  0  0  0  0  0  0  0  0
   -1.9314   -0.1744   -2.6224 H   0  0  0  0  0  0  0  0  0  0  0  0
   -0.1464   -0.2095   -2.5923 H   0  0  0  0  0  0  0  0  0  0  0  0
   -1.0986   -1.6677   -2.0629 H   0  0  0  0  0  0  0  0  0  0  0  0
  1  2  1  0
  2  3  2  0
  3  4  1  0
  4  5  1  0
  5  6  1  0
  6  7  2  0
  7  8  1  0
  8  9  2  0
  9 10  1  0
 10 11  1  0
 11 12  1  0
 12 13  1  0
 13 14  1  0
 14 15  2  0
 14 16  1  0
 16 17  2  0
 17 18  1  0
 18 19  2  0
 19 20  1  0
 19 21  1  0
 21 22  1  0
 21 23  2  0
 23 24  1  0
 13 25  1  0
 25 26  1  0
  5 27  2  0
 27  2  1  0
 10  6  1  0
 23 16  1  0
 25  9  1  0
  1 28  1  0
  1 29  1  0
  1 30  1  0
 11 31  1  0
 11 32  1  0
 12 33  1  0
 12 34  1  0
 17 35  1  0
 18 36  1  0
 25 37  1  6
 26 38  1  0
 26 39  1  0
 26 40  1  0
M  END
$$$$
