@<TRIPOS>MOLECULE
*****
 40 43 0 0 0
SMALL
GASTEIGER

@<TRIPOS>ATOM
      1 C           7.3095    1.2111   -0.3010 C.3     1  UNL1       -0.0039
      2 C           5.9703    0.6198    0.1502 C.ar    1  UNL1        0.1359
      3 N           6.0797   -0.5125    0.9435 N.ar    1  UNL1       -0.1939
      4 S           4.2824   -0.8677    1.2409 S.2     1  UNL1        0.0369
      5 C           3.7145    0.4515    0.3284 C.ar    1  UNL1        0.1652
      6 C           2.2885    0.8558    0.0818 C.ar    1  UNL1        0.1910
      7 N           1.7919    2.1002    0.0850 N.ar    1  UNL1       -0.1269
      8 N           0.4807    2.0471   -0.1760 N.ar    1  UNL1       -0.1320
      9 C           0.1420    0.7712   -0.3452 C.ar    1  UNL1        0.1542
     10 N           1.2751    0.0303   -0.1831 N.ar    1  UNL1       -0.3062
     11 C           1.2165   -1.4036   -0.3102 C.3     1  UNL1        0.0423
     12 C          -0.0104   -1.9942    0.3696 C.3     1  UNL1        0.0338
     13 N          -1.1462   -1.1056    0.2679 N.am    1  UNL1       -0.2859
     14 C          -2.2927   -1.3097    1.0526 C.2     1  UNL1        0.2501
     15 O          -2.3521   -2.2803    1.8669 O.2     1  UNL1       -0.2699
     16 C          -3.4448   -0.4220    0.9606 C.ar    1  UNL1        0.0751
     17 C          -4.4793   -0.6609    0.0672 C.ar    1  UNL1       -0.0440
     18 C          -5.5745    0.1767   -0.0250 C.ar    1  UNL1       -0.0227
     19 C          -5.6559    1.2916    0.7919 C.ar    1  UNL1        0.1613
     20 F          -6.7441    2.1191    0.6965 F       1  UNL1       -0.2024
     21 C          -4.6444    1.5575    1.6906 C.ar    1  UNL1        0.1941
     22 F          -4.7354    2.6599    2.4913 F       1  UNL1       -0.1994
     23 C          -3.5636    0.7042    1.7608 C.ar    1  UNL1        0.1733
     24 F          -2.5767    0.9938    2.6613 F       1  UNL1       -0.2016
     25 C          -1.1129    0.0135   -0.6519 C.3     1  UNL1        0.0834
     26 C          -1.0666   -0.5688   -2.0502 C.3     1  UNL1       -0.0393
     27 N           4.7906    1.0302   -0.1071 N.ar    1  UNL1       -0.2199
     28 H           7.1103    2.2467   -0.6461 H       1  UNL1        0.0308
     29 H           7.9959    1.2710    0.5482 H       1  UNL1        0.0308
     30 H           7.6940    0.6459   -1.1664 H       1  UNL1        0.0308
     31 H           2.0945   -1.8729    0.2019 H       1  UNL1        0.0508
     32 H           1.2120   -1.7551   -1.3557 H       1  UNL1        0.0508
     33 H          -0.2748   -2.9724   -0.0919 H       1  UNL1        0.0482
     34 H           0.1852   -2.1973    1.4419 H       1  UNL1        0.0482
     35 H          -4.4366   -1.5331   -0.5862 H       1  UNL1        0.0627
     36 H          -6.3885    0.0174   -0.7055 H       1  UNL1        0.0647
     37 H          -1.9579    0.6931   -0.5027 H       1  UNL1        0.0579
     38 H          -1.9314   -0.1744   -2.6224 H       1  UNL1        0.0252
     39 H          -0.1464   -0.2095   -2.5923 H       1  UNL1        0.0252
     40 H          -1.0986   -1.6677   -2.0629 H       1  UNL1        0.0252
@<TRIPOS>BOND
     1     1     2    1
     2     2     3   ar
     3     3     4   ar
     4     4     5   ar
     5     5     6    1
     6     6     7   ar
     7     7     8   ar
     8     8     9   ar
     9     9    10   ar
    10    10    11    1
    11    11    12    1
    12    12    13    1
    13    13    14   am
    14    14    15    2
    15    14    16    1
    16    16    17   ar
    17    17    18   ar
    18    18    19   ar
    19    19    20    1
    20    19    21   ar
    21    21    22    1
    22    21    23   ar
    23    23    24    1
    24    13    25    1
    25    25    26    1
    26     5    27   ar
    27    27     2   ar
    28    10     6   ar
    29    23    16   ar
    30    25     9    1
    31     1    28    1
    32     1    29    1
    33     1    30    1
    34    11    31    1
    35    11    32    1
    36    12    33    1
    37    12    34    1
    38    17    35    1
    39    18    36    1
    40    25    37    1
    41    26    38    1
    42    26    39    1
    43    26    40    1
