@<TRIPOS>MOLECULE
*****
 29 29 0 0 0
SMALL
GASTEIGER

@<TRIPOS>ATOM
      1 C           1.9634   -0.1895    0.5446 C.3     1  UNL1        0.0417
      2 C           1.7091   -1.6102    0.1140 C.3     1  UNL1       -0.0533
      3 C           3.3826    0.1838    0.2286 C.3     1  UNL1        0.0015
      4 S           3.7453    0.0605   -1.5352 S.3     1  UNL1       -0.1775
      5 C           0.9839    0.6849   -0.1086 C.2     1  UNL1        0.2198
      6 O           1.3285    1.6279   -0.8973 O.2     1  UNL1       -0.2753
      7 N          -0.4310    0.6681   -0.0093 N.am    1  UNL1       -0.2878
      8 C          -1.1280    1.6769   -0.7863 C.3     1  UNL1        0.0156
      9 C          -2.5218    1.0935   -0.8609 C.3     1  UNL1       -0.0349
     10 C          -2.6800    0.6927    0.6140 C.3     1  UNL1       -0.0225
     11 C          -1.3934   -0.1459    0.7145 C.3     1  UNL1        0.1228
     12 C          -1.7149   -1.4225    0.0421 C.2     1  UNL1        0.3255
     13 O          -2.6309   -2.1876    0.7498 O.3     1  UNL1       -0.4793
     14 O          -1.3695   -2.0104   -1.0253 O.2     1  UNL1       -0.2489
     15 H           1.8585   -0.1293    1.6502 H       1  UNL1        0.0399
     16 H           0.9932   -2.1518    0.7620 H       1  UNL1        0.0237
     17 H           2.6997   -2.1309    0.0855 H       1  UNL1        0.0237
     18 H           1.3461   -1.6139   -0.9296 H       1  UNL1        0.0237
     19 H           3.5695    1.2554    0.5104 H       1  UNL1        0.0381
     20 H           4.0835   -0.4143    0.8245 H       1  UNL1        0.0381
     21 H           4.2222    1.2768   -2.0766 H       1  UNL1        0.1017
     22 H          -1.1981    2.5977   -0.1549 H       1  UNL1        0.0465
     23 H          -0.6938    1.8769   -1.7722 H       1  UNL1        0.0465
     24 H          -2.4859    0.1476   -1.4607 H       1  UNL1        0.0281
     25 H          -3.2764    1.8008   -1.1906 H       1  UNL1        0.0281
     26 H          -3.5752    0.1082    0.7946 H       1  UNL1        0.0289
     27 H          -2.5229    1.5725    1.2351 H       1  UNL1        0.0289
     28 H          -1.1730   -0.3023    1.7641 H       1  UNL1        0.0616
     29 H          -3.0909   -3.0157    0.4318 H       1  UNL1        0.2951
@<TRIPOS>BOND
     1     1     2    1
     2     1     3    1
     3     3     4    1
     4     1     5    1
     5     5     6    2
     6     5     7   am
     7     7     8    1
     8     8     9    1
     9     9    10    1
    10    10    11    1
    11    11    12    1
    12    12    13    1
    13    12    14    2
    14    11     7    1
    15     1    15    1
    16     2    16    1
    17     2    17    1
    18     2    18    1
    19     3    19    1
    20     3    20    1
    21     4    21    1
    22     8    22    1
    23     8    23    1
    24     9    24    1
    25     9    25    1
    26    10    26    1
    27    10    27    1
    28    11    28    1
    29    13    29    1
