
     RDKit          3D

 29 29  0  0  0  0  0  0  0  0999 V2000
    1.9634   -0.1895    0.5446 C   0  0  1  0  0  0  0  0  0  0  0  0
    1.7091   -1.6102    0.1140 C   0  0  0  0  0  0  0  0  0  0  0  0
    3.3826    0.1838    0.2286 C   0  0  0  0  0  0  0  0  0  0  0  0
    3.7453    0.0605   -1.5352 S   0  0  0  0  0  0  0  0  0  0  0  0
    0.9839    0.6849   -0.1086 C   0  0  0  0  0  0  0  0  0  0  0  0
    1.3285    1.6279   -0.8973 O   0  0  0  0  0  0  0  0  0  0  0  0
   -0.4310    0.6681   -0.0093 N   0  0  0  0  0  0  0  0  0  0  0  0
   -1.1280    1.6769   -0.7863 C   0  0  0  0  0  0  0  0  0  0  0  0
   -2.5218    1.0935   -0.8609 C   0  0  0  0  0  0  0  0  0  0  0  0
   -2.6800    0.6927    0.6140 C   0  0  0  0  0  0  0  0  0  0  0  0
   -1.3934   -0.1459    0.7145 C   0  0  1  0  0  0  0  0  0  0  0  0
   -1.7149   -1.4225    0.0421 C   0  0  0  0  0  0  0  0  0  0  0  0
   -2.6309   -2.1876    0.7498 O   0  0  0  0  0  0  0  0  0  0  0  0
   -1.3695   -2.0104   -1.0253 O   0  0  0  0  0  0  0  0  0  0  0  0
    1.8585   -0.1293    1.6502 H   0  0  0  0  0  0  0  0  0  0  0  0
    0.9932   -2.1518    0.7620 H   0  0  0  0  0  0  0  0  0  0  0  0
    2.6997   -2.1309    0.0855 H   0  0  0  0  0  0  0  0  0  0  0  0
    1.3461   -1.6139   -0.9296 H   0  0  0  0  0  0  0  0  0  0  0  0
    3.5695    1.2554    0.5104 H   0  0  0  0  0  0  0  0  0  0  0  0
    4.0835   -0.4143    0.8245 H   0  0  0  0  0  0  0  0  0  0  0  0
    4.2222    1.2768   -2.0766 H   0  0  0  0  0  0  0  0  0  0  0  0
   -1.1981    2.5977   -0.1549 H   0  0  0  0  0  0  0  0  0  0  0  0
   -0.6938    1.8769   -1.7722 H   0  0  0  0  0  0  0  0  0  0  0  0
   -2.4859    0.1476   -1.4607 H   0  0  0  0  0  0  0  0  0  0  0  0
   -3.2764    1.8008   -1.1906 H   0  0  0  0  0  0  0  0  0  0  0  0
   -3.5752    0.1082    0.7946 H   0  0  0  0  0  0  0  0  0  0  0  0
   -2.5229    1.5725    1.2351 H   0  0  0  0  0  0  0  0  0  0  0  0
   -1.1730   -0.3023    1.7641 H   0  0  0  0  0  0  0  0  0  0  0  0
   -3.0909   -3.0157    0.4318 H   0  0  0  0  0  0  0  0  0  0  0  0
  1  2  1  0
  1  3  1  0
  3  4  1  0
  1  5  1  0
  5  6  2  0
  5  7  1  0
  7  8  1  0
  8  9  1  0
  9 10  1  0
 10 11  1  0
 11 12  1  0
 12 13  1  0
 12 14  2  0
 11  7  1  0
  1 15  1  1
  2 16  1  0
  2 17  1  0
  2 18  1  0
  3 19  1  0
  3 20  1  0
  4 21  1  0
  8 22  1  0
  8 23  1  0
  9 24  1  0
  9 25  1  0
 10 26  1  0
 10 27  1  0
 11 28  1  1
 13 29  1  0
M  END
$$$$
