@<TRIPOS>MOLECULE
*****
 54 57 0 0 0
SMALL
GASTEIGER

@<TRIPOS>ATOM
      1 C          -2.2224   -4.9698    1.4132 C.3     1  UNL1        0.0127
      2 C          -1.3718   -3.7546    1.2639 C.2     1  UNL1        0.2169
      3 O          -0.6957   -3.4221    2.3304 O.2     1  UNL1       -0.2756
      4 N          -1.2368   -2.9712    0.1284 N.am    1  UNL1       -0.2685
      5 C          -0.1878   -1.9340    0.0994 C.ar    1  UNL1        0.0415
      6 C           0.9572   -2.1251    0.8358 C.ar    1  UNL1       -0.0394
      7 C           1.9477   -1.1302    0.8200 C.ar    1  UNL1       -0.0523
      8 C           1.7754    0.0060    0.0847 C.ar    1  UNL1       -0.0175
      9 C           2.8277    1.0292    0.0875 C.ar    1  UNL1       -0.0178
     10 C           4.1583    0.6879    0.2193 C.ar    1  UNL1       -0.0533
     11 C           5.1492    1.6347    0.2237 C.ar    1  UNL1       -0.0472
     12 C           4.8465    2.9613    0.0960 C.ar    1  UNL1        0.0589
     13 C           5.9202    3.9759    0.1015 C.2     1  UNL1        0.3368
     14 O           5.5820    5.1809   -0.0196 O.2     1  UNL1       -0.2451
     15 O           7.2419    3.6424    0.2320 O.3     1  UNL1       -0.4771
     16 C           3.5301    3.3185   -0.0360 C.ar    1  UNL1       -0.0472
     17 C           2.5263    2.3578   -0.0402 C.ar    1  UNL1       -0.0533
     18 C           0.6229    0.1502   -0.6315 C.ar    1  UNL1       -0.0473
     19 C          -0.3896   -0.8007   -0.6528 C.ar    1  UNL1       -0.0053
     20 C          -1.5944   -0.6299   -1.4588 C.3     1  UNL1        0.0493
     21 N          -2.0147    0.7263   -1.6078 N.pl3   1  UNL1       -0.3369
     22 C          -2.2813    1.6141   -0.5471 C.ar    1  UNL1        0.0277
     23 C          -2.7116    2.9183   -0.7926 C.ar    1  UNL1       -0.0395
     24 C          -2.9753    3.8193    0.2026 C.ar    1  UNL1       -0.0416
     25 C          -2.8117    3.4315    1.5105 C.ar    1  UNL1        0.0411
     26 CL         -3.1452    4.5750    2.8158 Cl      1  UNL1       -0.0835
     27 C          -2.3903    2.1590    1.7963 C.ar    1  UNL1       -0.0416
     28 C          -2.1264    1.2551    0.7712 C.ar    1  UNL1       -0.0395
     29 C          -2.6871   -1.5631   -1.0484 C.3     1  UNL1       -0.0115
     30 C          -2.0540   -2.9920   -1.0296 C.3     1  UNL1        0.0303
     31 C          -3.0820   -4.0139   -1.2433 C.3     1  UNL1       -0.0460
     32 H          -2.1517   -5.5869    0.5183 H       1  UNL1        0.0323
     33 H          -1.7806   -5.5713    2.2776 H       1  UNL1        0.0323
     34 H          -3.2298   -4.6523    1.7266 H       1  UNL1        0.0323
     35 H           1.1637   -3.0135    1.4207 H       1  UNL1        0.0636
     36 H           2.8632   -1.2527    1.3929 H       1  UNL1        0.0624
     37 H           4.3792   -0.3839    0.3205 H       1  UNL1        0.0624
     38 H           6.1738    1.3337    0.3282 H       1  UNL1        0.0626
     39 H           7.9714    4.2889   -0.0389 H       1  UNL1        0.2954
     40 H           3.2975    4.3673   -0.1364 H       1  UNL1        0.0626
     41 H           1.5260    2.6978   -0.1459 H       1  UNL1        0.0624
     42 H           0.4689    1.0329   -1.2143 H       1  UNL1        0.0628
     43 H          -1.3029   -0.9981   -2.5095 H       1  UNL1        0.0549
     44 H          -2.1426    1.1145   -2.5892 H       1  UNL1        0.1467
     45 H          -2.8477    3.2455   -1.8248 H       1  UNL1        0.0636
     46 H          -3.3074    4.8217   -0.0343 H       1  UNL1        0.0633
     47 H          -2.2614    1.8541    2.8269 H       1  UNL1        0.0633
     48 H          -1.7916    0.2668    1.0537 H       1  UNL1        0.0636
     49 H          -3.5296   -1.5668   -1.7725 H       1  UNL1        0.0304
     50 H          -3.0834   -1.3628   -0.0398 H       1  UNL1        0.0304
     51 H          -1.3965   -2.9657   -1.9544 H       1  UNL1        0.0502
     52 H          -3.7041   -3.6396   -2.1436 H       1  UNL1        0.0248
     53 H          -3.7779   -4.1972   -0.4362 H       1  UNL1        0.0248
     54 H          -2.6437   -4.9692   -1.6200 H       1  UNL1        0.0248
@<TRIPOS>BOND
     1     1     2    1
     2     2     3    2
     3     2     4   am
     4     4     5    1
     5     5     6   ar
     6     6     7   ar
     7     7     8   ar
     8     8     9    1
     9     9    10   ar
    10    10    11   ar
    11    11    12   ar
    12    12    13    1
    13    13    14    2
    14    13    15    1
    15    12    16   ar
    16    16    17   ar
    17     8    18   ar
    18    18    19   ar
    19    19    20    1
    20    20    21    1
    21    21    22    1
    22    22    23   ar
    23    23    24   ar
    24    24    25   ar
    25    25    26    1
    26    25    27   ar
    27    27    28   ar
    28    20    29    1
    29    29    30    1
    30    30    31    1
    31    30     4    1
    32    19     5   ar
    33    28    22   ar
    34    17     9   ar
    35     1    32    1
    36     1    33    1
    37     1    34    1
    38     6    35    1
    39     7    36    1
    40    10    37    1
    41    11    38    1
    42    15    39    1
    43    16    40    1
    44    17    41    1
    45    18    42    1
    46    20    43    1
    47    21    44    1
    48    23    45    1
    49    24    46    1
    50    27    47    1
    51    28    48    1
    52    29    49    1
    53    29    50    1
    54    30    51    1
    55    31    52    1
    56    31    53    1
    57    31    54    1
