
     RDKit          3D

 44 47  0  0  0  0  0  0  0  0999 V2000
   -2.4414   -2.7805    1.5679 C   0  0  0  0  0  0  0  0  0  0  0  0
   -1.3033   -1.9786    1.2266 N   0  0  0  0  0  0  0  0  0  0  0  0
   -0.4762   -2.7070    0.2926 C   0  0  0  0  0  0  0  0  0  0  0  0
   -1.4825   -2.9043   -0.8491 C   0  0  0  0  0  0  0  0  0  0  0  0
   -2.0130   -1.4642   -0.9394 C   0  0  0  0  0  0  0  0  0  0  0  0
   -1.7066   -0.8416    0.3708 C   0  0  0  0  0  0  0  0  0  0  0  0
   -0.5114    0.0901    0.3835 C   0  0  0  0  0  0  0  0  0  0  0  0
   -0.8019    1.4828    0.1105 C   0  0  0  0  0  0  0  0  0  0  0  0
   -1.0174    1.9272   -1.1711 C   0  0  0  0  0  0  0  0  0  0  0  0
   -1.3061    3.2548   -1.4788 C   0  0  0  0  0  0  0  0  0  0  0  0
   -1.3817    4.1789   -0.4520 C   0  0  0  0  0  0  0  0  0  0  0  0
   -1.1677    3.7539    0.8504 C   0  0  0  0  0  0  0  0  0  0  0  0
   -0.8850    2.4399    1.1252 C   0  0  0  0  0  0  0  0  0  0  0  0
    0.6024   -0.5229   -0.4158 C   0  0  0  0  0  0  0  0  0  0  0  0
    1.9073    0.0900   -0.1852 C   0  0  0  0  0  0  0  0  0  0  0  0
    2.5650    0.6904   -1.2377 C   0  0  0  0  0  0  0  0  0  0  0  0
    3.8031    1.2878   -1.0821 C   0  0  0  0  0  0  0  0  0  0  0  0
    4.4299    1.3036    0.1462 C   0  0  0  0  0  0  0  0  0  0  0  0
    3.7948    0.7125    1.2081 C   0  0  0  0  0  0  0  0  0  0  0  0
    2.5614    0.1245    1.0245 C   0  0  0  0  0  0  0  0  0  0  0  0
    0.7324   -2.0022   -0.1816 C   0  0  0  0  0  0  0  0  0  0  0  0
   -2.2540   -3.8698    1.5369 H   0  0  0  0  0  0  0  0  0  0  0  0
   -2.7337   -2.4961    2.6171 H   0  0  0  0  0  0  0  0  0  0  0  0
   -3.3086   -2.4742    0.9307 H   0  0  0  0  0  0  0  0  0  0  0  0
   -0.1765   -3.6994    0.6752 H   0  0  0  0  0  0  0  0  0  0  0  0
   -1.0033   -3.2284   -1.7738 H   0  0  0  0  0  0  0  0  0  0  0  0
   -2.2565   -3.5906   -0.4847 H   0  0  0  0  0  0  0  0  0  0  0  0
   -3.1206   -1.5928   -1.1049 H   0  0  0  0  0  0  0  0  0  0  0  0
   -1.5580   -1.0453   -1.8255 H   0  0  0  0  0  0  0  0  0  0  0  0
   -2.5973   -0.3313    0.8094 H   0  0  0  0  0  0  0  0  0  0  0  0
   -0.1788    0.0506    1.4722 H   0  0  0  0  0  0  0  0  0  0  0  0
   -0.9559    1.2180   -1.9753 H   0  0  0  0  0  0  0  0  0  0  0  0
   -1.4670    3.5504   -2.5038 H   0  0  0  0  0  0  0  0  0  0  0  0
   -1.6033    5.2069   -0.6708 H   0  0  0  0  0  0  0  0  0  0  0  0
   -1.2162    4.4387    1.6837 H   0  0  0  0  0  0  0  0  0  0  0  0
   -0.7235    2.1357    2.1396 H   0  0  0  0  0  0  0  0  0  0  0  0
    0.3407   -0.3913   -1.4832 H   0  0  0  0  0  0  0  0  0  0  0  0
    2.1495    0.7270   -2.2406 H   0  0  0  0  0  0  0  0  0  0  0  0
    4.3247    1.7599   -1.9007 H   0  0  0  0  0  0  0  0  0  0  0  0
    5.4004    1.7683    0.2821 H   0  0  0  0  0  0  0  0  0  0  0  0
    4.3002    0.7309    2.1758 H   0  0  0  0  0  0  0  0  0  0  0  0
    2.0896   -0.3286    1.8693 H   0  0  0  0  0  0  0  0  0  0  0  0
    1.5581   -2.1768    0.5697 H   0  0  0  0  0  0  0  0  0  0  0  0
    1.0877   -2.4970   -1.1122 H   0  0  0  0  0  0  0  0  0  0  0  0
  1  2  1  0
  2  3  1  0
  3  4  1  0
  4  5  1  0
  5  6  1  0
  6  7  1  0
  7  8  1  0
  8  9  2  0
  9 10  1  0
 10 11  2  0
 11 12  1  0
 12 13  2  0
  7 14  1  0
 14 15  1  0
 15 16  2  0
 16 17  1  0
 17 18  2  0
 18 19  1  0
 19 20  2  0
 14 21  1  0
  6  2  1  0
 13  8  1  0
 20 15  1  0
 21  3  1  0
  1 22  1  0
  1 23  1  0
  1 24  1  0
  3 25  1  0
  4 26  1  0
  4 27  1  0
  5 28  1  0
  5 29  1  0
  6 30  1  0
  7 31  1  0
  9 32  1  0
 10 33  1  0
 11 34  1  0
 12 35  1  0
 13 36  1  0
 14 37  1  0
 16 38  1  0
 17 39  1  0
 18 40  1  0
 19 41  1  0
 20 42  1  0
 21 43  1  0
 21 44  1  0
M  END
$$$$
