@<TRIPOS>MOLECULE
*****
 44 47 0 0 0
SMALL
GASTEIGER

@<TRIPOS>ATOM
      1 C          -2.4414   -2.7805    1.5679 C.3     1  UNL1       -0.0122
      2 N          -1.3033   -1.9786    1.2266 N.3     1  UNL1       -0.2989
      3 C          -0.4762   -2.7070    0.2926 C.3     1  UNL1        0.0110
      4 C          -1.4825   -2.9043   -0.8491 C.3     1  UNL1       -0.0359
      5 C          -2.0130   -1.4642   -0.9394 C.3     1  UNL1       -0.0353
      6 C          -1.7066   -0.8416    0.3708 C.3     1  UNL1        0.0178
      7 C          -0.5114    0.0901    0.3835 C.3     1  UNL1        0.0066
      8 C          -0.8019    1.4828    0.1105 C.ar    1  UNL1       -0.0422
      9 C          -1.0174    1.9272   -1.1711 C.ar    1  UNL1       -0.0582
     10 C          -1.3061    3.2548   -1.4788 C.ar    1  UNL1       -0.0615
     11 C          -1.3817    4.1789   -0.4520 C.ar    1  UNL1       -0.0617
     12 C          -1.1677    3.7539    0.8504 C.ar    1  UNL1       -0.0615
     13 C          -0.8850    2.4399    1.1252 C.ar    1  UNL1       -0.0582
     14 C           0.6024   -0.5229   -0.4158 C.3     1  UNL1       -0.0062
     15 C           1.9073    0.0900   -0.1852 C.ar    1  UNL1       -0.0436
     16 C           2.5650    0.6904   -1.2377 C.ar    1  UNL1       -0.0583
     17 C           3.8031    1.2878   -1.0821 C.ar    1  UNL1       -0.0615
     18 C           4.4299    1.3036    0.1462 C.ar    1  UNL1       -0.0617
     19 C           3.7948    0.7125    1.2081 C.ar    1  UNL1       -0.0615
     20 C           2.5614    0.1245    1.0245 C.ar    1  UNL1       -0.0583
     21 C           0.7324   -2.0022   -0.1816 C.3     1  UNL1       -0.0299
     22 H          -2.2540   -3.8698    1.5369 H       1  UNL1        0.0391
     23 H          -2.7337   -2.4961    2.6171 H       1  UNL1        0.0391
     24 H          -3.3086   -2.4742    0.9307 H       1  UNL1        0.0391
     25 H          -0.1765   -3.6994    0.6752 H       1  UNL1        0.0463
     26 H          -1.0033   -3.2284   -1.7738 H       1  UNL1        0.0281
     27 H          -2.2565   -3.5906   -0.4847 H       1  UNL1        0.0281
     28 H          -3.1206   -1.5928   -1.1049 H       1  UNL1        0.0281
     29 H          -1.5580   -1.0453   -1.8255 H       1  UNL1        0.0281
     30 H          -2.5973   -0.3313    0.8094 H       1  UNL1        0.0469
     31 H          -0.1788    0.0506    1.4722 H       1  UNL1        0.0370
     32 H          -0.9559    1.2180   -1.9753 H       1  UNL1        0.0620
     33 H          -1.4670    3.5504   -2.5038 H       1  UNL1        0.0618
     34 H          -1.6033    5.2069   -0.6708 H       1  UNL1        0.0618
     35 H          -1.2162    4.4387    1.6837 H       1  UNL1        0.0618
     36 H          -0.7235    2.1357    2.1396 H       1  UNL1        0.0620
     37 H           0.3407   -0.3913   -1.4832 H       1  UNL1        0.0356
     38 H           2.1495    0.7270   -2.2406 H       1  UNL1        0.0620
     39 H           4.3247    1.7599   -1.9007 H       1  UNL1        0.0618
     40 H           5.4004    1.7683    0.2821 H       1  UNL1        0.0618
     41 H           4.3002    0.7309    2.1758 H       1  UNL1        0.0618
     42 H           2.0896   -0.3286    1.8693 H       1  UNL1        0.0620
     43 H           1.5581   -2.1768    0.5697 H       1  UNL1        0.0286
     44 H           1.0877   -2.4970   -1.1122 H       1  UNL1        0.0286
@<TRIPOS>BOND
     1     1     2    1
     2     2     3    1
     3     3     4    1
     4     4     5    1
     5     5     6    1
     6     6     7    1
     7     7     8    1
     8     8     9   ar
     9     9    10   ar
    10    10    11   ar
    11    11    12   ar
    12    12    13   ar
    13     7    14    1
    14    14    15    1
    15    15    16   ar
    16    16    17   ar
    17    17    18   ar
    18    18    19   ar
    19    19    20   ar
    20    14    21    1
    21     6     2    1
    22    13     8   ar
    23    20    15   ar
    24    21     3    1
    25     1    22    1
    26     1    23    1
    27     1    24    1
    28     3    25    1
    29     4    26    1
    30     4    27    1
    31     5    28    1
    32     5    29    1
    33     6    30    1
    34     7    31    1
    35     9    32    1
    36    10    33    1
    37    11    34    1
    38    12    35    1
    39    13    36    1
    40    14    37    1
    41    16    38    1
    42    17    39    1
    43    18    40    1
    44    19    41    1
    45    20    42    1
    46    21    43    1
    47    21    44    1
