
     RDKit          3D

 44 47  0  0  0  0  0  0  0  0999 V2000
   -1.4696   -0.1301   -1.1863 C   0  0  2  0  0  0  0  0  0  0  0  0
   -2.4068    0.8823   -1.7319 C   0  0  0  0  0  0  0  0  0  0  0  0
   -3.7574    0.2486   -1.4281 C   0  0  0  0  0  0  0  0  0  0  0  0
   -3.5233   -0.7214   -0.2696 C   0  0  2  0  0  0  0  0  0  0  0  0
   -4.3150   -0.2848    0.7934 O   0  0  0  0  0  0  0  0  0  0  0  0
   -2.0885   -0.5563    0.1308 C   0  0  2  0  0  0  0  0  0  0  0  0
   -1.9484    0.4610    1.2125 C   0  0  0  0  0  0  0  0  0  0  0  0
   -1.4203   -1.8419    0.5208 C   0  0  0  0  0  0  0  0  0  0  0  0
    0.0552   -1.6508    0.6541 C   0  0  0  0  0  0  0  0  0  0  0  0
    0.6869   -0.8959   -0.4790 C   0  0  2  0  0  0  0  0  0  0  0  0
    2.0469   -0.4526   -0.0734 C   0  0  0  0  0  0  0  0  0  0  0  0
    2.5621    0.7568   -0.4573 C   0  0  0  0  0  0  0  0  0  0  0  0
    1.8424    1.7427   -1.3019 C   0  0  0  0  0  0  0  0  0  0  0  0
    0.6131    1.0829   -1.9407 C   0  0  0  0  0  0  0  0  0  0  0  0
   -0.0920    0.3596   -0.8437 C   0  0  1  0  0  0  0  0  0  0  0  0
    3.8419    1.1320   -0.0539 C   0  0  0  0  0  0  0  0  0  0  0  0
    4.6104    0.3007    0.7336 C   0  0  0  0  0  0  0  0  0  0  0  0
    5.8986    0.6098    1.1750 O   0  0  0  0  0  0  0  0  0  0  0  0
    4.0854   -0.9063    1.1117 C   0  0  0  0  0  0  0  0  0  0  0  0
    2.8117   -1.2939    0.7176 C   0  0  0  0  0  0  0  0  0  0  0  0
   -1.3588   -0.9895   -1.8493 H   0  0  0  0  0  0  0  0  0  0  0  0
   -2.2939    0.8693   -2.8487 H   0  0  0  0  0  0  0  0  0  0  0  0
   -2.2918    1.8953   -1.3512 H   0  0  0  0  0  0  0  0  0  0  0  0
   -4.4600    1.0582   -1.1670 H   0  0  0  0  0  0  0  0  0  0  0  0
   -4.1102   -0.3607   -2.2992 H   0  0  0  0  0  0  0  0  0  0  0  0
   -3.8201   -1.7456   -0.5309 H   0  0  0  0  0  0  0  0  0  0  0  0
   -4.3772    0.7215    0.7319 H   0  0  0  0  0  0  0  0  0  0  0  0
   -2.7862    0.2662    1.9447 H   0  0  0  0  0  0  0  0  0  0  0  0
   -2.1377    1.5039    0.8613 H   0  0  0  0  0  0  0  0  0  0  0  0
   -1.0319    0.3622    1.8239 H   0  0  0  0  0  0  0  0  0  0  0  0
   -1.6996   -2.6806   -0.1460 H   0  0  0  0  0  0  0  0  0  0  0  0
   -1.8100   -2.1308    1.5346 H   0  0  0  0  0  0  0  0  0  0  0  0
    0.3199   -1.2005    1.6341 H   0  0  0  0  0  0  0  0  0  0  0  0
    0.5200   -2.6618    0.6783 H   0  0  0  0  0  0  0  0  0  0  0  0
    0.7870   -1.4991   -1.3911 H   0  0  0  0  0  0  0  0  0  0  0  0
    2.5129    2.1581   -2.0771 H   0  0  0  0  0  0  0  0  0  0  0  0
    1.4302    2.5177   -0.6219 H   0  0  0  0  0  0  0  0  0  0  0  0
    0.8871    0.4203   -2.7825 H   0  0  0  0  0  0  0  0  0  0  0  0
   -0.0385    1.9198   -2.2696 H   0  0  0  0  0  0  0  0  0  0  0  0
   -0.0996    1.0056    0.0699 H   0  0  0  0  0  0  0  0  0  0  0  0
    4.3186    2.0739   -0.3177 H   0  0  0  0  0  0  0  0  0  0  0  0
    6.3380    1.4982    0.8944 H   0  0  0  0  0  0  0  0  0  0  0  0
    4.6846   -1.5810    1.7395 H   0  0  0  0  0  0  0  0  0  0  0  0
    2.4835   -2.2628    1.0646 H   0  0  0  0  0  0  0  0  0  0  0  0
  1  2  1  0
  2  3  1  0
  3  4  1  0
  4  5  1  0
  4  6  1  0
  6  7  1  1
  6  8  1  0
  8  9  1  0
  9 10  1  0
 10 11  1  0
 11 12  2  0
 12 13  1  0
 13 14  1  0
 14 15  1  0
 12 16  1  0
 16 17  2  0
 17 18  1  0
 17 19  1  0
 19 20  2  0
  6  1  1  0
 15 10  1  0
 15  1  1  0
 20 11  1  0
  1 21  1  6
  2 22  1  0
  2 23  1  0
  3 24  1  0
  3 25  1  0
  4 26  1  6
  5 27  1  0
  7 28  1  0
  7 29  1  0
  7 30  1  0
  8 31  1  0
  8 32  1  0
  9 33  1  0
  9 34  1  0
 10 35  1  6
 13 36  1  0
 13 37  1  0
 14 38  1  0
 14 39  1  0
 15 40  1  1
 16 41  1  0
 18 42  1  0
 19 43  1  0
 20 44  1  0
M  END
$$$$
