@<TRIPOS>MOLECULE
*****
 44 47 0 0 0
SMALL
GASTEIGER

@<TRIPOS>ATOM
      1 C          -1.4696   -0.1301   -1.1863 C.3     1  UNL1       -0.0298
      2 C          -2.4068    0.8823   -1.7319 C.3     1  UNL1       -0.0470
      3 C          -3.7574    0.2486   -1.4281 C.3     1  UNL1       -0.0261
      4 C          -3.5233   -0.7214   -0.2696 C.3     1  UNL1        0.0609
      5 O          -4.3150   -0.2848    0.7934 O.3     1  UNL1       -0.3912
      6 C          -2.0885   -0.5563    0.1308 C.3     1  UNL1       -0.0030
      7 C          -1.9484    0.4610    1.2125 C.3     1  UNL1       -0.0569
      8 C          -1.4203   -1.8419    0.5208 C.3     1  UNL1       -0.0445
      9 C           0.0552   -1.6508    0.6541 C.3     1  UNL1       -0.0454
     10 C           0.6869   -0.8959   -0.4790 C.3     1  UNL1       -0.0125
     11 C           2.0469   -0.4526   -0.0734 C.ar    1  UNL1       -0.0406
     12 C           2.5621    0.7568   -0.4573 C.ar    1  UNL1       -0.0405
     13 C           1.8424    1.7427   -1.3019 C.3     1  UNL1       -0.0270
     14 C           0.6131    1.0829   -1.9407 C.3     1  UNL1       -0.0454
     15 C          -0.0920    0.3596   -0.8437 C.3     1  UNL1       -0.0305
     16 C           3.8419    1.1320   -0.0539 C.ar    1  UNL1       -0.0167
     17 C           4.6104    0.3007    0.7336 C.ar    1  UNL1        0.1171
     18 O           5.8986    0.6098    1.1750 O.3     1  UNL1       -0.5068
     19 C           4.0854   -0.9063    1.1117 C.ar    1  UNL1       -0.0199
     20 C           2.8117   -1.2939    0.7176 C.ar    1  UNL1       -0.0546
     21 H          -1.3588   -0.9895   -1.8493 H       1  UNL1        0.0310
     22 H          -2.2939    0.8693   -2.8487 H       1  UNL1        0.0269
     23 H          -2.2918    1.8953   -1.3512 H       1  UNL1        0.0269
     24 H          -4.4600    1.0582   -1.1670 H       1  UNL1        0.0290
     25 H          -4.1102   -0.3607   -2.2992 H       1  UNL1        0.0290
     26 H          -3.8201   -1.7456   -0.5309 H       1  UNL1        0.0599
     27 H          -4.3772    0.7215    0.7319 H       1  UNL1        0.2098
     28 H          -2.7862    0.2662    1.9447 H       1  UNL1        0.0236
     29 H          -2.1377    1.5039    0.8613 H       1  UNL1        0.0236
     30 H          -1.0319    0.3622    1.8239 H       1  UNL1        0.0236
     31 H          -1.6996   -2.6806   -0.1460 H       1  UNL1        0.0272
     32 H          -1.8100   -2.1308    1.5346 H       1  UNL1        0.0272
     33 H           0.3199   -1.2005    1.6341 H       1  UNL1        0.0271
     34 H           0.5200   -2.6618    0.6783 H       1  UNL1        0.0271
     35 H           0.7870   -1.4991   -1.3911 H       1  UNL1        0.0352
     36 H           2.5129    2.1581   -2.0771 H       1  UNL1        0.0313
     37 H           1.4302    2.5177   -0.6219 H       1  UNL1        0.0313
     38 H           0.8871    0.4203   -2.7825 H       1  UNL1        0.0271
     39 H          -0.0385    1.9198   -2.2696 H       1  UNL1        0.0271
     40 H          -0.0996    1.0056    0.0699 H       1  UNL1        0.0310
     41 H           4.3186    2.0739   -0.3177 H       1  UNL1        0.0657
     42 H           6.3380    1.4982    0.8944 H       1  UNL1        0.2921
     43 H           4.6846   -1.5810    1.7395 H       1  UNL1        0.0654
     44 H           2.4835   -2.2628    1.0646 H       1  UNL1        0.0622
@<TRIPOS>BOND
     1     1     2    1
     2     2     3    1
     3     3     4    1
     4     4     5    1
     5     4     6    1
     6     6     7    1
     7     6     8    1
     8     8     9    1
     9     9    10    1
    10    10    11    1
    11    11    12   ar
    12    12    13    1
    13    13    14    1
    14    14    15    1
    15    12    16   ar
    16    16    17   ar
    17    17    18    1
    18    17    19   ar
    19    19    20   ar
    20     6     1    1
    21    15    10    1
    22    15     1    1
    23    20    11   ar
    24     1    21    1
    25     2    22    1
    26     2    23    1
    27     3    24    1
    28     3    25    1
    29     4    26    1
    30     5    27    1
    31     7    28    1
    32     7    29    1
    33     7    30    1
    34     8    31    1
    35     8    32    1
    36     9    33    1
    37     9    34    1
    38    10    35    1
    39    13    36    1
    40    13    37    1
    41    14    38    1
    42    14    39    1
    43    15    40    1
    44    16    41    1
    45    18    42    1
    46    19    43    1
    47    20    44    1
