
     RDKit          3D

 12 11  0  0  0  0  0  0  0  0999 V2000
   -2.3901    1.3715   -1.1104 F   0  0  0  0  0  0  0  0  0  0  0  0
   -1.7281    0.4326   -0.3511 C   0  0  0  0  0  0  0  0  0  0  0  0
   -2.4332   -0.7624   -0.3422 F   0  0  0  0  0  0  0  0  0  0  0  0
   -0.4495    0.2124   -0.8433 O   0  0  0  0  0  0  0  0  0  0  0  0
    0.5697    0.4172    0.0452 C   0  0  0  0  0  0  0  0  0  0  0  0
    1.4644    1.3667   -0.4117 F   0  0  0  0  0  0  0  0  0  0  0  0
    1.3859   -0.8623    0.2558 C   0  0  0  0  0  0  0  0  0  0  0  0
    1.9219   -1.2624   -0.9448 F   0  0  0  0  0  0  0  0  0  0  0  0
    0.6314   -1.8539    0.8503 F   0  0  0  0  0  0  0  0  0  0  0  0
    2.4548   -0.5417    1.0820 F   0  0  0  0  0  0  0  0  0  0  0  0
   -1.6662    0.7471    0.7199 H   0  0  0  0  0  0  0  0  0  0  0  0
    0.2390    0.7351    1.0503 H   0  0  0  0  0  0  0  0  0  0  0  0
  1  2  1  0
  2  3  1  0
  2  4  1  0
  4  5  1  0
  5  6  1  0
  5  7  1  0
  7  8  1  0
  7  9  1  0
  7 10  1  0
  2 11  1  0
  5 12  1  0
M  END
$$$$
