@<TRIPOS>MOLECULE
*****
 71 78 0 0 0
SMALL
GASTEIGER

@<TRIPOS>ATOM
      1 O           5.1379    2.8834    0.1171 O.2     1  UNL1       -0.2465
      2 C           6.0839    2.0221    0.1277 C.ar    1  UNL1        0.3278
      3 N           7.3498    2.3763    0.0806 N.ar    1  UNL1       -0.3059
      4 C           8.1210    1.2809    0.1052 C.ar    1  UNL1        0.0670
      5 C           9.4805    1.0778    0.0775 C.ar    1  UNL1       -0.0362
      6 C           9.9362   -0.2210    0.1179 C.ar    1  UNL1       -0.0597
      7 C           9.0624   -1.2865    0.1839 C.ar    1  UNL1       -0.0597
      8 C           7.6962   -1.0894    0.2119 C.ar    1  UNL1       -0.0360
      9 C           7.2382    0.2073    0.1718 C.ar    1  UNL1        0.0700
     10 N           5.9724    0.6701    0.1857 N.ar    1  UNL1       -0.2891
     11 C           4.7021    0.0590    0.2416 C.3     1  UNL1        0.0417
     12 C           4.0108    0.2201   -1.1178 C.3     1  UNL1       -0.0191
     13 C           2.5080    0.1004   -0.8089 C.3     1  UNL1        0.0011
     14 N           2.2528   -1.1190   -0.1696 N.3     1  UNL1       -0.2980
     15 C           1.2562   -1.9829   -0.6528 C.3     1  UNL1        0.0240
     16 C          -0.0912   -1.3571   -0.6260 C.ar    1  UNL1       -0.0333
     17 C          -0.6470   -0.6884   -1.7018 C.ar    1  UNL1       -0.0567
     18 C          -1.9126   -0.1175   -1.6091 C.ar    1  UNL1       -0.0522
     19 C          -2.6538   -0.1924   -0.4620 C.ar    1  UNL1        0.0025
     20 C          -3.9791    0.3991   -0.3508 C.ar    1  UNL1        0.0976
     21 N          -4.1793    1.7162   -0.5109 N.ar    1  UNL1       -0.2429
     22 C          -5.4033    2.2863   -0.4143 C.ar    1  UNL1        0.0920
     23 C          -5.5778    3.6374   -0.5835 C.ar    1  UNL1       -0.0087
     24 C          -6.8337    4.1710   -0.4773 C.ar    1  UNL1        0.0682
     25 N          -7.2919    5.4263   -0.5915 N.ar    1  UNL1       -0.3443
     26 C          -8.6079    5.4227   -0.3993 C.ar    1  UNL1        0.0944
     27 N          -9.0114    4.1811   -0.1616 N.ar    1  UNL1       -0.2359
     28 C          -7.9459    3.3795   -0.2013 C.ar    1  UNL1        0.0909
     29 C          -7.7486    2.0174   -0.0339 C.ar    1  UNL1       -0.0067
     30 C          -6.4950    1.4745   -0.1384 C.ar    1  UNL1        0.0920
     31 N          -6.3243    0.1661    0.0248 N.ar    1  UNL1       -0.2429
     32 C          -5.0882   -0.3923   -0.0752 C.ar    1  UNL1        0.0976
     33 C          -4.8686   -1.8059    0.0969 C.ar    1  UNL1        0.0025
     34 C          -5.1787   -2.4080    1.2926 C.ar    1  UNL1       -0.0525
     35 C          -4.9942   -3.7469    1.5185 C.ar    1  UNL1       -0.0611
     36 C          -4.4781   -4.5279    0.5136 C.ar    1  UNL1       -0.0617
     37 C          -4.1531   -3.9490   -0.7105 C.ar    1  UNL1       -0.0611
     38 C          -4.3530   -2.5756   -0.9128 C.ar    1  UNL1       -0.0525
     39 C          -2.1089   -0.8549    0.6105 C.ar    1  UNL1       -0.0522
     40 C          -0.8525   -1.4332    0.5494 C.ar    1  UNL1       -0.0567
     41 C           3.0397   -1.5121    0.9301 C.3     1  UNL1        0.0011
     42 C           4.5564   -1.3318    0.6450 C.3     1  UNL1       -0.0191
     43 H           7.7829    3.3375    0.0307 H       1  UNL1        0.1704
     44 H          10.1460    1.9308    0.0254 H       1  UNL1        0.0639
     45 H          11.0228   -0.3934    0.0958 H       1  UNL1        0.0618
     46 H           9.4077   -2.2987    0.2155 H       1  UNL1        0.0618
     47 H           6.9840   -1.8876    0.2625 H       1  UNL1        0.0639
     48 H           4.0585    0.6726    0.9461 H       1  UNL1        0.0530
     49 H           4.2373    1.2422   -1.4910 H       1  UNL1        0.0298
     50 H           4.2880   -0.5679   -1.8192 H       1  UNL1        0.0298
     51 H           1.9174    0.1977   -1.7273 H       1  UNL1        0.0427
     52 H           2.2691    0.9270   -0.0748 H       1  UNL1        0.0427
     53 H           1.4799   -2.1726   -1.7477 H       1  UNL1        0.0476
     54 H           1.2537   -2.9910   -0.1897 H       1  UNL1        0.0476
     55 H          -0.1056   -0.6115   -2.6204 H       1  UNL1        0.0621
     56 H          -2.2816    0.3879   -2.4861 H       1  UNL1        0.0624
     57 H          -4.7421    4.2643   -0.7958 H       1  UNL1        0.0661
     58 H          -6.6936    6.2716   -0.8004 H       1  UNL1        0.1668
     59 H          -9.3070    6.2717   -0.4199 H       1  UNL1        0.1027
     60 H          -8.6106    1.3792    0.1835 H       1  UNL1        0.0661
     61 H          -5.5921   -1.7982    2.1064 H       1  UNL1        0.0624
     62 H          -5.2394   -4.2064    2.4545 H       1  UNL1        0.0618
     63 H          -4.3154   -5.6070    0.6564 H       1  UNL1        0.0618
     64 H          -3.7497   -4.5921   -1.4775 H       1  UNL1        0.0618
     65 H          -4.0866   -2.1726   -1.8773 H       1  UNL1        0.0624
     66 H          -2.6987   -0.9130    1.5187 H       1  UNL1        0.0624
     67 H          -0.4174   -1.9578    1.3943 H       1  UNL1        0.0621
     68 H           2.7778   -0.9563    1.8339 H       1  UNL1        0.0427
     69 H           2.8846   -2.6066    1.1077 H       1  UNL1        0.0427
     70 H           5.0235   -1.6521    1.5885 H       1  UNL1        0.0298
     71 H           4.6805   -2.0810   -0.1952 H       1  UNL1        0.0298
@<TRIPOS>BOND
     1     1     2    2
     2     2     3   ar
     3     3     4   ar
     4     4     5   ar
     5     5     6   ar
     6     6     7   ar
     7     7     8   ar
     8     8     9   ar
     9     9    10   ar
    10    10    11    1
    11    11    12    1
    12    12    13    1
    13    13    14    1
    14    14    15    1
    15    15    16    1
    16    16    17   ar
    17    17    18   ar
    18    18    19   ar
    19    19    20    1
    20    20    21   ar
    21    21    22   ar
    22    22    23   ar
    23    23    24   ar
    24    24    25   ar
    25    25    26   ar
    26    26    27   ar
    27    27    28   ar
    28    28    29   ar
    29    29    30   ar
    30    30    31   ar
    31    31    32   ar
    32    32    33    1
    33    33    34   ar
    34    34    35   ar
    35    35    36   ar
    36    36    37   ar
    37    37    38   ar
    38    19    39   ar
    39    39    40   ar
    40    14    41    1
    41    41    42    1
    42    10     2   ar
    43    42    11    1
    44     9     4   ar
    45    40    16   ar
    46    32    20   ar
    47    38    33   ar
    48    30    22   ar
    49    28    24   ar
    50     3    43    1
    51     5    44    1
    52     6    45    1
    53     7    46    1
    54     8    47    1
    55    11    48    1
    56    12    49    1
    57    12    50    1
    58    13    51    1
    59    13    52    1
    60    15    53    1
    61    15    54    1
    62    17    55    1
    63    18    56    1
    64    23    57    1
    65    25    58    1
    66    26    59    1
    67    29    60    1
    68    34    61    1
    69    35    62    1
    70    36    63    1
    71    37    64    1
    72    38    65    1
    73    39    66    1
    74    40    67    1
    75    41    68    1
    76    41    69    1
    77    42    70    1
    78    42    71    1
