
     RDKit          3D

 42 43  0  0  0  0  0  0  0  0999 V2000
    4.7693    0.1304    0.5109 C   0  0  0  0  0  0  0  0  0  0  0  0
    3.3563    0.4637    0.3210 N   0  0  0  0  0  0  0  0  0  0  0  0
    3.3212    1.6282   -0.5607 C   0  0  0  0  0  0  0  0  0  0  0  0
    2.7478   -0.6761   -0.2848 C   0  0  0  0  0  0  0  0  0  0  0  0
    1.2415   -0.5276   -0.4836 C   0  0  0  0  0  0  0  0  0  0  0  0
    0.6770   -0.3471    0.7492 O   0  0  0  0  0  0  0  0  0  0  0  0
   -0.6876   -0.2216    0.8114 C   0  0  0  0  0  0  0  0  0  0  0  0
   -1.0174   -0.1063    2.3106 C   0  0  0  0  0  0  0  0  0  0  0  0
   -1.1153    1.0533    0.2350 C   0  0  0  0  0  0  0  0  0  0  0  0
   -2.5086    1.0250    0.0784 C   0  0  0  0  0  0  0  0  0  0  0  0
   -3.2103    2.1093   -0.4435 C   0  0  0  0  0  0  0  0  0  0  0  0
   -2.5609    3.2606   -0.8295 C   0  0  0  0  0  0  0  0  0  0  0  0
   -1.1906    3.2855   -0.6741 C   0  0  0  0  0  0  0  0  0  0  0  0
   -0.4911    2.2173   -0.1587 C   0  0  0  0  0  0  0  0  0  0  0  0
   -1.4130   -1.3924    0.2921 C   0  0  0  0  0  0  0  0  0  0  0  0
   -1.9838   -2.3299    1.1646 C   0  0  0  0  0  0  0  0  0  0  0  0
   -2.6608   -3.4080    0.6327 C   0  0  0  0  0  0  0  0  0  0  0  0
   -2.7408   -3.5076   -0.7373 C   0  0  0  0  0  0  0  0  0  0  0  0
   -2.1559   -2.5483   -1.5631 C   0  0  0  0  0  0  0  0  0  0  0  0
   -1.5025   -1.5080   -1.0191 N   0  0  0  0  0  0  0  0  0  0  0  0
    5.0778   -0.4339   -0.3875 H   0  0  0  0  0  0  0  0  0  0  0  0
    5.3652    1.0657    0.6019 H   0  0  0  0  0  0  0  0  0  0  0  0
    4.9501   -0.4879    1.3965 H   0  0  0  0  0  0  0  0  0  0  0  0
    3.3235    2.5561    0.0286 H   0  0  0  0  0  0  0  0  0  0  0  0
    4.2613    1.6429   -1.1754 H   0  0  0  0  0  0  0  0  0  0  0  0
    2.5024    1.5817   -1.2802 H   0  0  0  0  0  0  0  0  0  0  0  0
    3.2004   -0.7748   -1.3052 H   0  0  0  0  0  0  0  0  0  0  0  0
    2.9908   -1.6156    0.2484 H   0  0  0  0  0  0  0  0  0  0  0  0
    1.0050    0.1951   -1.2596 H   0  0  0  0  0  0  0  0  0  0  0  0
    0.8463   -1.5246   -0.8585 H   0  0  0  0  0  0  0  0  0  0  0  0
   -0.5206   -0.8974    2.8855 H   0  0  0  0  0  0  0  0  0  0  0  0
   -0.7329    0.9293    2.6436 H   0  0  0  0  0  0  0  0  0  0  0  0
   -2.1308   -0.1900    2.3739 H   0  0  0  0  0  0  0  0  0  0  0  0
   -3.2048    0.2311    0.3138 H   0  0  0  0  0  0  0  0  0  0  0  0
   -4.2836    2.1568   -0.5923 H   0  0  0  0  0  0  0  0  0  0  0  0
   -3.0128    4.1371   -1.2385 H   0  0  0  0  0  0  0  0  0  0  0  0
   -0.5302    4.1204   -0.9313 H   0  0  0  0  0  0  0  0  0  0  0  0
    0.5703    2.1325    0.0156 H   0  0  0  0  0  0  0  0  0  0  0  0
   -1.9052   -2.2271    2.2327 H   0  0  0  0  0  0  0  0  0  0  0  0
   -3.1174   -4.1566    1.2655 H   0  0  0  0  0  0  0  0  0  0  0  0
   -3.2785   -4.3636   -1.1467 H   0  0  0  0  0  0  0  0  0  0  0  0
   -2.2505   -2.6776   -2.6343 H   0  0  0  0  0  0  0  0  0  0  0  0
  1  2  1  0
  2  3  1  0
  2  4  1  0
  4  5  1  0
  5  6  1  0
  6  7  1  0
  7  8  1  0
  7  9  1  0
  9 10  2  0
 10 11  1  0
 11 12  2  0
 12 13  1  0
 13 14  2  0
  7 15  1  0
 15 16  2  0
 16 17  1  0
 17 18  2  0
 18 19  1  0
 19 20  2  0
 14  9  1  0
 20 15  1  0
  1 21  1  0
  1 22  1  0
  1 23  1  0
  3 24  1  0
  3 25  1  0
  3 26  1  0
  4 27  1  0
  4 28  1  0
  5 29  1  0
  5 30  1  0
  8 31  1  0
  8 32  1  0
  8 33  1  0
 10 34  1  0
 11 35  1  0
 12 36  1  0
 13 37  1  0
 14 38  1  0
 16 39  1  0
 17 40  1  0
 18 41  1  0
 19 42  1  0
M  END
$$$$
