
     RDKit          3D

 77 81  0  0  0  0  0  0  0  0999 V2000
   -1.3704   -2.3925    0.2430 C   0  0  0  0  0  0  0  0  0  0  0  0
   -1.4775   -1.2310   -0.6905 C   0  0  0  0  0  0  0  0  0  0  0  0
   -0.8167    0.0272   -0.1761 C   0  0  0  0  0  0  0  0  0  0  0  0
   -1.0346    1.0515   -1.2409 C   0  0  0  0  0  0  0  0  0  0  0  0
   -1.0795    0.7707   -2.4673 O   0  0  0  0  0  0  0  0  0  0  0  0
   -1.2083    2.4300   -0.9406 N   0  0  0  0  0  0  0  0  0  0  0  0
   -1.4481    2.8112    0.4270 C   0  0  0  0  0  0  0  0  0  0  0  0
   -1.6109    4.0337    0.7515 O   0  0  0  0  0  0  0  0  0  0  0  0
   -1.5122    1.8452    1.4607 N   0  0  0  0  0  0  0  0  0  0  0  0
   -1.3319    0.4629    1.1189 C   0  0  0  0  0  0  0  0  0  0  0  0
   -1.6517   -0.3601    2.0217 O   0  0  0  0  0  0  0  0  0  0  0  0
    0.6586   -0.1569   -0.1167 C   0  0  0  0  0  0  0  0  0  0  0  0
    1.2837   -0.1983    1.1327 C   0  0  0  0  0  0  0  0  0  0  0  0
    2.6551   -0.3693    1.1937 C   0  0  0  0  0  0  0  0  0  0  0  0
    3.4482   -0.5027    0.0788 C   0  0  0  0  0  0  0  0  0  0  0  0
    2.8255   -0.4615   -1.1664 C   0  0  0  0  0  0  0  0  0  0  0  0
    1.4553   -0.2909   -1.2348 C   0  0  0  0  0  0  0  0  0  0  0  0
   -4.8441   -2.7079   -0.9389 C   0  0  0  0  0  0  0  0  0  0  0  0
   -5.4069   -1.4769   -0.6026 O   0  0  0  0  0  0  0  0  0  0  0  0
   -4.6857   -0.3400   -0.2738 C   0  0  0  0  0  0  0  0  0  0  0  0
   -3.3266   -0.2480   -0.2281 C   0  0  0  0  0  0  0  0  0  0  0  0
   -2.6393    0.8980    0.1030 C   0  0  0  0  0  0  0  0  0  0  0  0
   -1.2411    0.9294    0.1277 C   0  0  0  0  0  0  0  0  0  0  0  0
   -0.7617    2.1739    0.4774 C   0  0  0  0  0  0  0  0  0  0  0  0
   -1.5126    3.2902    0.7780 C   0  0  0  0  0  0  0  0  0  0  0  0
   -2.8584    3.1752    0.7313 N   0  0  0  0  0  0  0  0  0  0  0  0
   -3.4140    1.9997    0.3997 C   0  0  0  0  0  0  0  0  0  0  0  0
   -4.7915    1.9529    0.3663 C   0  0  0  0  0  0  0  0  0  0  0  0
   -5.4457    0.7856    0.0301 C   0  0  0  0  0  0  0  0  0  0  0  0
   -0.4443   -0.2600   -0.1733 C   0  0  0  0  0  0  0  0  0  0  0  0
   -0.8768   -1.2418    0.7621 O   0  0  0  0  0  0  0  0  0  0  0  0
    1.0382   -0.0860    0.1676 C   0  0  0  0  0  0  0  0  0  0  0  0
    1.7598   -1.4139    0.1195 C   0  0  0  0  0  0  0  0  0  0  0  0
    3.0894   -1.2456   -0.6041 C   0  0  0  0  0  0  0  0  0  0  0  0
    2.7992   -0.8651   -2.0237 C   0  0  0  0  0  0  0  0  0  0  0  0
    1.9976    0.4317   -1.9985 C   0  0  0  0  0  0  0  0  0  0  0  0
    1.7197    0.8549   -0.6528 N   0  0  0  0  0  0  0  0  0  0  0  0
    3.0017    1.1215   -0.0275 C   0  0  0  0  0  0  0  0  0  0  0  0
    3.8391   -0.1417    0.0728 C   0  0  0  0  0  0  0  0  0  0  0  0
    4.1684   -0.4409    1.4814 C   0  0  0  0  0  0  0  0  0  0  0  0
    5.4388   -0.4853    1.9322 C   0  0  0  0  0  0  0  0  0  0  0  0
   -0.3844   -2.5207    0.7037 H   0  0  0  0  0  0  0  0  0  0  0  0
   -2.1980   -2.3978    1.0085 H   0  0  0  0  0  0  0  0  0  0  0  0
   -1.5668   -3.3161   -0.3533 H   0  0  0  0  0  0  0  0  0  0  0  0
   -2.5487   -1.0721   -0.9272 H   0  0  0  0  0  0  0  0  0  0  0  0
   -1.0120   -1.5517   -1.6450 H   0  0  0  0  0  0  0  0  0  0  0  0
   -1.1818    3.2250   -1.6156 H   0  0  0  0  0  0  0  0  0  0  0  0
   -1.6868    2.1295    2.4523 H   0  0  0  0  0  0  0  0  0  0  0  0
    0.6713   -0.0946    2.0181 H   0  0  0  0  0  0  0  0  0  0  0  0
    3.1582   -0.4044    2.1399 H   0  0  0  0  0  0  0  0  0  0  0  0
    4.5235   -0.6375    0.1011 H   0  0  0  0  0  0  0  0  0  0  0  0
    3.4391   -0.5657   -2.0640 H   0  0  0  0  0  0  0  0  0  0  0  0
    1.0015   -0.2630   -2.2134 H   0  0  0  0  0  0  0  0  0  0  0  0
   -5.4809   -3.5683   -0.6551 H   0  0  0  0  0  0  0  0  0  0  0  0
   -3.8832   -2.8554   -0.4055 H   0  0  0  0  0  0  0  0  0  0  0  0
   -4.7039   -2.7413   -2.0322 H   0  0  0  0  0  0  0  0  0  0  0  0
   -2.7949   -1.1304   -0.4735 H   0  0  0  0  0  0  0  0  0  0  0  0
    0.3081    2.3164    0.5309 H   0  0  0  0  0  0  0  0  0  0  0  0
   -1.0542    4.2290    1.0427 H   0  0  0  0  0  0  0  0  0  0  0  0
   -5.3749    2.8302    0.6032 H   0  0  0  0  0  0  0  0  0  0  0  0
   -6.5288    0.7615    0.0075 H   0  0  0  0  0  0  0  0  0  0  0  0
   -0.4727   -0.6206   -1.2045 H   0  0  0  0  0  0  0  0  0  0  0  0
   -1.2773   -0.8452    1.5482 H   0  0  0  0  0  0  0  0  0  0  0  0
    1.1527    0.2861    1.2274 H   0  0  0  0  0  0  0  0  0  0  0  0
    1.1553   -2.1877   -0.4122 H   0  0  0  0  0  0  0  0  0  0  0  0
    2.0224   -1.8046    1.1299 H   0  0  0  0  0  0  0  0  0  0  0  0
    3.5896   -2.2305   -0.5168 H   0  0  0  0  0  0  0  0  0  0  0  0
    3.7645   -0.7603   -2.5620 H   0  0  0  0  0  0  0  0  0  0  0  0
    2.2391   -1.6543   -2.5694 H   0  0  0  0  0  0  0  0  0  0  0  0
    1.1104    0.3825   -2.6434 H   0  0  0  0  0  0  0  0  0  0  0  0
    2.6662    1.2185   -2.4262 H   0  0  0  0  0  0  0  0  0  0  0  0
    3.5880    1.8422   -0.6400 H   0  0  0  0  0  0  0  0  0  0  0  0
    2.8868    1.5367    0.9889 H   0  0  0  0  0  0  0  0  0  0  0  0
    4.8126   -0.0427   -0.4739 H   0  0  0  0  0  0  0  0  0  0  0  0
    3.4417   -0.6458    2.2574 H   0  0  0  0  0  0  0  0  0  0  0  0
    5.9254   -0.6756    2.8831 H   0  0  0  0  0  0  0  0  0  0  0  0
    6.3050   -0.3006    1.2743 H   0  0  0  0  0  0  0  0  0  0  0  0
  1  2  1  0
  2  3  1  0
  3  4  1  0
  4  5  2  0
  4  6  1  0
  6  7  1  0
  7  8  2  0
  7  9  1  0
  9 10  1  0
 10 11  2  0
  3 12  1  0
 12 13  2  0
 13 14  1  0
 14 15  2  0
 15 16  1  0
 16 17  2  0
 18 19  1  0
 19 20  1  0
 20 21  2  0
 21 22  1  0
 22 23  2  0
 23 24  1  0
 24 25  2  0
 25 26  1  0
 26 27  2  0
 27 28  1  0
 28 29  2  0
 23 30  1  0
 30 31  1  0
 30 32  1  0
 32 33  1  0
 33 34  1  0
 34 35  1  0
 35 36  1  0
 36 37  1  0
 37 38  1  0
 38 39  1  0
 39 40  1  0
 40 41  2  0
 10  3  1  0
 17 12  1  0
 29 20  1  0
 37 32  1  0
 27 22  1  0
 39 34  1  0
  1 42  1  0
  1 43  1  0
  1 44  1  0
  2 45  1  0
  2 46  1  0
  6 47  1  0
  9 48  1  0
 13 49  1  0
 14 50  1  0
 15 51  1  0
 16 52  1  0
 17 53  1  0
 18 54  1  0
 18 55  1  0
 18 56  1  0
 21 57  1  0
 24 58  1  0
 25 59  1  0
 28 60  1  0
 29 61  1  0
 30 62  1  0
 31 63  1  0
 32 64  1  0
 33 65  1  0
 33 66  1  0
 34 67  1  0
 35 68  1  0
 35 69  1  0
 36 70  1  0
 36 71  1  0
 38 72  1  0
 38 73  1  0
 39 74  1  0
 40 75  1  0
 41 76  1  0
 41 77  1  0
M  END
$$$$
