@<TRIPOS>MOLECULE
*****
 44 46 0 0 0
SMALL
GASTEIGER

@<TRIPOS>ATOM
      1 C          -3.0708    2.5713    0.0242 C.3     1  UNL1       -0.0612
      2 C          -3.1117    1.4451   -0.9922 C.3     1  UNL1       -0.0282
      3 C          -2.9034    0.1299   -0.3287 C.ar    1  UNL1       -0.0166
      4 C          -3.7657   -0.6302    0.4255 C.ar    1  UNL1        0.0169
      5 C          -5.1644   -0.2227    0.7153 C.3     1  UNL1       -0.0242
      6 N          -3.1368   -1.7424    0.8187 N.ar    1  UNL1       -0.3611
      7 C          -1.8874   -1.6930    0.3217 C.ar    1  UNL1        0.0270
      8 C          -1.6969   -0.5389   -0.4043 C.ar    1  UNL1        0.0416
      9 C          -0.3876   -0.3506   -1.0101 C.2     1  UNL1        0.1694
     10 O          -0.2791    0.5569   -1.8737 O.2     1  UNL1       -0.2916
     11 C           0.7761   -1.1947   -0.6273 C.3     1  UNL1        0.0352
     12 C           1.7651   -0.4506    0.2207 C.3     1  UNL1        0.0089
     13 N           2.3593    0.7076   -0.3630 N.3     1  UNL1       -0.2973
     14 C           3.1976    1.3014    0.6798 C.3     1  UNL1        0.0225
     15 C           4.3259    2.1363    0.1122 C.3     1  UNL1        0.0604
     16 O           5.2588    1.3209   -0.5340 O.3     1  UNL1       -0.3772
     17 C           4.6615    0.1532   -1.0010 C.3     1  UNL1        0.0604
     18 C           3.2450    0.4102   -1.4775 C.3     1  UNL1        0.0225
     19 C           0.4405   -2.5287   -0.0755 C.3     1  UNL1       -0.0366
     20 C          -0.8787   -2.7364    0.5418 C.3     1  UNL1       -0.0111
     21 H          -2.5481    2.2638    0.9572 H       1  UNL1        0.0233
     22 H          -2.5753    3.4396   -0.4690 H       1  UNL1        0.0233
     23 H          -4.0820    2.9198    0.3278 H       1  UNL1        0.0233
     24 H          -4.1427    1.4308   -1.4173 H       1  UNL1        0.0311
     25 H          -2.4194    1.5967   -1.8393 H       1  UNL1        0.0311
     26 H          -5.1472    0.8387    1.0358 H       1  UNL1        0.0292
     27 H          -5.5814   -0.8612    1.4969 H       1  UNL1        0.0292
     28 H          -5.7939   -0.2505   -0.2185 H       1  UNL1        0.0292
     29 H          -3.6357   -2.4551    1.4127 H       1  UNL1        0.1653
     30 H           1.2773   -1.4013   -1.6192 H       1  UNL1        0.0393
     31 H           2.6151   -1.1665    0.4112 H       1  UNL1        0.0433
     32 H           1.3157   -0.1335    1.1967 H       1  UNL1        0.0433
     33 H           3.6826    0.4712    1.2286 H       1  UNL1        0.0449
     34 H           2.6449    1.9204    1.3897 H       1  UNL1        0.0449
     35 H           3.9662    2.9270   -0.5703 H       1  UNL1        0.0572
     36 H           4.8451    2.6058    0.9713 H       1  UNL1        0.0572
     37 H           5.2334   -0.2290   -1.8665 H       1  UNL1        0.0572
     38 H           4.6038   -0.6381   -0.2537 H       1  UNL1        0.0572
     39 H           2.9733   -0.4706   -2.0662 H       1  UNL1        0.0449
     40 H           3.2802    1.3110   -2.1170 H       1  UNL1        0.0449
     41 H           0.6817   -3.3761   -0.7930 H       1  UNL1        0.0276
     42 H           1.2004   -2.7250    0.7444 H       1  UNL1        0.0276
     43 H          -1.3154   -3.6979    0.1378 H       1  UNL1        0.0328
     44 H          -0.8261   -2.9645    1.6532 H       1  UNL1        0.0328
@<TRIPOS>BOND
     1     1     2    1
     2     2     3    1
     3     3     4   ar
     4     4     5    1
     5     4     6   ar
     6     6     7   ar
     7     7     8   ar
     8     8     9    1
     9     9    10    2
    10     9    11    1
    11    11    12    1
    12    12    13    1
    13    13    14    1
    14    14    15    1
    15    15    16    1
    16    16    17    1
    17    17    18    1
    18    11    19    1
    19    19    20    1
    20     8     3   ar
    21    18    13    1
    22    20     7    1
    23     1    21    1
    24     1    22    1
    25     1    23    1
    26     2    24    1
    27     2    25    1
    28     5    26    1
    29     5    27    1
    30     5    28    1
    31     6    29    1
    32    11    30    1
    33    12    31    1
    34    12    32    1
    35    14    33    1
    36    14    34    1
    37    15    35    1
    38    15    36    1
    39    17    37    1
    40    17    38    1
    41    18    39    1
    42    18    40    1
    43    19    41    1
    44    19    42    1
    45    20    43    1
    46    20    44    1
