@<TRIPOS>MOLECULE
*****
 31 33 0 0 0
SMALL
GASTEIGER

@<TRIPOS>ATOM
      1 CL         -2.1158   -0.9048   -2.2542 Cl      1  UNL1       -0.0832
      2 C          -2.4867    0.0868   -0.8315 C.ar    1  UNL1        0.0454
      3 C          -3.3573    1.1452   -1.0006 C.ar    1  UNL1       -0.0431
      4 C          -3.6519    1.9269    0.1163 C.ar    1  UNL1       -0.0604
      5 C          -3.0602    1.6063    1.3375 C.ar    1  UNL1       -0.0614
      6 C          -2.1945    0.5434    1.4773 C.ar    1  UNL1       -0.0560
      7 C          -1.8868   -0.2477    0.3800 C.ar    1  UNL1       -0.0151
      8 C          -0.9563   -1.4071    0.4906 C.3     1  UNL1        0.0258
      9 N           0.3302   -1.0640   -0.0790 N.3     1  UNL1       -0.2936
     10 C           1.1726   -2.2370    0.0522 C.3     1  UNL1        0.0040
     11 C           2.3725   -1.9456   -0.8372 C.3     1  UNL1       -0.0083
     12 C           2.6925   -0.5369   -0.7462 C.ar    1  UNL1       -0.0046
     13 C           2.1076    0.5025   -0.1073 C.ar    1  UNL1       -0.0231
     14 C           0.8902    0.0612    0.6386 C.3     1  UNL1        0.0251
     15 C           2.6213    1.7632   -0.1848 C.ar    1  UNL1       -0.0501
     16 C           3.7977    1.8949   -0.9755 C.ar    1  UNL1       -0.0238
     17 S           4.1366    0.1329   -1.6031 S.2     1  UNL1       -0.1012
     18 H          -3.7857    1.3424   -1.9776 H       1  UNL1        0.0632
     19 H          -4.3261    2.7649    0.0338 H       1  UNL1        0.0618
     20 H          -3.3313    2.2576    2.1758 H       1  UNL1        0.0618
     21 H          -1.7633    0.3378    2.4479 H       1  UNL1        0.0621
     22 H          -1.3966   -2.3109   -0.0053 H       1  UNL1        0.0476
     23 H          -0.7927   -1.6121    1.5724 H       1  UNL1        0.0476
     24 H           0.6208   -3.1210   -0.3267 H       1  UNL1        0.0430
     25 H           1.4264   -2.3579    1.1091 H       1  UNL1        0.0430
     26 H           3.1963   -2.6311   -0.5501 H       1  UNL1        0.0331
     27 H           2.0374   -2.2277   -1.8609 H       1  UNL1        0.0331
     28 H           0.0880    0.8526    0.6352 H       1  UNL1        0.0476
     29 H           1.0768   -0.1745    1.6918 H       1  UNL1        0.0476
     30 H           2.2145    2.6372    0.2944 H       1  UNL1        0.0626
     31 H           4.3240    2.9228   -1.1132 H       1  UNL1        0.0693
@<TRIPOS>BOND
     1     1     2    1
     2     2     3   ar
     3     3     4   ar
     4     4     5   ar
     5     5     6   ar
     6     6     7   ar
     7     7     8    1
     8     8     9    1
     9     9    10    1
    10    10    11    1
    11    11    12    1
    12    12    13   ar
    13    13    14    1
    14    13    15   ar
    15    15    16   ar
    16    16    17   ar
    17     7     2   ar
    18    14     9    1
    19    17    12   ar
    20     3    18    1
    21     4    19    1
    22     5    20    1
    23     6    21    1
    24     8    22    1
    25     8    23    1
    26    10    24    1
    27    10    25    1
    28    11    26    1
    29    11    27    1
    30    14    28    1
    31    14    29    1
    32    15    30    1
    33    16    31    1
