@<TRIPOS>MOLECULE
*****
 38 41 0 0 0
SMALL
GASTEIGER

@<TRIPOS>ATOM
      1 BR          7.3762    0.1135    0.1103 Br      1  UNL1       -0.0503
      2 C           5.6018   -0.6152    0.1184 C.ar    1  UNL1        0.0185
      3 C           5.4463   -1.9848    0.1718 C.ar    1  UNL1       -0.0477
      4 C           4.1689   -2.5051    0.1774 C.ar    1  UNL1       -0.0601
      5 C           3.0727   -1.6692    0.1306 C.ar    1  UNL1       -0.0525
      6 C           3.1888   -0.2970    0.0766 C.ar    1  UNL1        0.0019
      7 C           4.4807    0.1863    0.0726 C.ar    1  UNL1       -0.0386
      8 C           2.0755    0.6431    0.0254 C.ar    1  UNL1        0.0869
      9 N           2.2977    1.9687   -0.0254 N.ar    1  UNL1       -0.1651
     10 C           1.2740    2.8373   -0.0727 C.ar    1  UNL1        0.4412
     11 N          -0.0198    2.4487   -0.0726 N.ar    1  UNL1       -0.0185
     12 N          -0.7914    3.5260   -0.1253 N.ar    1  UNL1       -0.1423
     13 C           0.0428    4.6013   -0.1587 C.ar    1  UNL1        0.1573
     14 N           1.3159    4.1886   -0.1268 N.ar    1  UNL1       -0.1507
     15 C          -0.3050    1.1279   -0.0227 C.ar    1  UNL1        0.3063
     16 N          -1.6464    0.6504   -0.0195 N.pl3   1  UNL1       -0.2852
     17 C          -1.8786   -0.7658    0.0349 C.3     1  UNL1        0.0396
     18 C          -3.3041   -1.1424    0.0331 C.ar    1  UNL1       -0.0274
     19 C          -4.0506   -1.3889   -1.0986 C.ar    1  UNL1       -0.0389
     20 C          -5.3890   -1.7348   -0.9253 C.ar    1  UNL1        0.0279
     21 N          -5.9879   -1.8412    0.2603 N.ar    1  UNL1       -0.2632
     22 C          -5.3047   -1.6119    1.3796 C.ar    1  UNL1        0.0279
     23 C          -3.9642   -1.2632    1.2574 C.ar    1  UNL1       -0.0389
     24 C           0.7722    0.2592    0.0252 C.ar    1  UNL1        0.0551
     25 H           6.2639   -2.6920    0.2101 H       1  UNL1        0.0629
     26 H           3.9635   -3.5715    0.2180 H       1  UNL1        0.0618
     27 H           2.0754   -2.0846    0.1354 H       1  UNL1        0.0624
     28 H           4.6925    1.2469    0.0324 H       1  UNL1        0.0635
     29 H          -1.8346    3.5348   -0.1381 H       1  UNL1        0.2384
     30 H          -0.3003    5.6354   -0.2045 H       1  UNL1        0.1083
     31 H          -2.4105    1.3536   -0.0571 H       1  UNL1        0.1519
     32 H          -1.3440   -1.1635    0.9220 H       1  UNL1        0.0512
     33 H          -1.3873   -1.2090   -0.8703 H       1  UNL1        0.0512
     34 H          -3.5654   -1.3023   -2.0496 H       1  UNL1        0.0636
     35 H          -5.9128   -1.9140   -1.8616 H       1  UNL1        0.0829
     36 H          -5.7723   -1.6934    2.3419 H       1  UNL1        0.0829
     37 H          -3.4433   -1.0846    2.1987 H       1  UNL1        0.0636
     38 H           0.5035   -0.7875    0.0642 H       1  UNL1        0.0721
@<TRIPOS>UNITY_ATOM_ATTR
11 1
charge 1
@<TRIPOS>BOND
     1     1     2    1
     2     2     3   ar
     3     3     4   ar
     4     4     5   ar
     5     5     6   ar
     6     6     7   ar
     7     6     8    1
     8     8     9   ar
     9     9    10   ar
    10    10    11   ar
    11    11    12   ar
    12    12    13   ar
    13    13    14   ar
    14    11    15   ar
    15    15    16    1
    16    16    17    1
    17    17    18    1
    18    18    19   ar
    19    19    20   ar
    20    20    21   ar
    21    21    22   ar
    22    22    23   ar
    23    15    24   ar
    24     7     2   ar
    25    24     8   ar
    26    14    10   ar
    27    23    18   ar
    28     3    25    1
    29     4    26    1
    30     5    27    1
    31     7    28    1
    32    12    29    1
    33    13    30    1
    34    16    31    1
    35    17    32    1
    36    17    33    1
    37    19    34    1
    38    20    35    1
    39    22    36    1
    40    23    37    1
    41    24    38    1
