@<TRIPOS>MOLECULE
*****
 32 34 0 0 0
SMALL
GASTEIGER

@<TRIPOS>ATOM
      1 C          -4.1667   -2.3970    1.0232 C.3     1  UNL1       -0.0496
      2 C          -4.5366   -1.0044    0.5935 C.3     1  UNL1        0.0077
      3 N          -3.4247   -0.1279    0.8876 N.pl3   1  UNL1       -0.3275
      4 C          -2.1742   -0.3955    0.2750 C.ar    1  UNL1        0.1511
      5 N          -1.9665   -1.4175   -0.5623 N.ar    1  UNL1       -0.2014
      6 C          -0.7761   -1.6729   -1.1459 C.ar    1  UNL1        0.2356
      7 C          -0.6364   -2.7994   -2.0395 C.1     1  UNL1        0.1400
      8 N          -0.5217   -3.7134   -2.7561 N.1     1  UNL1       -0.1876
      9 N           0.2418   -0.8516   -0.8624 N.ar    1  UNL1       -0.1984
     10 C           0.1451    0.2063   -0.0344 C.ar    1  UNL1        0.1711
     11 C          -1.0898    0.4362    0.5445 C.ar    1  UNL1        0.1478
     12 N          -0.9282    1.5261    1.3116 N.ar    1  UNL1       -0.2303
     13 C           0.3453    1.9544    1.2153 C.ar    1  UNL1        0.1028
     14 N           1.0220    1.1399    0.3798 N.ar    1  UNL1       -0.2829
     15 C           2.3997    1.2592    0.0167 C.ar    1  UNL1        0.0549
     16 C           3.3256    0.3329    0.4430 C.ar    1  UNL1       -0.0023
     17 C           4.6651    0.4460    0.0919 C.ar    1  UNL1        0.1281
     18 F           5.5298   -0.4882    0.5361 F       1  UNL1       -0.2053
     19 C           5.0444    1.5111   -0.6957 C.ar    1  UNL1        0.0089
     20 C           4.1437    2.4396   -1.1286 C.ar    1  UNL1        0.1281
     21 F           4.5755    3.4693   -1.9033 F       1  UNL1       -0.2053
     22 C           2.8127    2.3313   -0.7824 C.ar    1  UNL1       -0.0023
     23 H          -5.0945   -2.9452    1.3395 H       1  UNL1        0.0245
     24 H          -3.4554   -2.3242    1.8709 H       1  UNL1        0.0245
     25 H          -3.7013   -2.9350    0.1517 H       1  UNL1        0.0245
     26 H          -4.6850   -0.9673   -0.5226 H       1  UNL1        0.0459
     27 H          -5.4646   -0.6600    1.1157 H       1  UNL1        0.0459
     28 H          -3.5723    0.6688    1.5358 H       1  UNL1        0.1475
     29 H           0.7859    2.8137    1.7171 H       1  UNL1        0.1033
     30 H           2.9752   -0.4828    1.0585 H       1  UNL1        0.0667
     31 H           6.0839    1.5897   -0.9620 H       1  UNL1        0.0675
     32 H           2.0982    3.0578   -1.1192 H       1  UNL1        0.0667
@<TRIPOS>BOND
     1     1     2    1
     2     2     3    1
     3     3     4    1
     4     4     5   ar
     5     5     6   ar
     6     6     7    1
     7     7     8    3
     8     6     9   ar
     9     9    10   ar
    10    10    11   ar
    11    11    12   ar
    12    12    13   ar
    13    13    14   ar
    14    14    15    1
    15    15    16   ar
    16    16    17   ar
    17    17    18    1
    18    17    19   ar
    19    19    20   ar
    20    20    21    1
    21    20    22   ar
    22    11     4   ar
    23    22    15   ar
    24    14    10   ar
    25     1    23    1
    26     1    24    1
    27     1    25    1
    28     2    26    1
    29     2    27    1
    30     3    28    1
    31    13    29    1
    32    16    30    1
    33    19    31    1
    34    22    32    1
