@<TRIPOS>MOLECULE
*****
 58 61 0 0 0
SMALL
GASTEIGER

@<TRIPOS>ATOM
      1 C          -3.8482   -1.9857    0.5511 C.3     1  UNL1       -0.0395
      2 C          -2.9720   -1.8840   -0.6697 C.3     1  UNL1       -0.0456
      3 C          -2.6232   -0.4465   -0.9482 C.3     1  UNL1       -0.0211
      4 C          -3.9368    0.2931   -1.1790 C.3     1  UNL1       -0.0345
      5 C          -4.7319    0.2315    0.0947 C.3     1  UNL1        0.0476
      6 C          -5.1238   -1.2141    0.3689 C.3     1  UNL1       -0.0362
      7 C          -3.9869    0.7332    1.2885 C.3     1  UNL1       -0.0345
      8 C          -2.6562   -0.0102    1.4407 C.3     1  UNL1       -0.0211
      9 C          -3.0126   -1.4354    1.7094 C.3     1  UNL1       -0.0456
     10 C          -1.9187    0.2437    0.1798 C.3     1  UNL1        0.0289
     11 N          -0.5250    0.0016    0.1535 N.am    1  UNL1       -0.3087
     12 C           0.4035    1.0350   -0.1029 C.2     1  UNL1        0.2566
     13 O           0.0251    2.2355   -0.3228 O.2     1  UNL1       -0.2714
     14 C           1.8823    1.0804   -0.1912 C.3     1  UNL1        0.1799
     15 C           2.3741    2.0391    0.8721 C.3     1  UNL1       -0.0165
     16 C           2.3532    1.6060   -1.5300 C.3     1  UNL1       -0.0165
     17 O           2.4797   -0.1617    0.0252 O.3     1  UNL1       -0.4770
     18 C           3.8344   -0.4223    0.0093 C.ar    1  UNL1        0.1222
     19 C           4.9296    0.3876   -0.2023 C.ar    1  UNL1       -0.0164
     20 C           6.1974   -0.1352   -0.1632 C.ar    1  UNL1       -0.0165
     21 C           6.4028   -1.4696    0.0864 C.ar    1  UNL1        0.1203
     22 O           7.7005   -1.9412    0.1141 O.3     1  UNL1       -0.4951
     23 C           8.7601   -1.0572   -0.1103 C.3     1  UNL1        0.0788
     24 C           5.3406   -2.3180    0.3039 C.ar    1  UNL1       -0.0165
     25 C           4.0505   -1.7811    0.2631 C.ar    1  UNL1       -0.0164
     26 C          -5.9635    1.0208   -0.0825 C.2     1  UNL1        0.2167
     27 N          -6.8079    0.5489   -1.1518 N.am    1  UNL1       -0.3289
     28 O          -6.5925    2.0190    0.3838 O.2     1  UNL1       -0.2754
     29 H          -4.1260   -3.0340    0.7417 H       1  UNL1        0.0301
     30 H          -2.0997   -2.5314   -0.4982 H       1  UNL1        0.0271
     31 H          -3.5746   -2.2373   -1.5264 H       1  UNL1        0.0271
     32 H          -2.0051   -0.4463   -1.8860 H       1  UNL1        0.0319
     33 H          -4.5349   -0.2040   -1.9661 H       1  UNL1        0.0278
     34 H          -3.6853    1.3477   -1.3978 H       1  UNL1        0.0278
     35 H          -5.7254   -1.2443    1.2851 H       1  UNL1        0.0278
     36 H          -5.6602   -1.6600   -0.4691 H       1  UNL1        0.0278
     37 H          -3.6978    1.7965    1.1303 H       1  UNL1        0.0278
     38 H          -4.6170    0.5755    2.1727 H       1  UNL1        0.0278
     39 H          -2.2236    0.4426    2.3443 H       1  UNL1        0.0319
     40 H          -3.6827   -1.4524    2.5960 H       1  UNL1        0.0271
     41 H          -2.1789   -2.1252    1.8438 H       1  UNL1        0.0271
     42 H          -2.0486    1.3318   -0.0310 H       1  UNL1        0.0504
     43 H           0.0015   -0.8975    0.3052 H       1  UNL1        0.1491
     44 H           1.5598    2.3561    1.5667 H       1  UNL1        0.0273
     45 H           2.8062    2.9700    0.4624 H       1  UNL1        0.0273
     46 H           3.1516    1.5703    1.5307 H       1  UNL1        0.0273
     47 H           2.8513    2.5906   -1.4720 H       1  UNL1        0.0273
     48 H           1.4583    1.7841   -2.1971 H       1  UNL1        0.0273
     49 H           3.0078    0.9223   -2.0792 H       1  UNL1        0.0273
     50 H           4.6295    1.4097   -0.3853 H       1  UNL1        0.0655
     51 H           6.9627    0.6014   -0.3443 H       1  UNL1        0.0655
     52 H           8.8668   -0.3792    0.7540 H       1  UNL1        0.0660
     53 H           8.6298   -0.4222   -1.0138 H       1  UNL1        0.0660
     54 H           9.6905   -1.6550   -0.1975 H       1  UNL1        0.0660
     55 H           5.5550   -3.3545    0.4951 H       1  UNL1        0.0655
     56 H           3.2933   -2.5565    0.4514 H       1  UNL1        0.0655
     57 H          -6.8377    0.3099   -2.1793 H       1  UNL1        0.1449
     58 H          -7.8010    0.2594   -1.2267 H       1  UNL1        0.1449
@<TRIPOS>BOND
     1     1     2    1
     2     2     3    1
     3     3     4    1
     4     4     5    1
     5     5     6    1
     6     5     7    1
     7     7     8    1
     8     8     9    1
     9     8    10    1
    10    10    11    1
    11    11    12   am
    12    12    13    2
    13    12    14    1
    14    14    15    1
    15    14    16    1
    16    14    17    1
    17    17    18    1
    18    18    19   ar
    19    19    20   ar
    20    20    21   ar
    21    21    22    1
    22    22    23    1
    23    21    24   ar
    24    24    25   ar
    25     5    26    1
    26    26    27   am
    27    26    28    2
    28     6     1    1
    29    25    18   ar
    30     9     1    1
    31    10     3    1
    32     1    29    1
    33     2    30    1
    34     2    31    1
    35     3    32    1
    36     4    33    1
    37     4    34    1
    38     6    35    1
    39     6    36    1
    40     7    37    1
    41     7    38    1
    42     8    39    1
    43     9    40    1
    44     9    41    1
    45    10    42    1
    46    11    43    1
    47    15    44    1
    48    15    45    1
    49    15    46    1
    50    16    47    1
    51    16    48    1
    52    16    49    1
    53    19    50    1
    54    20    51    1
    55    23    52    1
    56    23    53    1
    57    23    54    1
    58    24    55    1
    59    25    56    1
    60    27    57    1
    61    27    58    1
