@<TRIPOS>MOLECULE
*****
 149 153 0 0 0
SMALL
GASTEIGER

@<TRIPOS>ATOM
      1 C          10.7360    2.7098    1.1727 C.3     1  UNL1       -0.0629
      2 C          10.8557    1.2801    0.6969 C.3     1  UNL1       -0.0296
      3 C           9.7842    0.3659    1.0881 C.3     1  UNL1        0.0574
      4 O           9.6310    0.3268    2.5012 O.3     1  UNL1       -0.3917
      5 C           8.5412    0.1529    0.3564 C.3     1  UNL1       -0.0004
      6 C           7.6248    1.2613    0.0862 C.3     1  UNL1        0.0643
      7 C           8.0607    2.3777   -0.8037 C.3     1  UNL1       -0.0262
      8 C           7.1602    3.5704   -0.4352 C.3     1  UNL1       -0.0458
      9 C           5.9233    3.0890    0.2498 C.3     1  UNL1        0.0016
     10 C           5.3746    1.7856   -0.2463 C.3     1  UNL1        0.1740
     11 C           4.6128    2.0184   -1.5196 C.3     1  UNL1        0.0389
     12 C           3.6212    0.9457   -1.8342 C.3     1  UNL1        0.1132
     13 O           2.4633    1.4407   -2.3857 O.3     1  UNL1       -0.4577
     14 C           2.0406    2.0409   -3.4856 C.2     1  UNL1        0.3320
     15 O           3.0165    2.2429   -4.3154 O.2     1  UNL1       -0.2456
     16 C           0.6495    2.4869   -3.8715 C.2     1  UNL1        0.0213
     17 C          -0.4611    2.4277   -3.2723 C.2     1  UNL1       -0.0439
     18 C          -1.9147    2.8226   -3.5276 C.3     1  UNL1        0.1079
     19 C          -2.1723    3.8550   -4.5474 C.3     1  UNL1       -0.0300
     20 O          -2.6060    1.6421   -3.8612 O.3     1  UNL1       -0.3822
     21 C          -2.5505    3.3121   -2.2338 C.3     1  UNL1        0.0921
     22 O          -2.3024    4.5945   -1.8808 O.3     1  UNL1       -0.3883
     23 C          -3.8417    2.6558   -1.8490 C.3     1  UNL1        0.0137
     24 C          -4.3949    3.5324   -0.6953 C.3     1  UNL1       -0.0575
     25 C          -3.4890    1.3264   -1.1597 C.3     1  UNL1        0.0889
     26 O          -2.8073    1.6135   -0.0044 O.3     1  UNL1       -0.3888
     27 C          -4.5614    0.3034   -1.1094 C.3     1  UNL1        0.1162
     28 O          -5.5160    0.4448   -0.1398 O.3     1  UNL1       -0.3429
     29 C          -6.7848    0.7898   -0.5610 C.3     1  UNL1        0.1602
     30 C          -7.7844   -0.3234   -0.2788 C.3     1  UNL1       -0.0001
     31 C          -9.1983    0.1917   -0.1676 C.3     1  UNL1       -0.0304
     32 C          -9.2865    1.4067    0.7275 C.3     1  UNL1        0.0360
     33 N         -10.0857    1.1435    1.9082 N.3     1  UNL1       -0.3030
     34 C         -10.1710    2.2948    2.7610 C.3     1  UNL1       -0.0127
     35 C         -11.4506    0.8644    1.4299 C.3     1  UNL1       -0.0127
     36 C          -7.9108    1.9324    1.0849 C.3     1  UNL1        0.0743
     37 C          -7.2975    1.2176    2.2374 C.3     1  UNL1       -0.0371
     38 O          -7.1616    1.9989   -0.0576 O.3     1  UNL1       -0.3468
     39 C          -4.1846   -1.0867   -1.4572 C.3     1  UNL1        0.1121
     40 O          -3.2350   -1.1235   -2.4541 O.3     1  UNL1       -0.3863
     41 C          -3.8511   -2.0665   -0.3510 C.3     1  UNL1        0.0915
     42 C          -4.1790   -3.4303   -0.9752 C.3     1  UNL1       -0.0335
     43 O          -4.7563   -1.9398    0.7096 O.3     1  UNL1       -0.3862
     44 C          -2.4689   -1.8981    0.0733 C.3     1  UNL1       -0.0217
     45 C          -1.8446   -2.6669    1.1644 C.3     1  UNL1       -0.0504
     46 C          -1.7286   -4.1080    0.8946 C.3     1  UNL1       -0.0527
     47 C          -1.1236   -4.9911    1.9045 C.3     1  UNL1       -0.0496
     48 C           0.3124   -4.8835    2.2770 C.3     1  UNL1       -0.0347
     49 C           0.6959   -3.6302    2.8632 C.2     1  UNL1       -0.0875
     50 C           1.6547   -2.8444    2.4681 C.2     1  UNL1       -0.0797
     51 C           2.5594   -3.0518    1.3517 C.3     1  UNL1        0.0338
     52 C           3.1991   -4.4071    1.2145 C.3     1  UNL1       -0.0130
     53 C           4.6621   -4.0735    0.9510 C.3     1  UNL1        0.0679
     54 C           5.1131   -4.8933   -0.2350 C.3     1  UNL1       -0.0359
     55 C           5.4938   -4.4699    2.1372 C.3     1  UNL1       -0.0359
     56 O           4.6886   -2.7095    0.6794 O.3     1  UNL1       -0.3422
     57 C           3.8203   -2.2008    1.6131 C.3     1  UNL1        0.1766
     58 O           4.2056   -2.5626    2.9179 O.3     1  UNL1       -0.3639
     59 C           3.5960   -0.7494    1.5932 C.3     1  UNL1        0.0286
     60 C           4.1965   -0.0168    0.3841 C.3     1  UNL1        0.0728
     61 O           4.5321    1.2830    0.7511 O.3     1  UNL1       -0.3447
     62 C           3.2093    0.0449   -0.7228 C.3     1  UNL1        0.0200
     63 C           1.9083    0.5971   -0.1147 C.3     1  UNL1       -0.0567
     64 O           6.3694    0.8388   -0.4141 O.3     1  UNL1       -0.3452
     65 H          11.4625    2.9509    1.9848 H       1  UNL1        0.0231
     66 H           9.7109    2.9952    1.4797 H       1  UNL1        0.0231
     67 H          11.0063    3.3896    0.3204 H       1  UNL1        0.0231
     68 H          10.9766    1.2612   -0.4181 H       1  UNL1        0.0287
     69 H          11.8744    0.9440    1.0785 H       1  UNL1        0.0287
     70 H          10.3505   -0.7134    0.9647 H       1  UNL1        0.0594
     71 H           8.8398    0.8594    2.7735 H       1  UNL1        0.2098
     72 H           8.7938   -0.4094   -0.6257 H       1  UNL1        0.0315
     73 H           7.9520   -0.6269    0.9610 H       1  UNL1        0.0315
     74 H           7.3404    1.6743    1.1170 H       1  UNL1        0.0598
     75 H           9.0993    2.6187   -0.8841 H       1  UNL1        0.0290
     76 H           7.6539    2.0912   -1.8509 H       1  UNL1        0.0290
     77 H           7.7399    4.1852    0.2815 H       1  UNL1        0.0268
     78 H           6.8807    4.1380   -1.3332 H       1  UNL1        0.0268
     79 H           5.1322    3.8770    0.0292 H       1  UNL1        0.0317
     80 H           5.9905    3.1367    1.3679 H       1  UNL1        0.0317
     81 H           5.3401    2.0823   -2.3495 H       1  UNL1        0.0353
     82 H           4.0764    2.9913   -1.4943 H       1  UNL1        0.0353
     83 H           4.0701    0.2569   -2.6252 H       1  UNL1        0.0739
     84 H           0.8565    2.9021   -4.9200 H       1  UNL1        0.0686
     85 H          -0.6568    1.9518   -2.2243 H       1  UNL1        0.0603
     86 H          -1.1987    4.3797   -4.7718 H       1  UNL1        0.0261
     87 H          -2.9209    4.6139   -4.2186 H       1  UNL1        0.0261
     88 H          -2.4993    3.4239   -5.5211 H       1  UNL1        0.0261
     89 H          -2.1516    1.2728   -4.6601 H       1  UNL1        0.2107
     90 H          -1.7748    2.7739   -1.4499 H       1  UNL1        0.0629
     91 H          -2.9492    5.2630   -2.2231 H       1  UNL1        0.2099
     92 H          -4.5697    2.5517   -2.6446 H       1  UNL1        0.0350
     93 H          -3.7417    4.3691   -0.4684 H       1  UNL1        0.0234
     94 H          -5.4133    3.8844   -1.0312 H       1  UNL1        0.0234
     95 H          -4.5893    2.8643    0.1539 H       1  UNL1        0.0234
     96 H          -2.7022    0.8804   -1.8953 H       1  UNL1        0.0623
     97 H          -3.3589    1.3411    0.7572 H       1  UNL1        0.2099
     98 H          -5.1935    0.6064   -2.0838 H       1  UNL1        0.0650
     99 H          -6.7392    0.9042   -1.6862 H       1  UNL1        0.0910
    100 H          -7.4406   -0.8555    0.6210 H       1  UNL1        0.0314
    101 H          -7.7621   -1.0469   -1.1213 H       1  UNL1        0.0314
    102 H          -9.6256    0.3549   -1.1780 H       1  UNL1        0.0283
    103 H          -9.8015   -0.6208    0.3009 H       1  UNL1        0.0283
    104 H          -9.8018    2.2023    0.1523 H       1  UNL1        0.0488
    105 H          -9.5290    2.1313    3.6515 H       1  UNL1        0.0391
    106 H          -9.8924    3.2401    2.2955 H       1  UNL1        0.0391
    107 H         -11.2143    2.4147    3.1450 H       1  UNL1        0.0391
    108 H         -11.5890    1.2560    0.4000 H       1  UNL1        0.0391
    109 H         -12.2032    1.4291    2.0487 H       1  UNL1        0.0391
    110 H         -11.7022   -0.1909    1.5385 H       1  UNL1        0.0391
    111 H          -8.0782    3.0097    1.3983 H       1  UNL1        0.0610
    112 H          -7.9153    0.3781    2.6216 H       1  UNL1        0.0255
    113 H          -7.2101    1.9200    3.1025 H       1  UNL1        0.0255
    114 H          -6.2734    0.9212    1.9916 H       1  UNL1        0.0255
    115 H          -5.1285   -1.5411   -1.9871 H       1  UNL1        0.0649
    116 H          -3.3679   -1.8298   -3.1165 H       1  UNL1        0.2100
    117 H          -3.3137   -3.8186   -1.5269 H       1  UNL1        0.0258
    118 H          -4.7156   -4.1029   -0.3193 H       1  UNL1        0.0258
    119 H          -4.9330   -3.2005   -1.7986 H       1  UNL1        0.0258
    120 H          -5.6085   -2.4203    0.5165 H       1  UNL1        0.2103
    121 H          -2.2970   -0.8097    0.3324 H       1  UNL1        0.0294
    122 H          -1.7604   -2.0190   -0.8249 H       1  UNL1        0.0294
    123 H          -0.7809   -2.2701    1.2421 H       1  UNL1        0.0266
    124 H          -2.2536   -2.4266    2.1800 H       1  UNL1        0.0266
    125 H          -2.6885   -4.5845    0.5571 H       1  UNL1        0.0265
    126 H          -1.0836   -4.2003   -0.0434 H       1  UNL1        0.0265
    127 H          -1.7766   -4.9090    2.8369 H       1  UNL1        0.0268
    128 H          -1.2878   -6.0767    1.5603 H       1  UNL1        0.0268
    129 H           0.8695   -5.1477    1.3389 H       1  UNL1        0.0307
    130 H           0.5202   -5.7266    3.0027 H       1  UNL1        0.0307
    131 H           0.1339   -3.2486    3.7596 H       1  UNL1        0.0569
    132 H           1.8271   -1.8724    3.0350 H       1  UNL1        0.0573
    133 H           2.1301   -2.8064    0.3584 H       1  UNL1        0.0396
    134 H           2.8130   -4.9959    0.3366 H       1  UNL1        0.0300
    135 H           3.0886   -5.0281    2.1222 H       1  UNL1        0.0300
    136 H           4.5121   -5.8247   -0.3527 H       1  UNL1        0.0257
    137 H           6.1701   -5.2286   -0.1060 H       1  UNL1        0.0257
    138 H           4.9837   -4.3346   -1.1942 H       1  UNL1        0.0257
    139 H           6.1472   -5.3597    1.8879 H       1  UNL1        0.0257
    140 H           4.8737   -4.8036    2.9836 H       1  UNL1        0.0257
    141 H           6.1969   -3.6791    2.4801 H       1  UNL1        0.0257
    142 H           3.4891   -2.9240    3.4610 H       1  UNL1        0.2128
    143 H           4.0735   -0.2741    2.4680 H       1  UNL1        0.0342
    144 H           2.5181   -0.5446    1.6884 H       1  UNL1        0.0342
    145 H           5.1248   -0.5470    0.0553 H       1  UNL1        0.0602
    146 H           2.9723   -0.9708   -1.1427 H       1  UNL1        0.0359
    147 H           1.3810    1.2628   -0.8382 H       1  UNL1        0.0234
    148 H           2.0740    1.1982    0.7789 H       1  UNL1        0.0234
    149 H           1.2554   -0.2657    0.1300 H       1  UNL1        0.0234
@<TRIPOS>BOND
     1     1     2    1
     2     2     3    1
     3     3     4    1
     4     3     5    1
     5     5     6    1
     6     6     7    1
     7     7     8    1
     8     8     9    1
     9     9    10    1
    10    10    11    1
    11    11    12    1
    12    12    13    1
    13    13    14    1
    14    14    15    2
    15    14    16    1
    16    16    17    2
    17    17    18    1
    18    18    19    1
    19    18    20    1
    20    18    21    1
    21    21    22    1
    22    21    23    1
    23    23    24    1
    24    23    25    1
    25    25    26    1
    26    25    27    1
    27    27    28    1
    28    28    29    1
    29    29    30    1
    30    30    31    1
    31    31    32    1
    32    32    33    1
    33    33    34    1
    34    33    35    1
    35    32    36    1
    36    36    37    1
    37    36    38    1
    38    27    39    1
    39    39    40    1
    40    39    41    1
    41    41    42    1
    42    41    43    1
    43    41    44    1
    44    44    45    1
    45    45    46    1
    46    46    47    1
    47    47    48    1
    48    48    49    1
    49    49    50    2
    50    50    51    1
    51    51    52    1
    52    52    53    1
    53    53    54    1
    54    53    55    1
    55    53    56    1
    56    56    57    1
    57    57    58    1
    58    57    59    1
    59    59    60    1
    60    60    61    1
    61    60    62    1
    62    62    63    1
    63    10    64    1
    64    64     6    1
    65    61    10    1
    66    62    12    1
    67    38    29    1
    68    57    51    1
    69     1    65    1
    70     1    66    1
    71     1    67    1
    72     2    68    1
    73     2    69    1
    74     3    70    1
    75     4    71    1
    76     5    72    1
    77     5    73    1
    78     6    74    1
    79     7    75    1
    80     7    76    1
    81     8    77    1
    82     8    78    1
    83     9    79    1
    84     9    80    1
    85    11    81    1
    86    11    82    1
    87    12    83    1
    88    16    84    1
    89    17    85    1
    90    19    86    1
    91    19    87    1
    92    19    88    1
    93    20    89    1
    94    21    90    1
    95    22    91    1
    96    23    92    1
    97    24    93    1
    98    24    94    1
    99    24    95    1
   100    25    96    1
   101    26    97    1
   102    27    98    1
   103    29    99    1
   104    30   100    1
   105    30   101    1
   106    31   102    1
   107    31   103    1
   108    32   104    1
   109    34   105    1
   110    34   106    1
   111    34   107    1
   112    35   108    1
   113    35   109    1
   114    35   110    1
   115    36   111    1
   116    37   112    1
   117    37   113    1
   118    37   114    1
   119    39   115    1
   120    40   116    1
   121    42   117    1
   122    42   118    1
   123    42   119    1
   124    43   120    1
   125    44   121    1
   126    44   122    1
   127    45   123    1
   128    45   124    1
   129    46   125    1
   130    46   126    1
   131    47   127    1
   132    47   128    1
   133    48   129    1
   134    48   130    1
   135    49   131    1
   136    50   132    1
   137    51   133    1
   138    52   134    1
   139    52   135    1
   140    54   136    1
   141    54   137    1
   142    54   138    1
   143    55   139    1
   144    55   140    1
   145    55   141    1
   146    58   142    1
   147    59   143    1
   148    59   144    1
   149    60   145    1
   150    62   146    1
   151    63   147    1
   152    63   148    1
   153    63   149    1
