
     RDKit          3D

160165  0  0  0  0  0  0  0  0999 V2000
    6.3706   -2.9319    2.1090 C   0  0  0  0  0  0  0  0  0  0  0  0
    6.4519   -3.2164    0.6110 C   0  0  0  0  0  0  0  0  0  0  0  0
    6.4252   -4.8002    0.5236 C   0  0  0  0  0  0  0  0  0  0  0  0
    5.1846   -2.7479   -0.0401 C   0  0  0  0  0  0  0  0  0  0  0  0
    4.7695   -1.3164   -0.0036 C   0  0  0  0  0  0  0  0  0  0  0  0
    3.4073   -1.1980   -0.5696 N   0  0  0  0  0  0  0  0  0  0  0  0
    3.0007   -2.1327   -1.5535 C   0  0  0  0  0  0  0  0  0  0  0  0
    3.6468   -3.0664   -2.1665 O   0  0  0  0  0  0  0  0  0  0  0  0
    1.7739   -2.5177   -2.2911 C   0  0  0  0  0  0  0  0  0  0  0  0
    0.5974   -1.9341   -1.8447 N   0  0  0  0  0  0  0  0  0  0  0  0
   -0.3135   -1.5765   -0.8746 C   0  0  0  0  0  0  0  0  0  0  0  0
    0.4289   -2.0864    0.1449 O   0  0  0  0  0  0  0  0  0  0  0  0
   -1.5273   -1.0347   -0.1156 C   0  0  0  0  0  0  0  0  0  0  0  0
   -1.1237    0.3864    0.0890 C   0  0  0  0  0  0  0  0  0  0  0  0
   -1.9776    1.3316    0.8067 C   0  0  0  0  0  0  0  0  0  0  0  0
   -2.8651    2.1289    0.0554 C   0  0  0  0  0  0  0  0  0  0  0  0
   -3.5686    3.0519    0.7907 C   0  0  0  0  0  0  0  0  0  0  0  0
   -3.4308    3.1906    2.1612 C   0  0  0  0  0  0  0  0  0  0  0  0
   -4.1983    4.1551    2.7594 O   0  0  0  0  0  0  0  0  0  0  0  0
   -2.5489    2.3558    2.7938 C   0  0  0  0  0  0  0  0  0  0  0  0
   -1.7835    1.4004    2.1697 C   0  0  0  0  0  0  0  0  0  0  0  0
   -2.6176   -1.1171   -1.0836 N   0  0  0  0  0  0  0  0  0  0  0  0
   -2.9355   -2.5605   -1.1471 C   0  0  0  0  0  0  0  0  0  0  0  0
   -2.2597   -3.3288   -0.3812 O   0  0  0  0  0  0  0  0  0  0  0  0
   -3.9961   -2.9975   -2.1030 C   0  0  0  0  0  0  0  0  0  0  0  0
   -4.8516   -4.0636   -1.5464 C   0  0  0  0  0  0  0  0  0  0  0  0
   -4.2435   -5.2302   -1.1286 O   0  0  0  0  0  0  0  0  0  0  0  0
   -4.6809   -1.8180   -2.5752 N   0  0  0  0  0  0  0  0  0  0  0  0
   -5.4355   -1.6009   -1.3376 C   0  0  0  0  0  0  0  0  0  0  0  0
   -5.9738   -1.5887   -0.2266 O   0  0  0  0  0  0  0  0  0  0  0  0
   -6.4723   -0.4508   -1.1348 C   0  0  0  0  0  0  0  0  0  0  0  0
   -5.8298    0.8529   -1.4076 C   0  0  0  0  0  0  0  0  0  0  0  0
   -6.7711    1.9508   -1.2166 C   0  0  0  0  0  0  0  0  0  0  0  0
   -7.5289    2.5803   -2.1489 C   0  0  0  0  0  0  0  0  0  0  0  0
   -8.4225    3.5074   -1.8299 N   0  0  0  0  0  0  0  0  0  0  0  0
   -8.2081    3.5007   -0.4571 C   0  0  0  0  0  0  0  0  0  0  0  0
   -8.6933    4.0750    0.7579 C   0  0  0  0  0  0  0  0  0  0  0  0
   -8.3424    3.8235    1.9878 C   0  0  0  0  0  0  0  0  0  0  0  0
   -7.3682    2.9063    2.4036 C   0  0  0  0  0  0  0  0  0  0  0  0
   -6.8372    2.3056    1.2367 C   0  0  0  0  0  0  0  0  0  0  0  0
   -7.2069    2.5623   -0.0169 C   0  0  0  0  0  0  0  0  0  0  0  0
   -6.8794   -0.6574    0.2597 N   0  0  0  0  0  0  0  0  0  0  0  0
   -8.1843   -1.3188    0.2383 C   0  0  0  0  0  0  0  0  0  0  0  0
   -8.6521   -1.5791   -0.9154 O   0  0  0  0  0  0  0  0  0  0  0  0
   -9.1996   -1.7940    1.2558 C   0  0  0  0  0  0  0  0  0  0  0  0
   -9.1475   -0.8761    2.4806 C   0  0  0  0  0  0  0  0  0  0  0  0
   -9.7250    0.4417    1.9587 C   0  0  0  0  0  0  0  0  0  0  0  0
  -10.4847    1.0389    2.9810 C   0  0  0  0  0  0  0  0  0  0  0  0
  -11.2664    1.9772    2.4518 N   0  0  0  0  0  0  0  0  0  0  0  0
  -11.1002    2.0668    1.1388 C   0  0  0  0  0  0  0  0  0  0  0  0
  -10.1216    1.1252    0.7754 N   0  0  0  0  0  0  0  0  0  0  0  0
  -10.5247   -1.4183    0.6071 N   0  0  0  0  0  0  0  0  0  0  0  0
  -11.1356   -1.9178   -0.5433 C   0  0  0  0  0  0  0  0  0  0  0  0
  -10.5525   -2.8513   -1.1946 O   0  0  0  0  0  0  0  0  0  0  0  0
  -12.3938   -1.4651   -1.0876 C   0  0  0  0  0  0  0  0  0  0  0  0
  -13.5087   -1.4238   -0.0505 C   0  0  0  0  0  0  0  0  0  0  0  0
  -14.4893   -2.3915   -0.6066 C   0  0  0  0  0  0  0  0  0  0  0  0
  -14.2716   -2.1826   -2.0897 C   0  0  0  0  0  0  0  0  0  0  0  0
  -14.8477   -2.0935   -3.2366 O   0  0  0  0  0  0  0  0  0  0  0  0
  -12.8309   -1.9989   -2.3251 N   0  0  0  0  0  0  0  0  0  0  0  0
    5.6789   -0.2377   -0.0654 C   0  0  0  0  0  0  0  0  0  0  0  0
    6.8146   -0.9100   -0.0638 O   0  0  0  0  0  0  0  0  0  0  0  0
    6.1960    1.0294   -0.1291 N   0  0  0  0  0  0  0  0  0  0  0  0
    7.5002    1.6814   -0.2536 C   0  0  0  0  0  0  0  0  0  0  0  0
    7.6887    2.6981    0.7698 C   0  0  0  0  0  0  0  0  0  0  0  0
    8.9283    3.4947    0.7505 C   0  0  0  0  0  0  0  0  0  0  0  0
    9.1631    4.3099   -0.5274 C   0  0  0  0  0  0  0  0  0  0  0  0
    9.2968    3.3512   -1.6425 N   0  0  0  0  0  0  0  0  0  0  0  0
   10.4655    2.7908   -1.6367 C   0  0  0  0  0  0  0  0  0  0  0  0
   11.3506    3.2136   -0.6466 N   0  0  0  0  0  0  0  0  0  0  0  0
   10.8462    1.7549   -2.5807 N   0  0  0  0  0  0  0  0  0  0  0  0
    8.4172    0.6199   -0.5993 C   0  0  0  0  0  0  0  0  0  0  0  0
    8.2483   -0.0034   -1.6690 O   0  0  0  0  0  0  0  0  0  0  0  0
    9.5738   -0.0785   -0.1155 N   0  0  0  0  0  0  0  0  0  0  0  0
    9.9943    0.2383    1.2617 C   0  0  0  0  0  0  0  0  0  0  0  0
    9.9961   -1.0484    2.0217 C   0  0  0  0  0  0  0  0  0  0  0  0
   10.2934   -2.0454    0.8991 C   0  0  0  0  0  0  0  0  0  0  0  0
   10.6551   -1.0145   -0.2235 C   0  0  0  0  0  0  0  0  0  0  0  0
   11.9792   -0.5442    0.1404 C   0  0  0  0  0  0  0  0  0  0  0  0
   12.7125   -1.3852    0.8392 O   0  0  0  0  0  0  0  0  0  0  0  0
   12.9716    0.4288    0.1474 N   0  0  0  0  0  0  0  0  0  0  0  0
   14.1093    1.0787    0.3967 C   0  0  0  0  0  0  0  0  0  0  0  0
   14.6020    2.3618   -0.1211 C   0  0  0  0  0  0  0  0  0  0  0  0
   15.8447    2.7969    0.5799 N   0  0  0  0  0  0  0  0  0  0  0  0
   14.3158    3.3203   -1.0282 O   0  0  0  0  0  0  0  0  0  0  0  0
    6.0577   -1.8919    2.3519 H   0  0  0  0  0  0  0  0  0  0  0  0
    5.5117   -3.5515    2.5435 H   0  0  0  0  0  0  0  0  0  0  0  0
    7.2636   -3.2923    2.6232 H   0  0  0  0  0  0  0  0  0  0  0  0
    7.3648   -2.9533    0.1311 H   0  0  0  0  0  0  0  0  0  0  0  0
    7.2416   -5.1486   -0.1266 H   0  0  0  0  0  0  0  0  0  0  0  0
    6.5293   -5.2088    1.5329 H   0  0  0  0  0  0  0  0  0  0  0  0
    5.4671   -5.1482    0.1417 H   0  0  0  0  0  0  0  0  0  0  0  0
    5.3364   -3.0879   -1.1280 H   0  0  0  0  0  0  0  0  0  0  0  0
    4.3811   -3.4065    0.3191 H   0  0  0  0  0  0  0  0  0  0  0  0
    4.4213   -1.2993    1.1739 H   0  0  0  0  0  0  0  0  0  0  0  0
    2.6575   -0.5485   -0.3938 H   0  0  0  0  0  0  0  0  0  0  0  0
    1.6345   -3.6075   -2.3811 H   0  0  0  0  0  0  0  0  0  0  0  0
    1.9371   -2.1681   -3.3975 H   0  0  0  0  0  0  0  0  0  0  0  0
   -0.1011   -1.5001   -2.6097 H   0  0  0  0  0  0  0  0  0  0  0  0
   -1.6507   -1.6196    0.7638 H   0  0  0  0  0  0  0  0  0  0  0  0
   -0.0630    0.4637    0.5224 H   0  0  0  0  0  0  0  0  0  0  0  0
   -0.9494    0.8683   -0.9385 H   0  0  0  0  0  0  0  0  0  0  0  0
   -2.9533    2.0236   -1.0130 H   0  0  0  0  0  0  0  0  0  0  0  0
   -4.2817    3.6820    0.2282 H   0  0  0  0  0  0  0  0  0  0  0  0
   -5.0458    4.5493    2.3350 H   0  0  0  0  0  0  0  0  0  0  0  0
   -2.4987    2.5465    3.8372 H   0  0  0  0  0  0  0  0  0  0  0  0
   -1.0750    0.7471    2.6911 H   0  0  0  0  0  0  0  0  0  0  0  0
   -3.1201   -0.4222   -1.6450 H   0  0  0  0  0  0  0  0  0  0  0  0
   -3.5135   -3.4398   -3.0474 H   0  0  0  0  0  0  0  0  0  0  0  0
   -5.4986   -3.6831   -0.7307 H   0  0  0  0  0  0  0  0  0  0  0  0
   -5.6079   -4.3789   -2.3414 H   0  0  0  0  0  0  0  0  0  0  0  0
   -4.4410   -5.3734   -0.1511 H   0  0  0  0  0  0  0  0  0  0  0  0
   -4.9099   -1.1154   -3.2507 H   0  0  0  0  0  0  0  0  0  0  0  0
   -7.2540   -0.7031   -1.8801 H   0  0  0  0  0  0  0  0  0  0  0  0
   -4.9775    0.9704   -0.6791 H   0  0  0  0  0  0  0  0  0  0  0  0
   -5.4063    0.8895   -2.4589 H   0  0  0  0  0  0  0  0  0  0  0  0
   -7.5306    2.4294   -3.2524 H   0  0  0  0  0  0  0  0  0  0  0  0
   -9.1592    4.2076   -1.9928 H   0  0  0  0  0  0  0  0  0  0  0  0
   -9.4960    4.8437    0.6134 H   0  0  0  0  0  0  0  0  0  0  0  0
   -8.8129    4.3772    2.7848 H   0  0  0  0  0  0  0  0  0  0  0  0
   -6.9550    2.5649    3.3020 H   0  0  0  0  0  0  0  0  0  0  0  0
   -6.0172    1.5675    1.4041 H   0  0  0  0  0  0  0  0  0  0  0  0
   -6.8478   -0.6602    1.2936 H   0  0  0  0  0  0  0  0  0  0  0  0
   -9.1159   -2.8277    1.4395 H   0  0  0  0  0  0  0  0  0  0  0  0
   -9.6920   -1.2970    3.3269 H   0  0  0  0  0  0  0  0  0  0  0  0
   -8.1061   -0.7417    2.7728 H   0  0  0  0  0  0  0  0  0  0  0  0
  -10.7668    1.1286    4.0199 H   0  0  0  0  0  0  0  0  0  0  0  0
  -11.2756    2.4399    0.1679 H   0  0  0  0  0  0  0  0  0  0  0  0
   -9.3607    0.5639    0.2275 H   0  0  0  0  0  0  0  0  0  0  0  0
  -11.1461   -0.7210    1.0217 H   0  0  0  0  0  0  0  0  0  0  0  0
  -12.1717   -0.3325   -1.3254 H   0  0  0  0  0  0  0  0  0  0  0  0
  -13.9436   -0.3827   -0.0142 H   0  0  0  0  0  0  0  0  0  0  0  0
  -13.1173   -1.6312    0.9712 H   0  0  0  0  0  0  0  0  0  0  0  0
  -14.2479   -3.4355   -0.3785 H   0  0  0  0  0  0  0  0  0  0  0  0
  -15.5496   -2.1717   -0.3887 H   0  0  0  0  0  0  0  0  0  0  0  0
  -12.0025   -2.0891   -2.9487 H   0  0  0  0  0  0  0  0  0  0  0  0
    5.2616    1.5690   -0.0381 H   0  0  0  0  0  0  0  0  0  0  0  0
    7.3734    2.2965   -1.2793 H   0  0  0  0  0  0  0  0  0  0  0  0
    7.5145    2.4174    1.8387 H   0  0  0  0  0  0  0  0  0  0  0  0
    6.8532    3.4776    0.6093 H   0  0  0  0  0  0  0  0  0  0  0  0
    8.8471    4.2795    1.5359 H   0  0  0  0  0  0  0  0  0  0  0  0
    9.8685    2.9743    1.0514 H   0  0  0  0  0  0  0  0  0  0  0  0
    8.3577    5.0071   -0.6106 H   0  0  0  0  0  0  0  0  0  0  0  0
   10.1048    4.8056   -0.4003 H   0  0  0  0  0  0  0  0  0  0  0  0
   11.8417    3.9748   -0.0679 H   0  0  0  0  0  0  0  0  0  0  0  0
   12.0226    3.2792    0.1074 H   0  0  0  0  0  0  0  0  0  0  0  0
   11.8455    1.4648   -2.9060 H   0  0  0  0  0  0  0  0  0  0  0  0
   10.0953    1.2329   -3.0294 H   0  0  0  0  0  0  0  0  0  0  0  0
    9.2814    0.8907    1.7999 H   0  0  0  0  0  0  0  0  0  0  0  0
   10.9851    0.7542    1.2955 H   0  0  0  0  0  0  0  0  0  0  0  0
   10.8136   -1.1252    2.7826 H   0  0  0  0  0  0  0  0  0  0  0  0
    9.0163   -1.2575    2.4399 H   0  0  0  0  0  0  0  0  0  0  0  0
   11.2395   -2.5506    1.1557 H   0  0  0  0  0  0  0  0  0  0  0  0
    9.5156   -2.6940    0.6971 H   0  0  0  0  0  0  0  0  0  0  0  0
   10.6679   -1.6495   -1.1021 H   0  0  0  0  0  0  0  0  0  0  0  0
   12.5252    1.0841   -0.4521 H   0  0  0  0  0  0  0  0  0  0  0  0
   14.0651    1.3851    1.5910 H   0  0  0  0  0  0  0  0  0  0  0  0
   15.0418    0.3989    0.5151 H   0  0  0  0  0  0  0  0  0  0  0  0
   16.0700    1.9669    0.0587 H   0  0  0  0  0  0  0  0  0  0  0  0
   15.2792    3.6604    1.0469 H   0  0  0  0  0  0  0  0  0  0  0  0
  1  2  1  0
  2  3  1  0
  2  4  1  0
  4  5  1  0
  5  6  1  0
  6  7  1  0
  7  8  2  0
  7  9  1  0
  9 10  1  0
 10 11  1  0
 11 12  2  0
 11 13  1  0
 13 14  1  0
 14 15  1  0
 15 16  2  0
 16 17  1  0
 17 18  2  0
 18 19  1  0
 18 20  1  0
 20 21  2  0
 13 22  1  0
 22 23  1  0
 23 24  2  0
 23 25  1  0
 25 26  1  0
 26 27  1  0
 25 28  1  0
 28 29  1  0
 29 30  2  0
 29 31  1  0
 31 32  1  0
 32 33  1  0
 33 34  2  0
 34 35  1  0
 35 36  1  0
 36 37  2  0
 37 38  1  0
 38 39  2  0
 39 40  1  0
 40 41  2  0
 31 42  1  0
 42 43  1  0
 43 44  2  0
 43 45  1  0
 45 46  1  0
 46 47  1  0
 47 48  2  0
 48 49  1  0
 49 50  2  0
 50 51  1  0
 45 52  1  0
 52 53  1  0
 53 54  2  0
 53 55  1  0
 55 56  1  0
 56 57  1  0
 57 58  1  0
 58 59  2  0
 58 60  1  0
  5 61  1  0
 61 62  2  0
 61 63  1  0
 63 64  1  0
 64 65  1  0
 65 66  1  0
 66 67  1  0
 67 68  1  0
 68 69  2  3
 69 70  1  0
 69 71  1  0
 64 72  1  0
 72 73  2  0
 72 74  1  0
 74 75  1  0
 75 76  1  0
 76 77  1  0
 77 78  1  0
 78 79  1  0
 79 80  2  0
 79 81  1  0
 81 82  1  0
 82 83  1  0
 83 84  1  0
 83 85  2  0
 21 15  1  0
 41 33  1  0
 51 47  1  0
 60 55  1  0
 78 74  1  0
 41 36  1  0
  1 86  1  0
  1 87  1  0
  1 88  1  0
  2 89  1  0
  3 90  1  0
  3 91  1  0
  3 92  1  0
  4 93  1  0
  4 94  1  0
  5 95  1  0
  6 96  1  0
  9 97  1  0
  9 98  1  0
 10 99  1  0
 13100  1  0
 14101  1  0
 14102  1  0
 16103  1  0
 17104  1  0
 19105  1  0
 20106  1  0
 21107  1  0
 22108  1  0
 25109  1  0
 26110  1  0
 26111  1  0
 27112  1  0
 28113  1  0
 31114  1  0
 32115  1  0
 32116  1  0
 34117  1  0
 35118  1  0
 37119  1  0
 38120  1  0
 39121  1  0
 40122  1  0
 42123  1  0
 45124  1  0
 46125  1  0
 46126  1  0
 48127  1  0
 50128  1  0
 51129  1  0
 52130  1  0
 55131  1  0
 56132  1  0
 56133  1  0
 57134  1  0
 57135  1  0
 60136  1  0
 63137  1  0
 64138  1  0
 65139  1  0
 65140  1  0
 66141  1  0
 66142  1  0
 67143  1  0
 67144  1  0
 70145  1  0
 70146  1  0
 71147  1  0
 71148  1  0
 75149  1  0
 75150  1  0
 76151  1  0
 76152  1  0
 77153  1  0
 77154  1  0
 78155  1  0
 81156  1  0
 82157  1  0
 82158  1  0
 84159  1  0
 84160  1  0
M  END
$$$$
