@<TRIPOS>MOLECULE
*****
 160 165 0 0 0
SMALL
GASTEIGER

@<TRIPOS>ATOM
      1 C           6.3706   -2.9319    2.1090 C.3     1  UNL1       -0.0626
      2 C           6.4519   -3.2164    0.6110 C.3     1  UNL1       -0.0446
      3 C           6.4252   -4.8002    0.5236 C.3     1  UNL1       -0.0626
      4 C           5.1846   -2.7479   -0.0401 C.3     1  UNL1       -0.0236
      5 C           4.7695   -1.3164   -0.0036 C.3     1  UNL1        0.0996
      6 N           3.4073   -1.1980   -0.5696 N.am    1  UNL1       -0.3027
      7 C           3.0007   -2.1327   -1.5535 C.2     1  UNL1        0.2308
      8 O           3.6468   -3.0664   -2.1665 O.2     1  UNL1       -0.2741
      9 C           1.7739   -2.5177   -2.2911 C.3     1  UNL1        0.0882
     10 N           0.5974   -1.9341   -1.8447 N.am    1  UNL1       -0.3052
     11 C          -0.3135   -1.5765   -0.8746 C.2     1  UNL1        0.2341
     12 O           0.4289   -2.0864    0.1449 O.2     1  UNL1       -0.2738
     13 C          -1.5273   -1.0347   -0.1156 C.3     1  UNL1        0.1034
     14 C          -1.1237    0.3864    0.0890 C.3     1  UNL1       -0.0007
     15 C          -1.9776    1.3316    0.8067 C.ar    1  UNL1       -0.0449
     16 C          -2.8651    2.1289    0.0554 C.ar    1  UNL1       -0.0551
     17 C          -3.5686    3.0519    0.7907 C.ar    1  UNL1       -0.0199
     18 C          -3.4308    3.1906    2.1612 C.ar    1  UNL1        0.1169
     19 O          -4.1983    4.1551    2.7594 O.3     1  UNL1       -0.5068
     20 C          -2.5489    2.3558    2.7938 C.ar    1  UNL1       -0.0199
     21 C          -1.7835    1.4004    2.1697 C.ar    1  UNL1       -0.0551
     22 N          -2.6176   -1.1171   -1.0836 N.am    1  UNL1       -0.3021
     23 C          -2.9355   -2.5605   -1.1471 C.2     1  UNL1        0.2362
     24 O          -2.2597   -3.3288   -0.3812 O.2     1  UNL1       -0.2737
     25 CA         -3.9961   -2.9975   -2.1030 C.3     1  UNL1        0.1226
     26 C          -4.8516   -4.0636   -1.5464 C.3     1  UNL1        0.0711
     27 O          -4.2435   -5.2302   -1.1286 O.3     1  UNL1       -0.3927
     28 N          -4.6809   -1.8180   -2.5752 N.am    1  UNL1       -0.3006
     29 C          -5.4355   -1.6009   -1.3376 C.2     1  UNL1        0.2343
     30 O          -5.9738   -1.5887   -0.2266 O.2     1  UNL1       -0.2738
     31 CA         -6.4723   -0.4508   -1.1348 C.3     1  UNL1        0.1034
     32 CB         -5.8298    0.8529   -1.4076 C.3     1  UNL1        0.0013
     33 CG         -6.7711    1.9508   -1.2166 C.ar    1  UNL1       -0.0201
     34 CD1        -7.5289    2.5803   -2.1489 C.ar    1  UNL1        0.0060
     35 NE1        -8.4225    3.5074   -1.8299 N.ar    1  UNL1       -0.3604
     36 CE2        -8.2081    3.5007   -0.4571 C.ar    1  UNL1        0.0467
     37 CZ2        -8.6933    4.0750    0.7579 C.ar    1  UNL1       -0.0378
     38 CH2        -8.3424    3.8235    1.9878 C.ar    1  UNL1       -0.0598
     39 CZ3        -7.3682    2.9063    2.4036 C.ar    1  UNL1       -0.0611
     40 CE3        -6.8372    2.3056    1.2367 C.ar    1  UNL1       -0.0523
     41 CD2        -7.2069    2.5623   -0.0169 C.ar    1  UNL1        0.0029
     42 N          -6.8794   -0.6574    0.2597 N.am    1  UNL1       -0.3022
     43 C          -8.1843   -1.3188    0.2383 C.2     1  UNL1        0.2343
     44 O          -8.6521   -1.5791   -0.9154 O.2     1  UNL1       -0.2738
     45 CA         -9.1996   -1.7940    1.2558 C.3     1  UNL1        0.1048
     46 CB         -9.1475   -0.8761    2.4806 C.3     1  UNL1        0.0160
     47 CG         -9.7250    0.4417    1.9587 C.ar    1  UNL1        0.0375
     48 CD2       -10.4847    1.0389    2.9810 C.ar    1  UNL1        0.0485
     49 NE2       -11.2664    1.9772    2.4518 N.ar    1  UNL1       -0.2440
     50 CE1       -11.1002    2.0668    1.1388 C.ar    1  UNL1        0.0935
     51 ND1       -10.1216    1.1252    0.7754 N.ar    1  UNL1       -0.3481
     52 N         -10.5247   -1.4183    0.6071 N.am    1  UNL1       -0.3021
     53 C         -11.1356   -1.9178   -0.5433 C.2     1  UNL1        0.2340
     54 O         -10.5525   -2.8513   -1.1946 O.2     1  UNL1       -0.2738
     55 CA        -12.3938   -1.4651   -1.0876 C.3     1  UNL1        0.0998
     56 C         -13.5087   -1.4238   -0.0505 C.3     1  UNL1       -0.0177
     57 C         -14.4893   -2.3915   -0.6066 C.3     1  UNL1        0.0261
     58 C         -14.2716   -2.1826   -2.0897 C.2     1  UNL1        0.2137
     59 O         -14.8477   -2.0935   -3.2366 O.2     1  UNL1       -0.2758
     60 N         -12.8309   -1.9989   -2.3251 N.am    1  UNL1       -0.3040
     61 C           5.6789   -0.2377   -0.0654 C.2     1  UNL1        0.2340
     62 O           6.8146   -0.9100   -0.0638 O.2     1  UNL1       -0.2738
     63 N           6.1960    1.0294   -0.1291 N.am    1  UNL1       -0.3025
     64 C           7.5002    1.6814   -0.2536 C.3     1  UNL1        0.0997
     65 C           7.6887    2.6981    0.7698 C.3     1  UNL1       -0.0230
     66 C           8.9283    3.4947    0.7505 C.3     1  UNL1       -0.0165
     67 C           9.1631    4.3099   -0.5274 C.3     1  UNL1        0.1048
     68 N           9.2968    3.3512   -1.6425 N.pl3   1  UNL1       -0.1138
     69 C          10.4655    2.7908   -1.6367 C.cat   1  UNL1        0.3765
     70 N          11.3506    3.2136   -0.6466 N.pl3   1  UNL1       -0.2893
     71 N          10.8462    1.7549   -2.5807 N.pl3   1  UNL1       -0.2893
     72 C           8.4172    0.6199   -0.5993 C.2     1  UNL1        0.2365
     73 O           8.2483   -0.0034   -1.6690 O.2     1  UNL1       -0.2735
     74 N           9.5738   -0.0785   -0.1155 N.am    1  UNL1       -0.2884
     75 C           9.9943    0.2383    1.2617 C.3     1  UNL1        0.0156
     76 C           9.9961   -1.0484    2.0217 C.3     1  UNL1       -0.0350
     77 C          10.2934   -2.0454    0.8991 C.3     1  UNL1       -0.0243
     78 C          10.6551   -1.0145   -0.2235 C.3     1  UNL1        0.1023
     79 C          11.9792   -0.5442    0.1404 C.2     1  UNL1        0.2340
     80 O          12.7125   -1.3852    0.8392 O.2     1  UNL1       -0.2738
     81 N          12.9716    0.4288    0.1474 N.am    1  UNL1       -0.3052
     82 C          14.1093    1.0787    0.3967 C.3     1  UNL1        0.0879
     83 C          14.6020    2.3618   -0.1211 C.2     1  UNL1        0.2277
     84 N          15.8447    2.7969    0.5799 N.am    1  UNL1       -0.3280
     85 O          14.3158    3.3203   -1.0282 O.2     1  UNL1       -0.2743
     86 H           6.0577   -1.8919    2.3519 H       1  UNL1        0.0232
     87 H           5.5117   -3.5515    2.5435 H       1  UNL1        0.0232
     88 H           7.2636   -3.2923    2.6232 H       1  UNL1        0.0232
     89 H           7.3648   -2.9533    0.1311 H       1  UNL1        0.0296
     90 H           7.2416   -5.1486   -0.1266 H       1  UNL1        0.0232
     91 H           6.5293   -5.2088    1.5329 H       1  UNL1        0.0232
     92 H           5.4671   -5.1482    0.1417 H       1  UNL1        0.0232
     93 H           5.3364   -3.0879   -1.1280 H       1  UNL1        0.0290
     94 H           4.3811   -3.4065    0.3191 H       1  UNL1        0.0290
     95 H           4.4213   -1.2993    1.1739 H       1  UNL1        0.0594
     96 H           2.6575   -0.5485   -0.3938 H       1  UNL1        0.1495
     97 H           1.6345   -3.6075   -2.3811 H       1  UNL1        0.0558
     98 H           1.9371   -2.1681   -3.3975 H       1  UNL1        0.0558
     99 H          -0.1011   -1.5001   -2.6097 H       1  UNL1        0.1492
    100 H          -1.6507   -1.6196    0.7638 H       1  UNL1        0.0598
    101 H          -0.0630    0.4637    0.5224 H       1  UNL1        0.0336
    102 H          -0.9494    0.8683   -0.9385 H       1  UNL1        0.0336
    103 H          -2.9533    2.0236   -1.0130 H       1  UNL1        0.0621
    104 H          -4.2817    3.6820    0.2282 H       1  UNL1        0.0654
    105 H          -5.0458    4.5493    2.3350 H       1  UNL1        0.2921
    106 H          -2.4987    2.5465    3.8372 H       1  UNL1        0.0654
    107 H          -1.0750    0.7471    2.6911 H       1  UNL1        0.0621
    108 H          -3.1201   -0.4222   -1.6450 H       1  UNL1        0.1495
    109 HA         -3.5135   -3.4398   -3.0474 H       1  UNL1        0.0618
    110 H1         -5.4986   -3.6831   -0.7307 H       1  UNL1        0.0580
    111 H2         -5.6079   -4.3789   -2.3414 H       1  UNL1        0.0580
    112 H          -4.4410   -5.3734   -0.1511 H       1  UNL1        0.2095
    113 H          -4.9099   -1.1154   -3.2507 H       1  UNL1        0.1496
    114 HA         -7.2540   -0.7031   -1.8801 H       1  UNL1        0.0598
    115 HB1        -4.9775    0.9704   -0.6791 H       1  UNL1        0.0337
    116 HB2        -5.4063    0.8895   -2.4589 H       1  UNL1        0.0337
    117 HD1        -7.5306    2.4294   -3.2524 H       1  UNL1        0.0810
    118 HE1        -9.1592    4.2076   -1.9928 H       1  UNL1        0.1653
    119 HZ2        -9.4960    4.8437    0.6134 H       1  UNL1        0.0638
    120 HH2        -8.8129    4.3772    2.7848 H       1  UNL1        0.0618
    121 HZ3        -6.9550    2.5649    3.3020 H       1  UNL1        0.0618
    122 HE3        -6.0172    1.5675    1.4041 H       1  UNL1        0.0624
    123 H          -6.8478   -0.6602    1.2936 H       1  UNL1        0.1495
    124 HA         -9.1159   -2.8277    1.4395 H       1  UNL1        0.0598
    125 HB1        -9.6920   -1.2970    3.3269 H       1  UNL1        0.0351
    126 HB2        -8.1061   -0.7417    2.7728 H       1  UNL1        0.0351
    127 HD2       -10.7668    1.1286    4.0199 H       1  UNL1        0.0848
    128 HE1       -11.2756    2.4399    0.1679 H       1  UNL1        0.1027
    129 HD1        -9.3607    0.5639    0.2275 H       1  UNL1        0.1665
    130 H         -11.1461   -0.7210    1.0217 H       1  UNL1        0.1495
    131 HA        -12.1717   -0.3325   -1.3254 H       1  UNL1        0.0595
    132 H         -13.9436   -0.3827   -0.0142 H       1  UNL1        0.0292
    133 H         -13.1173   -1.6312    0.9712 H       1  UNL1        0.0292
    134 H         -14.2479   -3.4355   -0.3785 H       1  UNL1        0.0359
    135 H         -15.5496   -2.1717   -0.3887 H       1  UNL1        0.0359
    136 H         -12.0025   -2.0891   -2.9487 H       1  UNL1        0.1494
    137 H           5.2616    1.5690   -0.0381 H       1  UNL1        0.1495
    138 H           7.3734    2.2965   -1.2793 H       1  UNL1        0.0594
    139 H           7.5145    2.4174    1.8387 H       1  UNL1        0.0289
    140 H           6.8532    3.4776    0.6093 H       1  UNL1        0.0289
    141 H           8.8471    4.2795    1.5359 H       1  UNL1        0.0298
    142 H           9.8685    2.9743    1.0514 H       1  UNL1        0.0298
    143 H           8.3577    5.0071   -0.6106 H       1  UNL1        0.0693
    144 H          10.1048    4.8056   -0.4003 H       1  UNL1        0.0693
    145 H          11.8417    3.9748   -0.0679 H       1  UNL1        0.2546
    146 H          12.0226    3.2792    0.1074 H       1  UNL1        0.2546
    147 H          11.8455    1.4648   -2.9060 H       1  UNL1        0.2546
    148 H          10.0953    1.2329   -3.0294 H       1  UNL1        0.2546
    149 H           9.2814    0.8907    1.7999 H       1  UNL1        0.0465
    150 H          10.9851    0.7542    1.2955 H       1  UNL1        0.0465
    151 H          10.8136   -1.1252    2.7826 H       1  UNL1        0.0281
    152 H           9.0163   -1.2575    2.4399 H       1  UNL1        0.0281
    153 H          11.2395   -2.5506    1.1557 H       1  UNL1        0.0288
    154 H           9.5156   -2.6940    0.6971 H       1  UNL1        0.0288
    155 H          10.6679   -1.6495   -1.1021 H       1  UNL1        0.0597
    156 H          12.5252    1.0841   -0.4521 H       1  UNL1        0.1492
    157 H          14.0651    1.3851    1.5910 H       1  UNL1        0.0558
    158 H          15.0418    0.3989    0.5151 H       1  UNL1        0.0558
    159 H          16.0700    1.9669    0.0587 H       1  UNL1        0.1450
    160 H          15.2792    3.6604    1.0469 H       1  UNL1        0.1450
@<TRIPOS>BOND
     1     1     2    1
     2     2     3    1
     3     2     4    1
     4     4     5    1
     5     5     6    1
     6     6     7   am
     7     7     8    2
     8     7     9    1
     9     9    10    1
    10    10    11   am
    11    11    12    2
    12    11    13    1
    13    13    14    1
    14    14    15    1
    15    15    16   ar
    16    16    17   ar
    17    17    18   ar
    18    18    19    1
    19    18    20   ar
    20    20    21   ar
    21    13    22    1
    22    22    23   am
    23    23    24    2
    24    23    25    1
    25    25    26    1
    26    26    27    1
    27    25    28    1
    28    28    29   am
    29    29    30    2
    30    29    31    1
    31    31    32    1
    32    32    33    1
    33    33    34   ar
    34    34    35   ar
    35    35    36   ar
    36    36    37   ar
    37    37    38   ar
    38    38    39   ar
    39    39    40   ar
    40    40    41   ar
    41    31    42    1
    42    42    43   am
    43    43    44    2
    44    43    45    1
    45    45    46    1
    46    46    47    1
    47    47    48   ar
    48    48    49   ar
    49    49    50   ar
    50    50    51   ar
    51    45    52    1
    52    52    53   am
    53    53    54    2
    54    53    55    1
    55    55    56    1
    56    56    57    1
    57    57    58    1
    58    58    59    2
    59    58    60   am
    60     5    61    1
    61    61    62    2
    62    61    63   am
    63    63    64    1
    64    64    65    1
    65    65    66    1
    66    66    67    1
    67    67    68    1
    68    68    69    2
    69    69    70    1
    70    69    71    1
    71    64    72    1
    72    72    73    2
    73    72    74   am
    74    74    75    1
    75    75    76    1
    76    76    77    1
    77    77    78    1
    78    78    79    1
    79    79    80    2
    80    79    81   am
    81    81    82    1
    82    82    83    1
    83    83    84   am
    84    83    85    2
    85    21    15   ar
    86    41    33   ar
    87    51    47   ar
    88    60    55    1
    89    78    74    1
    90    41    36   ar
    91     1    86    1
    92     1    87    1
    93     1    88    1
    94     2    89    1
    95     3    90    1
    96     3    91    1
    97     3    92    1
    98     4    93    1
    99     4    94    1
   100     5    95    1
   101     6    96    1
   102     9    97    1
   103     9    98    1
   104    10    99    1
   105    13   100    1
   106    14   101    1
   107    14   102    1
   108    16   103    1
   109    17   104    1
   110    19   105    1
   111    20   106    1
   112    21   107    1
   113    22   108    1
   114    25   109    1
   115    26   110    1
   116    26   111    1
   117    27   112    1
   118    28   113    1
   119    31   114    1
   120    32   115    1
   121    32   116    1
   122    34   117    1
   123    35   118    1
   124    37   119    1
   125    38   120    1
   126    39   121    1
   127    40   122    1
   128    42   123    1
   129    45   124    1
   130    46   125    1
   131    46   126    1
   132    48   127    1
   133    50   128    1
   134    51   129    1
   135    52   130    1
   136    55   131    1
   137    56   132    1
   138    56   133    1
   139    57   134    1
   140    57   135    1
   141    60   136    1
   142    63   137    1
   143    64   138    1
   144    65   139    1
   145    65   140    1
   146    66   141    1
   147    66   142    1
   148    67   143    1
   149    67   144    1
   150    70   145    1
   151    70   146    1
   152    71   147    1
   153    71   148    1
   154    75   149    1
   155    75   150    1
   156    76   151    1
   157    76   152    1
   158    77   153    1
   159    77   154    1
   160    78   155    1
   161    81   156    1
   162    82   157    1
   163    82   158    1
   164    84   159    1
   165    84   160    1
