
     RDKit          3D

 78 81  0  0  0  0  0  0  0  0999 V2000
    0.6587    5.7635   -0.5870 C   0  0  0  0  0  0  0  0  0  0  0  0
    0.6476    4.2443   -0.5249 C   0  0  0  0  0  0  0  0  0  0  0  0
   -0.6291    3.7312   -0.1572 N   0  0  0  0  0  0  0  0  0  0  0  0
   -1.6665    3.9151   -1.1288 C   0  0  0  0  0  0  0  0  0  0  0  0
   -2.9881    3.3869   -0.6183 C   0  0  0  0  0  0  0  0  0  0  0  0
   -0.5875    2.3160    0.1952 C   0  0  0  0  0  0  0  0  0  0  0  0
    0.1225    2.0545    1.4746 C   0  0  0  0  0  0  0  0  0  0  0  0
    0.1395    0.6327    1.7616 N   0  0  0  0  0  0  0  0  0  0  0  0
   -0.8720    0.0057    2.5869 C   0  0  0  0  0  0  0  0  0  0  0  0
   -2.0367   -0.5434    1.8711 C   0  0  0  0  0  0  0  0  0  0  0  0
   -2.0571   -1.8426    1.3755 C   0  0  0  0  0  0  0  0  0  0  0  0
   -3.1668   -2.3327    0.7212 C   0  0  0  0  0  0  0  0  0  0  0  0
   -4.3082   -1.5893    0.5164 C   0  0  0  0  0  0  0  0  0  0  0  0
   -5.4683   -2.1030   -0.1807 C   0  0  0  0  0  0  0  0  0  0  0  0
   -6.7438   -1.6826    0.1309 C   0  0  0  0  0  0  0  0  0  0  0  0
   -7.8339   -2.1759   -0.5426 C   0  0  0  0  0  0  0  0  0  0  0  0
   -7.7043   -3.1079   -1.5547 C   0  0  0  0  0  0  0  0  0  0  0  0
   -8.8978   -3.6287   -2.2691 C   0  0  0  0  0  0  0  0  0  0  0  0
   -8.7693   -4.9536   -2.5896 F   0  0  0  0  0  0  0  0  0  0  0  0
   -9.9883   -3.4164   -1.4310 F   0  0  0  0  0  0  0  0  0  0  0  0
   -9.0903   -2.8462   -3.4064 F   0  0  0  0  0  0  0  0  0  0  0  0
   -6.4278   -3.5279   -1.8656 C   0  0  0  0  0  0  0  0  0  0  0  0
   -5.3267   -3.0316   -1.1870 C   0  0  0  0  0  0  0  0  0  0  0  0
   -4.2788   -0.3007    1.0132 C   0  0  0  0  0  0  0  0  0  0  0  0
   -3.1873    0.2061    1.6657 C   0  0  0  0  0  0  0  0  0  0  0  0
    1.2009   -0.1473    1.2591 C   0  0  0  0  0  0  0  0  0  0  0  0
    1.2197   -1.3939    1.4857 O   0  0  0  0  0  0  0  0  0  0  0  0
    2.3319    0.3596    0.4689 C   0  0  0  0  0  0  0  0  0  0  0  0
    3.5866    0.2866    1.1960 N   0  0  0  0  0  0  0  0  0  0  0  0
    3.9781    1.3246    1.9321 C   0  0  0  0  0  0  0  0  0  0  0  0
    5.1784    1.2621    2.6320 C   0  0  0  0  0  0  0  0  0  0  0  0
    5.7323    2.5939    3.6073 Cl  0  0  0  0  0  0  0  0  0  0  0  0
    5.9094    0.0987    2.5188 C   0  0  0  0  0  0  0  0  0  0  0  0
    7.0017    0.0315    3.1513 O   0  0  0  0  0  0  0  0  0  0  0  0
    5.4942   -0.9356    1.7701 N   0  0  0  0  0  0  0  0  0  0  0  0
    4.3369   -0.8215    1.1206 C   0  0  0  0  0  0  0  0  0  0  0  0
    3.7088   -2.1685    0.0867 S   0  0  0  0  0  0  0  0  0  0  0  0
    4.3349   -1.9561   -1.6088 C   0  0  0  0  0  0  0  0  0  0  0  0
    5.8082   -2.1546   -1.5186 C   0  0  0  0  0  0  0  0  0  0  0  0
    6.5812   -1.0396   -1.2785 C   0  0  0  0  0  0  0  0  0  0  0  0
    7.9320   -1.2020   -1.1864 C   0  0  0  0  0  0  0  0  0  0  0  0
    8.4740   -2.4676   -1.3351 C   0  0  0  0  0  0  0  0  0  0  0  0
    9.8083   -2.6228   -1.2412 F   0  0  0  0  0  0  0  0  0  0  0  0
    7.6755   -3.5793   -1.5768 C   0  0  0  0  0  0  0  0  0  0  0  0
    6.2990   -3.4191   -1.6720 C   0  0  0  0  0  0  0  0  0  0  0  0
    1.1841    6.1167   -1.4734 H   0  0  0  0  0  0  0  0  0  0  0  0
    1.1938    6.1429    0.3128 H   0  0  0  0  0  0  0  0  0  0  0  0
   -0.3732    6.1761   -0.5345 H   0  0  0  0  0  0  0  0  0  0  0  0
    1.4121    3.9131    0.1845 H   0  0  0  0  0  0  0  0  0  0  0  0
    0.8946    3.8943   -1.5702 H   0  0  0  0  0  0  0  0  0  0  0  0
   -1.4509    3.3200   -2.0634 H   0  0  0  0  0  0  0  0  0  0  0  0
   -1.7496    4.9676   -1.4739 H   0  0  0  0  0  0  0  0  0  0  0  0
   -3.8113    4.0311   -1.0124 H   0  0  0  0  0  0  0  0  0  0  0  0
   -3.2260    2.3700   -0.9361 H   0  0  0  0  0  0  0  0  0  0  0  0
   -2.9674    3.4966    0.5043 H   0  0  0  0  0  0  0  0  0  0  0  0
   -0.0577    1.8250   -0.6562 H   0  0  0  0  0  0  0  0  0  0  0  0
   -1.6339    2.0031    0.2591 H   0  0  0  0  0  0  0  0  0  0  0  0
   -0.4090    2.5575    2.3306 H   0  0  0  0  0  0  0  0  0  0  0  0
    1.1575    2.4203    1.5001 H   0  0  0  0  0  0  0  0  0  0  0  0
   -1.1847    0.7589    3.3685 H   0  0  0  0  0  0  0  0  0  0  0  0
   -0.3945   -0.8164    3.1978 H   0  0  0  0  0  0  0  0  0  0  0  0
   -1.1962   -2.4968    1.5056 H   0  0  0  0  0  0  0  0  0  0  0  0
   -3.1741   -3.3438    0.3400 H   0  0  0  0  0  0  0  0  0  0  0  0
   -6.9345   -0.9569    0.9080 H   0  0  0  0  0  0  0  0  0  0  0  0
   -8.8251   -1.8388   -0.2880 H   0  0  0  0  0  0  0  0  0  0  0  0
   -6.3048   -4.2576   -2.6541 H   0  0  0  0  0  0  0  0  0  0  0  0
   -4.3685   -3.4127   -1.4925 H   0  0  0  0  0  0  0  0  0  0  0  0
   -5.1737    0.3111    0.8639 H   0  0  0  0  0  0  0  0  0  0  0  0
   -3.1867    1.2312    2.0501 H   0  0  0  0  0  0  0  0  0  0  0  0
    2.4298   -0.3545   -0.4081 H   0  0  0  0  0  0  0  0  0  0  0  0
    2.1276    1.3778    0.1004 H   0  0  0  0  0  0  0  0  0  0  0  0
    3.4407    2.2510    2.0485 H   0  0  0  0  0  0  0  0  0  0  0  0
    4.1516   -0.9664   -2.0200 H   0  0  0  0  0  0  0  0  0  0  0  0
    3.8589   -2.7152   -2.2541 H   0  0  0  0  0  0  0  0  0  0  0  0
    6.1341   -0.0442   -1.1634 H   0  0  0  0  0  0  0  0  0  0  0  0
    8.5563   -0.3596   -1.0020 H   0  0  0  0  0  0  0  0  0  0  0  0
    8.1119   -4.5668   -1.6917 H   0  0  0  0  0  0  0  0  0  0  0  0
    5.6371   -4.2576   -1.8609 H   0  0  0  0  0  0  0  0  0  0  0  0
  1  2  1  0
  2  3  1  0
  3  4  1  0
  4  5  1  0
  3  6  1  0
  6  7  1  0
  7  8  1  0
  8  9  1  0
  9 10  1  0
 10 11  2  0
 11 12  1  0
 12 13  2  0
 13 14  1  0
 14 15  2  0
 15 16  1  0
 16 17  2  0
 17 18  1  0
 18 19  1  0
 18 20  1  0
 18 21  1  0
 17 22  1  0
 22 23  2  0
 13 24  1  0
 24 25  2  0
  8 26  1  0
 26 27  2  0
 26 28  1  0
 28 29  1  0
 29 30  1  0
 30 31  2  0
 31 32  1  0
 31 33  1  0
 33 34  2  0
 33 35  1  0
 35 36  2  0
 36 37  1  0
 37 38  1  0
 38 39  1  0
 39 40  2  0
 40 41  1  0
 41 42  2  0
 42 43  1  0
 42 44  1  0
 44 45  2  0
 25 10  1  0
 36 29  1  0
 45 39  1  0
 23 14  1  0
  1 46  1  0
  1 47  1  0
  1 48  1  0
  2 49  1  0
  2 50  1  0
  4 51  1  0
  4 52  1  0
  5 53  1  0
  5 54  1  0
  5 55  1  0
  6 56  1  0
  6 57  1  0
  7 58  1  0
  7 59  1  0
  9 60  1  0
  9 61  1  0
 11 62  1  0
 12 63  1  0
 15 64  1  0
 16 65  1  0
 22 66  1  0
 23 67  1  0
 24 68  1  0
 25 69  1  0
 28 70  1  0
 28 71  1  0
 30 72  1  0
 38 73  1  0
 38 74  1  0
 40 75  1  0
 41 76  1  0
 44 77  1  0
 45 78  1  0
M  END
$$$$
