@<TRIPOS>MOLECULE
*****
 78 81 0 0 0
SMALL
GASTEIGER

@<TRIPOS>ATOM
      1 C           0.6587    5.7635   -0.5870 C.3     1  UNL1       -0.0524
      2 C           0.6476    4.2443   -0.5249 C.3     1  UNL1       -0.0039
      3 N          -0.6291    3.7312   -0.1572 N.3     1  UNL1       -0.3014
      4 C          -1.6665    3.9151   -1.1288 C.3     1  UNL1       -0.0039
      5 C          -2.9881    3.3869   -0.6183 C.3     1  UNL1       -0.0524
      6 C          -0.5875    2.3160    0.1952 C.3     1  UNL1        0.0147
      7 C           0.1225    2.0545    1.4746 C.3     1  UNL1        0.0278
      8 N           0.1395    0.6327    1.7616 N.am    1  UNL1       -0.2945
      9 C          -0.8720    0.0057    2.5869 C.3     1  UNL1        0.0398
     10 C          -2.0367   -0.5434    1.8711 C.ar    1  UNL1       -0.0301
     11 C          -2.0571   -1.8426    1.3755 C.ar    1  UNL1       -0.0565
     12 C          -3.1668   -2.3327    0.7212 C.ar    1  UNL1       -0.0537
     13 C          -4.3082   -1.5893    0.5164 C.ar    1  UNL1       -0.0179
     14 C          -5.4683   -2.1030   -0.1807 C.ar    1  UNL1       -0.0179
     15 C          -6.7438   -1.6826    0.1309 C.ar    1  UNL1       -0.0535
     16 C          -7.8339   -2.1759   -0.5426 C.ar    1  UNL1       -0.0495
     17 C          -7.7043   -3.1079   -1.5547 C.ar    1  UNL1        0.0548
     18 C          -8.8978   -3.6287   -2.2691 C.3     1  UNL1        0.4174
     19 F          -8.7693   -4.9536   -2.5896 F       1  UNL1       -0.1659
     20 F          -9.9883   -3.4164   -1.4310 F       1  UNL1       -0.1659
     21 F          -9.0903   -2.8462   -3.4064 F       1  UNL1       -0.1659
     22 C          -6.4278   -3.5279   -1.8656 C.ar    1  UNL1       -0.0495
     23 C          -5.3267   -3.0316   -1.1870 C.ar    1  UNL1       -0.0535
     24 C          -4.2788   -0.3007    1.0132 C.ar    1  UNL1       -0.0537
     25 C          -3.1873    0.2061    1.6657 C.ar    1  UNL1       -0.0565
     26 C           1.2009   -0.1473    1.2591 C.2     1  UNL1        0.2357
     27 O           1.2197   -1.3939    1.4857 O.2     1  UNL1       -0.2736
     28 C           2.3319    0.3596    0.4689 C.3     1  UNL1        0.1015
     29 N           3.5866    0.2866    1.1960 N.ar    1  UNL1       -0.3165
     30 C           3.9781    1.3246    1.9321 C.ar    1  UNL1        0.0311
     31 C           5.1784    1.2621    2.6320 C.ar    1  UNL1        0.1232
     32 CL          5.7323    2.5939    3.6073 Cl      1  UNL1       -0.0763
     33 C           5.9094    0.0987    2.5188 C.ar    1  UNL1        0.2923
     34 O           7.0017    0.0315    3.1513 O.2     1  UNL1       -0.2642
     35 N           5.4942   -0.9356    1.7701 N.ar    1  UNL1       -0.1838
     36 C           4.3369   -0.8215    1.1206 C.ar    1  UNL1        0.1733
     37 S           3.7088   -2.1685    0.0867 S.3     1  UNL1       -0.0829
     38 C           4.3349   -1.9561   -1.6088 C.3     1  UNL1        0.0262
     39 C           5.8082   -2.1546   -1.5186 C.ar    1  UNL1       -0.0370
     40 C           6.5812   -1.0396   -1.2785 C.ar    1  UNL1       -0.0551
     41 C           7.9320   -1.2020   -1.1864 C.ar    1  UNL1       -0.0262
     42 C           8.4740   -2.4676   -1.3351 C.ar    1  UNL1        0.1234
     43 F           9.8083   -2.6228   -1.2412 F       1  UNL1       -0.2055
     44 C           7.6755   -3.5793   -1.5768 C.ar    1  UNL1       -0.0262
     45 C           6.2990   -3.4191   -1.6720 C.ar    1  UNL1       -0.0551
     46 H           1.1841    6.1167   -1.4734 H       1  UNL1        0.0242
     47 H           1.1938    6.1429    0.3128 H       1  UNL1        0.0242
     48 H          -0.3732    6.1761   -0.5345 H       1  UNL1        0.0242
     49 H           1.4121    3.9131    0.1845 H       1  UNL1        0.0424
     50 H           0.8946    3.8943   -1.5702 H       1  UNL1        0.0424
     51 H          -1.4509    3.3200   -2.0634 H       1  UNL1        0.0424
     52 H          -1.7496    4.9676   -1.4739 H       1  UNL1        0.0424
     53 H          -3.8113    4.0311   -1.0124 H       1  UNL1        0.0242
     54 H          -3.2260    2.3700   -0.9361 H       1  UNL1        0.0242
     55 H          -2.9674    3.4966    0.5043 H       1  UNL1        0.0242
     56 H          -0.0577    1.8250   -0.6562 H       1  UNL1        0.0442
     57 H          -1.6339    2.0031    0.2591 H       1  UNL1        0.0442
     58 H          -0.4090    2.5575    2.3306 H       1  UNL1        0.0477
     59 H           1.1575    2.4203    1.5001 H       1  UNL1        0.0477
     60 H          -1.1847    0.7589    3.3685 H       1  UNL1        0.0514
     61 H          -0.3945   -0.8164    3.1978 H       1  UNL1        0.0514
     62 H          -1.1962   -2.4968    1.5056 H       1  UNL1        0.0621
     63 H          -3.1741   -3.3438    0.3400 H       1  UNL1        0.0624
     64 H          -6.9345   -0.9569    0.9080 H       1  UNL1        0.0624
     65 H          -8.8251   -1.8388   -0.2880 H       1  UNL1        0.0623
     66 H          -6.3048   -4.2576   -2.6541 H       1  UNL1        0.0623
     67 H          -4.3685   -3.4127   -1.4925 H       1  UNL1        0.0624
     68 H          -5.1737    0.3111    0.8639 H       1  UNL1        0.0624
     69 H          -3.1867    1.2312    2.0501 H       1  UNL1        0.0621
     70 H           2.4298   -0.3545   -0.4081 H       1  UNL1        0.0588
     71 H           2.1276    1.3778    0.1004 H       1  UNL1        0.0588
     72 H           3.4407    2.2510    2.0485 H       1  UNL1        0.0826
     73 H           4.1516   -0.9664   -2.0200 H       1  UNL1        0.0429
     74 H           3.8589   -2.7152   -2.2541 H       1  UNL1        0.0429
     75 H           6.1341   -0.0442   -1.1634 H       1  UNL1        0.0621
     76 H           8.5563   -0.3596   -1.0020 H       1  UNL1        0.0646
     77 H           8.1119   -4.5668   -1.6917 H       1  UNL1        0.0646
     78 H           5.6371   -4.2576   -1.8609 H       1  UNL1        0.0621
@<TRIPOS>BOND
     1     1     2    1
     2     2     3    1
     3     3     4    1
     4     4     5    1
     5     3     6    1
     6     6     7    1
     7     7     8    1
     8     8     9    1
     9     9    10    1
    10    10    11   ar
    11    11    12   ar
    12    12    13   ar
    13    13    14    1
    14    14    15   ar
    15    15    16   ar
    16    16    17   ar
    17    17    18    1
    18    18    19    1
    19    18    20    1
    20    18    21    1
    21    17    22   ar
    22    22    23   ar
    23    13    24   ar
    24    24    25   ar
    25     8    26   am
    26    26    27    2
    27    26    28    1
    28    28    29    1
    29    29    30   ar
    30    30    31   ar
    31    31    32    1
    32    31    33   ar
    33    33    34    2
    34    33    35   ar
    35    35    36   ar
    36    36    37    1
    37    37    38    1
    38    38    39    1
    39    39    40   ar
    40    40    41   ar
    41    41    42   ar
    42    42    43    1
    43    42    44   ar
    44    44    45   ar
    45    25    10   ar
    46    36    29   ar
    47    45    39   ar
    48    23    14   ar
    49     1    46    1
    50     1    47    1
    51     1    48    1
    52     2    49    1
    53     2    50    1
    54     4    51    1
    55     4    52    1
    56     5    53    1
    57     5    54    1
    58     5    55    1
    59     6    56    1
    60     6    57    1
    61     7    58    1
    62     7    59    1
    63     9    60    1
    64     9    61    1
    65    11    62    1
    66    12    63    1
    67    15    64    1
    68    16    65    1
    69    22    66    1
    70    23    67    1
    71    24    68    1
    72    25    69    1
    73    28    70    1
    74    28    71    1
    75    30    72    1
    76    38    73    1
    77    38    74    1
    78    40    75    1
    79    41    76    1
    80    44    77    1
    81    45    78    1
