@<TRIPOS>MOLECULE
*****
 26 27 0 0 0
SMALL
GASTEIGER

@<TRIPOS>ATOM
      1 C          -2.4489    0.3473    0.0496 C.3     1  UNL1        0.1847
      2 C          -3.6325   -0.2851    0.7455 C.3     1  UNL1        0.0952
      3 O          -3.9542   -1.4520    0.0959 O.3     1  UNL1       -0.3900
      4 O          -2.0524    1.5470    0.6502 O.3     1  UNL1       -0.3445
      5 C          -0.6981    1.6971    0.3415 C.3     1  UNL1        0.0962
      6 C          -0.3680    0.4459   -0.4299 C.3     1  UNL1        0.1654
      7 O          -1.3035   -0.4449    0.1141 O.3     1  UNL1       -0.3233
      8 N           0.9855    0.0126   -0.3214 N.ar    1  UNL1       -0.2737
      9 C           1.7813    0.0762   -1.4166 C.ar    1  UNL1        0.0154
     10 C           3.1003   -0.3139   -1.4278 C.ar    1  UNL1       -0.0015
     11 C           3.6454   -0.7983   -0.2559 C.ar    1  UNL1        0.1520
     12 N           4.8588   -1.2089   -0.0780 N.2     1  UNL1       -0.2819
     13 N           2.8426   -0.8578    0.8318 N.ar    1  UNL1       -0.1779
     14 C           1.5483   -0.4597    0.7868 C.ar    1  UNL1        0.2996
     15 O           0.7369   -0.5277    1.9151 O.3     1  UNL1       -0.4795
     16 H          -2.6619    0.5443   -1.0198 H       1  UNL1        0.0934
     17 H          -3.5121   -0.3448    1.8249 H       1  UNL1        0.0608
     18 H          -4.4869    0.4264    0.5690 H       1  UNL1        0.0608
     19 H          -4.8950   -1.7072    0.3173 H       1  UNL1        0.2096
     20 H          -0.5320    2.5651   -0.3299 H       1  UNL1        0.0606
     21 H          -0.0729    1.8233    1.2475 H       1  UNL1        0.0606
     22 H          -0.6611    0.5859   -1.4758 H       1  UNL1        0.0864
     23 H           1.3513    0.4608   -2.3498 H       1  UNL1        0.0812
     24 H           3.7486   -0.2755   -2.2710 H       1  UNL1        0.0669
     25 H           5.5068   -1.1727   -0.9133 H       1  UNL1        0.1883
     26 H           1.1738   -0.2767    2.7998 H       1  UNL1        0.2953
@<TRIPOS>BOND
     1     1     2    1
     2     2     3    1
     3     1     4    1
     4     4     5    1
     5     5     6    1
     6     6     7    1
     7     6     8    1
     8     8     9   ar
     9     9    10   ar
    10    10    11   ar
    11    11    12    2
    12    11    13   ar
    13    13    14   ar
    14    14    15    1
    15     7     1    1
    16    14     8   ar
    17     1    16    1
    18     2    17    1
    19     2    18    1
    20     3    19    1
    21     5    20    1
    22     5    21    1
    23     6    22    1
    24     9    23    1
    25    10    24    1
    26    12    25    1
    27    15    26    1
