@<TRIPOS>MOLECULE
*****
 16 15 0 0 0
SMALL
GASTEIGER

@<TRIPOS>ATOM
      1 C          -2.4550   -0.5774    0.2581 C.3     1  UNL1       -0.0306
      2 C          -1.8732    0.6442   -0.3613 C.3     1  UNL1        0.0901
      3 O          -0.5805    0.9905    0.0457 O.3     1  UNL1       -0.4595
      4 C           0.5099    0.1478   -0.1291 C.2     1  UNL1        0.3747
      5 O           0.2598   -0.9718   -0.6883 O.2     1  UNL1       -0.2417
      6 C           1.8110    0.5660    0.3123 C.2     1  UNL1        0.2362
      7 C           2.9934   -0.3159    0.1372 C.3     1  UNL1        0.0052
      8 O           1.9834    1.7049    0.8656 O.2     1  UNL1       -0.2854
      9 H          -3.5485   -0.3895    0.4317 H       1  UNL1        0.0262
     10 H          -2.0133   -0.8804    1.2212 H       1  UNL1        0.0262
     11 H          -2.4435   -1.4432   -0.4678 H       1  UNL1        0.0262
     12 H          -2.5095    1.5318   -0.1356 H       1  UNL1        0.0695
     13 H          -1.9508    0.5138   -1.4743 H       1  UNL1        0.0695
     14 H           2.6956   -1.3323    0.4355 H       1  UNL1        0.0311
     15 H           3.2383   -0.2548   -0.9622 H       1  UNL1        0.0311
     16 H           3.8828    0.0663    0.6655 H       1  UNL1        0.0311
@<TRIPOS>BOND
     1     1     2    1
     2     2     3    1
     3     3     4    1
     4     4     5    2
     5     4     6    1
     6     6     7    1
     7     6     8    2
     8     1     9    1
     9     1    10    1
    10     1    11    1
    11     2    12    1
    12     2    13    1
    13     7    14    1
    14     7    15    1
    15     7    16    1
