@<TRIPOS>MOLECULE
*****
 51 54 0 0 0
SMALL
GASTEIGER

@<TRIPOS>ATOM
      1 C          -4.6276    0.0906   -0.4733 C.3     1  UNL1        0.0587
      2 C          -5.3658    1.0375   -1.3503 C.3     1  UNL1        0.0673
      3 C          -5.5228    2.3852   -0.7387 C.2     1  UNL1        0.3068
      4 O          -6.0981    3.3590    0.0457 O.3     1  UNL1       -0.4806
      5 O          -4.8218    3.4215   -0.8727 O.2     1  UNL1       -0.2509
      6 N          -3.3195    0.5889   -0.1935 N.am    1  UNL1       -0.3036
      7 C          -2.1199   -0.0838   -0.5207 C.2     1  UNL1        0.2512
      8 O          -2.1815   -1.1796   -1.0912 O.2     1  UNL1       -0.2696
      9 C          -0.8914    0.5059   -0.1897 C.ar    1  UNL1        0.0744
     10 C           0.3608    0.0462   -0.3889 C.ar    1  UNL1       -0.0348
     11 C           1.4970    0.6973   -0.0180 C.ar    1  UNL1       -0.0101
     12 C           1.1696    2.0151    0.6522 C.ar    1  UNL1       -0.0159
     13 S          -0.6882    2.0680    0.6224 S.2     1  UNL1       -0.0915
     14 C           2.8776    0.2841   -0.1765 C.ar    1  UNL1       -0.0173
     15 C           3.1356   -1.0563   -0.1164 C.ar    1  UNL1       -0.0534
     16 C           4.4291   -1.5204   -0.2589 C.ar    1  UNL1       -0.0535
     17 C           5.4362   -0.6226   -0.4593 C.ar    1  UNL1       -0.0178
     18 C           5.1302    0.7318   -0.5141 C.ar    1  UNL1       -0.0535
     19 C           3.8424    1.2439   -0.3758 C.ar    1  UNL1       -0.0534
     20 C           6.8321   -1.0326   -0.6138 C.ar    1  UNL1       -0.0150
     21 C           7.7650   -0.3511   -1.3915 C.ar    1  UNL1       -0.0359
     22 C           9.0620   -0.8520   -1.4450 C.ar    1  UNL1        0.0281
     23 N           9.4406   -1.9439   -0.7895 N.ar    1  UNL1       -0.2632
     24 C           8.5792   -2.6396   -0.0244 C.ar    1  UNL1        0.0281
     25 C           7.2877   -2.1674    0.0477 C.ar    1  UNL1       -0.0359
     26 C          -5.3489   -0.2117    0.7929 C.ar    1  UNL1       -0.0267
     27 C          -5.3148    0.6875    1.8305 C.ar    1  UNL1       -0.0568
     28 C          -5.9708    0.4221    2.9964 C.ar    1  UNL1       -0.0614
     29 C          -6.6650   -0.7634    3.1076 C.ar    1  UNL1       -0.0617
     30 C          -6.7400   -1.7028    2.1127 C.ar    1  UNL1       -0.0614
     31 C          -6.0550   -1.3856    0.9448 C.ar    1  UNL1       -0.0568
     32 H          -4.5093   -0.8787   -1.0345 H       1  UNL1        0.0554
     33 H          -6.3214    0.6520   -1.7513 H       1  UNL1        0.0399
     34 H          -4.7156    1.2103   -2.2476 H       1  UNL1        0.0399
     35 H          -6.7444    3.2120    0.7832 H       1  UNL1        0.2951
     36 H          -3.2860    1.5234    0.2897 H       1  UNL1        0.1496
     37 H           0.5032   -0.9186   -0.8846 H       1  UNL1        0.0636
     38 H           2.0924    2.6947    1.0335 H       1  UNL1        0.0700
     39 H           2.3826   -1.8144    0.0391 H       1  UNL1        0.0624
     40 H           4.6725   -2.5662   -0.2164 H       1  UNL1        0.0624
     41 H           5.9281    1.4722   -0.6759 H       1  UNL1        0.0624
     42 H           3.6578    2.3042   -0.4267 H       1  UNL1        0.0624
     43 H           7.4224    0.5333   -1.9114 H       1  UNL1        0.0639
     44 H           9.6901   -0.2275   -2.0857 H       1  UNL1        0.0830
     45 H           8.8875   -3.5317    0.5109 H       1  UNL1        0.0830
     46 H           6.5578   -2.7111    0.6636 H       1  UNL1        0.0639
     47 H          -4.7861    1.6201    1.7824 H       1  UNL1        0.0621
     48 H          -5.9635    1.1050    3.8277 H       1  UNL1        0.0618
     49 H          -7.1880   -0.9788    4.0334 H       1  UNL1        0.0618
     50 H          -7.2826   -2.6404    2.1854 H       1  UNL1        0.0618
     51 H          -6.1113   -2.1316    0.1473 H       1  UNL1        0.0621
@<TRIPOS>BOND
     1     1     2    1
     2     2     3    1
     3     3     4    1
     4     3     5    2
     5     1     6    1
     6     6     7   am
     7     7     8    2
     8     7     9    1
     9     9    10   ar
    10    10    11   ar
    11    11    12   ar
    12    12    13   ar
    13    11    14    1
    14    14    15   ar
    15    15    16   ar
    16    16    17   ar
    17    17    18   ar
    18    18    19   ar
    19    17    20    1
    20    20    21   ar
    21    21    22   ar
    22    22    23   ar
    23    23    24   ar
    24    24    25   ar
    25     1    26    1
    26    26    27   ar
    27    27    28   ar
    28    28    29   ar
    29    29    30   ar
    30    30    31   ar
    31    13     9   ar
    32    19    14   ar
    33    25    20   ar
    34    31    26   ar
    35     1    32    1
    36     2    33    1
    37     2    34    1
    38     4    35    1
    39     6    36    1
    40    10    37    1
    41    12    38    1
    42    15    39    1
    43    16    40    1
    44    18    41    1
    45    19    42    1
    46    21    43    1
    47    22    44    1
    48    24    45    1
    49    25    46    1
    50    27    47    1
    51    28    48    1
    52    29    49    1
    53    30    50    1
    54    31    51    1
