
     RDKit          3D

 51 54  0  0  0  0  0  0  0  0999 V2000
   -4.6276    0.0906   -0.4733 C   0  0  1  0  0  0  0  0  0  0  0  0
   -5.3658    1.0375   -1.3503 C   0  0  0  0  0  0  0  0  0  0  0  0
   -5.5228    2.3852   -0.7387 C   0  0  0  0  0  0  0  0  0  0  0  0
   -6.0981    3.3590    0.0457 O   0  0  0  0  0  0  0  0  0  0  0  0
   -4.8218    3.4215   -0.8727 O   0  0  0  0  0  0  0  0  0  0  0  0
   -3.3195    0.5889   -0.1935 N   0  0  0  0  0  0  0  0  0  0  0  0
   -2.1199   -0.0838   -0.5207 C   0  0  0  0  0  0  0  0  0  0  0  0
   -2.1815   -1.1796   -1.0912 O   0  0  0  0  0  0  0  0  0  0  0  0
   -0.8914    0.5059   -0.1897 C   0  0  0  0  0  0  0  0  0  0  0  0
    0.3608    0.0462   -0.3889 C   0  0  0  0  0  0  0  0  0  0  0  0
    1.4970    0.6973   -0.0180 C   0  0  0  0  0  0  0  0  0  0  0  0
    1.1696    2.0151    0.6522 C   0  0  0  0  0  0  0  0  0  0  0  0
   -0.6882    2.0680    0.6224 S   0  0  0  0  0  0  0  0  0  0  0  0
    2.8776    0.2841   -0.1765 C   0  0  0  0  0  0  0  0  0  0  0  0
    3.1356   -1.0563   -0.1164 C   0  0  0  0  0  0  0  0  0  0  0  0
    4.4291   -1.5204   -0.2589 C   0  0  0  0  0  0  0  0  0  0  0  0
    5.4362   -0.6226   -0.4593 C   0  0  0  0  0  0  0  0  0  0  0  0
    5.1302    0.7318   -0.5141 C   0  0  0  0  0  0  0  0  0  0  0  0
    3.8424    1.2439   -0.3758 C   0  0  0  0  0  0  0  0  0  0  0  0
    6.8321   -1.0326   -0.6138 C   0  0  0  0  0  0  0  0  0  0  0  0
    7.7650   -0.3511   -1.3915 C   0  0  0  0  0  0  0  0  0  0  0  0
    9.0620   -0.8520   -1.4450 C   0  0  0  0  0  0  0  0  0  0  0  0
    9.4406   -1.9439   -0.7895 N   0  0  0  0  0  0  0  0  0  0  0  0
    8.5792   -2.6396   -0.0244 C   0  0  0  0  0  0  0  0  0  0  0  0
    7.2877   -2.1674    0.0477 C   0  0  0  0  0  0  0  0  0  0  0  0
   -5.3489   -0.2117    0.7929 C   0  0  0  0  0  0  0  0  0  0  0  0
   -5.3148    0.6875    1.8305 C   0  0  0  0  0  0  0  0  0  0  0  0
   -5.9708    0.4221    2.9964 C   0  0  0  0  0  0  0  0  0  0  0  0
   -6.6650   -0.7634    3.1076 C   0  0  0  0  0  0  0  0  0  0  0  0
   -6.7400   -1.7028    2.1127 C   0  0  0  0  0  0  0  0  0  0  0  0
   -6.0550   -1.3856    0.9448 C   0  0  0  0  0  0  0  0  0  0  0  0
   -4.5093   -0.8787   -1.0345 H   0  0  0  0  0  0  0  0  0  0  0  0
   -6.3214    0.6520   -1.7513 H   0  0  0  0  0  0  0  0  0  0  0  0
   -4.7156    1.2103   -2.2476 H   0  0  0  0  0  0  0  0  0  0  0  0
   -6.7444    3.2120    0.7832 H   0  0  0  0  0  0  0  0  0  0  0  0
   -3.2860    1.5234    0.2897 H   0  0  0  0  0  0  0  0  0  0  0  0
    0.5032   -0.9186   -0.8846 H   0  0  0  0  0  0  0  0  0  0  0  0
    2.0924    2.6947    1.0335 H   0  0  0  0  0  0  0  0  0  0  0  0
    2.3826   -1.8144    0.0391 H   0  0  0  0  0  0  0  0  0  0  0  0
    4.6725   -2.5662   -0.2164 H   0  0  0  0  0  0  0  0  0  0  0  0
    5.9281    1.4722   -0.6759 H   0  0  0  0  0  0  0  0  0  0  0  0
    3.6578    2.3042   -0.4267 H   0  0  0  0  0  0  0  0  0  0  0  0
    7.4224    0.5333   -1.9114 H   0  0  0  0  0  0  0  0  0  0  0  0
    9.6901   -0.2275   -2.0857 H   0  0  0  0  0  0  0  0  0  0  0  0
    8.8875   -3.5317    0.5109 H   0  0  0  0  0  0  0  0  0  0  0  0
    6.5578   -2.7111    0.6636 H   0  0  0  0  0  0  0  0  0  0  0  0
   -4.7861    1.6201    1.7824 H   0  0  0  0  0  0  0  0  0  0  0  0
   -5.9635    1.1050    3.8277 H   0  0  0  0  0  0  0  0  0  0  0  0
   -7.1880   -0.9788    4.0334 H   0  0  0  0  0  0  0  0  0  0  0  0
   -7.2826   -2.6404    2.1854 H   0  0  0  0  0  0  0  0  0  0  0  0
   -6.1113   -2.1316    0.1473 H   0  0  0  0  0  0  0  0  0  0  0  0
  1  2  1  0
  2  3  1  0
  3  4  1  0
  3  5  2  0
  1  6  1  0
  6  7  1  0
  7  8  2  0
  7  9  1  0
  9 10  2  0
 10 11  1  0
 11 12  2  0
 12 13  1  0
 11 14  1  0
 14 15  2  0
 15 16  1  0
 16 17  2  0
 17 18  1  0
 18 19  2  0
 17 20  1  0
 20 21  2  0
 21 22  1  0
 22 23  2  0
 23 24  1  0
 24 25  2  0
  1 26  1  0
 26 27  2  0
 27 28  1  0
 28 29  2  0
 29 30  1  0
 30 31  2  0
 13  9  1  0
 19 14  1  0
 25 20  1  0
 31 26  1  0
  1 32  1  6
  2 33  1  0
  2 34  1  0
  4 35  1  0
  6 36  1  0
 10 37  1  0
 12 38  1  0
 15 39  1  0
 16 40  1  0
 18 41  1  0
 19 42  1  0
 21 43  1  0
 22 44  1  0
 24 45  1  0
 25 46  1  0
 27 47  1  0
 28 48  1  0
 29 49  1  0
 30 50  1  0
 31 51  1  0
M  END
$$$$
