@<TRIPOS>MOLECULE
*****
 47 50 0 0 0
SMALL
GASTEIGER

@<TRIPOS>ATOM
      1 O          -2.5761    3.2879    0.5412 O.2     1  UNL1       -0.2675
      2 C          -2.5347    2.0324    0.5191 C.ar    1  UNL1        0.2561
      3 N          -1.3844    1.3302    0.5798 N.ar    1  UNL1       -0.2947
      4 C          -1.3286   -0.0108    0.5568 C.ar    1  UNL1        0.1985
      5 N          -0.0840   -0.6996    0.6234 N.pl3   1  UNL1       -0.2986
      6 C           0.5175   -1.0968    1.8785 C.3     1  UNL1        0.0276
      7 C           1.9052   -1.6339    1.6374 C.3     1  UNL1        0.0151
      8 N           2.6657   -0.8567    0.7209 N.3     1  UNL1       -0.2952
      9 C           4.0538   -1.1497    0.7469 C.3     1  UNL1        0.0242
     10 C           4.8220   -0.3446   -0.2329 C.ar    1  UNL1       -0.0305
     11 C           5.0822   -0.8884   -1.4705 C.ar    1  UNL1       -0.0392
     12 C           5.7900   -0.1460   -2.4017 C.ar    1  UNL1        0.0278
     13 N           6.2219    1.0993   -2.1007 N.ar    1  UNL1       -0.2632
     14 C           5.9651    1.6311   -0.8835 C.ar    1  UNL1        0.0278
     15 C           5.2701    0.9278    0.0590 C.ar    1  UNL1       -0.0392
     16 C           2.0811   -0.5622   -0.5306 C.3     1  UNL1        0.0151
     17 C           0.6157   -1.0219   -0.5973 C.3     1  UNL1        0.0276
     18 N          -2.5044   -0.6842    0.4671 N.ar    1  UNL1       -0.2204
     19 C          -3.6776   -0.0178    0.4040 C.ar    1  UNL1        0.0531
     20 C          -3.7333    1.3586    0.4278 C.ar    1  UNL1        0.0383
     21 C          -5.0588    1.9826    0.3551 C.3     1  UNL1       -0.0208
     22 C          -5.9242    1.3220   -0.6724 C.3     1  UNL1       -0.0485
     23 C          -5.9485   -0.1693   -0.5998 C.3     1  UNL1       -0.0473
     24 C          -4.9208   -0.7731    0.3057 C.3     1  UNL1       -0.0098
     25 H          -0.4794    1.8683    0.6493 H       1  UNL1        0.1716
     26 H          -0.0555   -1.9280    2.3684 H       1  UNL1        0.0477
     27 H           0.6140   -0.2450    2.5847 H       1  UNL1        0.0477
     28 H           2.4593   -1.6271    2.6141 H       1  UNL1        0.0442
     29 H           1.9038   -2.6846    1.2948 H       1  UNL1        0.0442
     30 H           4.1986   -2.2362    0.5124 H       1  UNL1        0.0476
     31 H           4.4679   -0.9946    1.7646 H       1  UNL1        0.0476
     32 H           4.7561   -1.9015   -1.7496 H       1  UNL1        0.0636
     33 H           5.9979   -0.5811   -3.3913 H       1  UNL1        0.0829
     34 H           6.3072    2.6210   -0.6410 H       1  UNL1        0.0829
     35 H           5.0506    1.3391    1.0509 H       1  UNL1        0.0636
     36 H           2.6067   -1.0528   -1.3458 H       1  UNL1        0.0442
     37 H           2.0698    0.5444   -0.6929 H       1  UNL1        0.0442
     38 H           0.1715   -0.4649   -1.4379 H       1  UNL1        0.0477
     39 H           0.5753   -2.1098   -0.7910 H       1  UNL1        0.0477
     40 H          -5.5767    1.8915    1.3425 H       1  UNL1        0.0315
     41 H          -5.0329    3.0669    0.1263 H       1  UNL1        0.0315
     42 H          -6.9686    1.6814   -0.5020 H       1  UNL1        0.0269
     43 H          -5.6432    1.6870   -1.6807 H       1  UNL1        0.0269
     44 H          -6.9496   -0.5668   -0.3334 H       1  UNL1        0.0269
     45 H          -5.7403   -0.5552   -1.6255 H       1  UNL1        0.0269
     46 H          -4.6875   -1.8153    0.0041 H       1  UNL1        0.0328
     47 H          -5.3596   -0.8537    1.3335 H       1  UNL1        0.0328
@<TRIPOS>BOND
     1     1     2    2
     2     2     3   ar
     3     3     4   ar
     4     4     5    1
     5     5     6    1
     6     6     7    1
     7     7     8    1
     8     8     9    1
     9     9    10    1
    10    10    11   ar
    11    11    12   ar
    12    12    13   ar
    13    13    14   ar
    14    14    15   ar
    15     8    16    1
    16    16    17    1
    17     4    18   ar
    18    18    19   ar
    19    19    20   ar
    20    20    21    1
    21    21    22    1
    22    22    23    1
    23    23    24    1
    24    20     2   ar
    25    17     5    1
    26    24    19    1
    27    15    10   ar
    28     3    25    1
    29     6    26    1
    30     6    27    1
    31     7    28    1
    32     7    29    1
    33     9    30    1
    34     9    31    1
    35    11    32    1
    36    12    33    1
    37    14    34    1
    38    15    35    1
    39    16    36    1
    40    16    37    1
    41    17    38    1
    42    17    39    1
    43    21    40    1
    44    21    41    1
    45    22    42    1
    46    22    43    1
    47    23    44    1
    48    23    45    1
    49    24    46    1
    50    24    47    1
