@<TRIPOS>MOLECULE
*****
 67 70 0 0 0
SMALL
GASTEIGER

@<TRIPOS>ATOM
      1 C          -4.4422   -2.6078    2.4330 C.3     1  UNL1       -0.0307
      2 C          -3.0964   -2.7154    1.8015 C.3     1  UNL1        0.0868
      3 O          -2.8225   -1.7345    0.8245 O.3     1  UNL1       -0.4915
      4 C          -1.5639   -1.8180    0.2207 C.ar    1  UNL1        0.1311
      5 C          -0.6552   -2.7956    0.5602 C.ar    1  UNL1       -0.0190
      6 C           0.5864   -2.8418   -0.0657 C.ar    1  UNL1       -0.0551
      7 C           0.9349   -1.9220   -1.0296 C.ar    1  UNL1       -0.0462
      8 C           2.2351   -1.9866   -1.6845 C.3     1  UNL1       -0.0248
      9 C           3.3502   -1.2412   -1.0583 C.3     1  UNL1       -0.0370
     10 C           3.1646    0.2390   -0.9258 C.3     1  UNL1       -0.0497
     11 C           4.5673    0.8538   -0.8709 C.3     1  UNL1       -0.0495
     12 C           5.5280   -0.0396   -0.1540 C.3     1  UNL1       -0.0327
     13 C           6.6968    0.6649    0.4320 C.3     1  UNL1        0.0287
     14 C           6.4319    1.6902    1.4250 C.2     1  UNL1        0.2357
     15 O           5.2719    1.9663    1.7892 O.2     1  UNL1       -0.2737
     16 N           7.5087    2.4064    2.0066 N.am    1  UNL1       -0.1975
     17 O           7.2353    3.3662    2.9386 O.3     1  UNL1       -0.2952
     18 C           4.7174   -0.7660    0.9210 C.3     1  UNL1       -0.0495
     19 C           3.7965   -1.7840    0.2760 C.3     1  UNL1       -0.0497
     20 C          -0.0118   -0.9540   -1.3403 C.ar    1  UNL1       -0.0444
     21 C          -1.2503   -0.8787   -0.7407 C.ar    1  UNL1        0.0592
     22 C          -2.2525    0.1395   -1.0778 C.ar    1  UNL1        0.1451
     23 N          -3.4628    0.1358   -0.4921 N.ar    1  UNL1       -0.2254
     24 C          -4.4449    1.0161   -0.7384 C.ar    1  UNL1        0.1192
     25 C          -5.7318    1.2102   -0.2809 C.ar    1  UNL1        0.0889
     26 C          -6.3768    0.3438    0.7325 C.3     1  UNL1       -0.0094
     27 C          -5.9067    0.6023    2.1373 C.3     1  UNL1       -0.0597
     28 N          -6.2138    2.2808   -0.9248 N.ar    1  UNL1       -0.1736
     29 N          -5.2909    2.7493   -1.7495 N.ar    1  UNL1       -0.2598
     30 C          -5.4938    3.9086   -2.5986 C.3     1  UNL1        0.0311
     31 C          -4.1802    2.0099   -1.6775 C.ar    1  UNL1        0.1513
     32 C          -2.9516    2.0211   -2.2779 C.ar    1  UNL1        0.2775
     33 O          -2.7165    2.9148   -3.1207 O.2     1  UNL1       -0.2655
     34 N          -1.9975    1.0955   -1.9813 N.ar    1  UNL1       -0.3051
     35 H          -4.5329   -1.8114    3.1774 H       1  UNL1        0.0262
     36 H          -5.2433   -2.4967    1.6744 H       1  UNL1        0.0262
     37 H          -4.7125   -3.5563    2.9828 H       1  UNL1        0.0262
     38 H          -3.0129   -3.7355    1.3423 H       1  UNL1        0.0694
     39 H          -2.2957   -2.6246    2.5673 H       1  UNL1        0.0694
     40 H          -0.9453   -3.4981    1.3090 H       1  UNL1        0.0654
     41 H           1.2491   -3.6419    0.2561 H       1  UNL1        0.0621
     42 H           2.1905   -1.6591   -2.7658 H       1  UNL1        0.0316
     43 H           2.5654   -3.0641   -1.7654 H       1  UNL1        0.0316
     44 H           4.2380   -1.3822   -1.7443 H       1  UNL1        0.0304
     45 H           2.5740    0.5287   -0.0162 H       1  UNL1        0.0268
     46 H           2.6409    0.6143   -1.8193 H       1  UNL1        0.0268
     47 H           4.8821    1.0403   -1.9242 H       1  UNL1        0.0268
     48 H           4.5262    1.8415   -0.3867 H       1  UNL1        0.0268
     49 H           5.9743   -0.8139   -0.8552 H       1  UNL1        0.0305
     50 H           7.3954   -0.1413    0.8126 H       1  UNL1        0.0362
     51 H           7.2806    1.0822   -0.4471 H       1  UNL1        0.0362
     52 H           8.5028    2.2520    1.7720 H       1  UNL1        0.1822
     53 H           7.3967    4.2335    2.4590 H       1  UNL1        0.2414
     54 H           4.0902    0.0098    1.4107 H       1  UNL1        0.0268
     55 H           5.3868   -1.2229    1.6663 H       1  UNL1        0.0268
     56 H           4.3482   -2.7361    0.1940 H       1  UNL1        0.0268
     57 H           2.9507   -1.9229    0.9874 H       1  UNL1        0.0268
     58 H           0.2450   -0.2370   -2.0837 H       1  UNL1        0.0628
     59 H          -7.4866    0.5197    0.6306 H       1  UNL1        0.0327
     60 H          -6.2432   -0.7178    0.4397 H       1  UNL1        0.0327
     61 H          -4.8030    0.5041    2.1531 H       1  UNL1        0.0233
     62 H          -6.2997   -0.2526    2.7541 H       1  UNL1        0.0233
     63 H          -6.2720    1.5711    2.5129 H       1  UNL1        0.0233
     64 H          -5.0741    4.8128   -2.1413 H       1  UNL1        0.0473
     65 H          -5.0091    3.7803   -3.5872 H       1  UNL1        0.0473
     66 H          -6.5836    4.0386   -2.8059 H       1  UNL1        0.0473
     67 H          -1.0864    1.1561   -2.4683 H       1  UNL1        0.1704
@<TRIPOS>BOND
     1     1     2    1
     2     2     3    1
     3     3     4    1
     4     4     5   ar
     5     5     6   ar
     6     6     7   ar
     7     7     8    1
     8     8     9    1
     9     9    10    1
    10    10    11    1
    11    11    12    1
    12    12    13    1
    13    13    14    1
    14    14    15    2
    15    14    16   am
    16    16    17    1
    17    12    18    1
    18    18    19    1
    19     7    20   ar
    20    20    21   ar
    21    21    22    1
    22    22    23   ar
    23    23    24   ar
    24    24    25   ar
    25    25    26    1
    26    26    27    1
    27    25    28   ar
    28    28    29   ar
    29    29    30    1
    30    29    31   ar
    31    31    32   ar
    32    32    33    2
    33    32    34   ar
    34    21     4   ar
    35    34    22   ar
    36    19     9    1
    37    31    24   ar
    38     1    35    1
    39     1    36    1
    40     1    37    1
    41     2    38    1
    42     2    39    1
    43     5    40    1
    44     6    41    1
    45     8    42    1
    46     8    43    1
    47     9    44    1
    48    10    45    1
    49    10    46    1
    50    11    47    1
    51    11    48    1
    52    12    49    1
    53    13    50    1
    54    13    51    1
    55    16    52    1
    56    17    53    1
    57    18    54    1
    58    18    55    1
    59    19    56    1
    60    19    57    1
    61    20    58    1
    62    26    59    1
    63    26    60    1
    64    27    61    1
    65    27    62    1
    66    27    63    1
    67    30    64    1
    68    30    65    1
    69    30    66    1
    70    34    67    1
