@<TRIPOS>MOLECULE
*****
 32 31 0 0 0
SMALL
GASTEIGER

@<TRIPOS>ATOM
      1 CA         -2.7170    0.1089   -0.3293 C.3     1  UNL1        0.0571
      2 N          -2.8518    0.4532    1.0519 N.3     1  UNL1       -0.3233
      3 C          -3.4559    1.0660   -1.2402 C.3     1  UNL1        0.0618
      4 O          -4.8146    1.0590   -0.9326 O.3     1  UNL1       -0.3934
      5 C          -1.2537    0.0214   -0.6831 C.3     1  UNL1        0.1007
      6 O          -0.6541    1.2366   -0.4508 O.3     1  UNL1       -0.3875
      7 C          -0.5603   -1.0788    0.0719 C.3     1  UNL1        0.1105
      8 O          -0.5526   -0.8731    1.4520 O.3     1  UNL1       -0.3865
      9 C           0.7957   -1.3954   -0.4719 C.3     1  UNL1        0.1073
     10 O           1.2411   -2.5733    0.1465 O.3     1  UNL1       -0.3868
     11 C           1.8363   -0.3267   -0.1791 C.3     1  UNL1        0.0875
     12 O           3.0613   -0.7905   -0.7128 O.3     1  UNL1       -0.2841
     13 P           4.2951    0.3093   -0.4521 P.3     1  UNL1        0.4724
     14 O           3.7376    1.7991    0.0717 O.3     1  UNL1       -0.3026
     15 O           5.3154   -0.3763    0.7376 O.3     1  UNL1       -0.3026
     16 O           5.0514    0.4476   -1.7663 O.2     1  UNL1       -0.2275
     17 HA         -3.1890   -0.8836   -0.4775 H       1  UNL1        0.0507
     18 H1         -3.2925   -0.3097    1.6176 H       1  UNL1        0.1186
     19 H2         -3.3076    1.3473    1.2569 H       1  UNL1        0.1186
     20 H1         -3.1187    2.1000   -1.1377 H       1  UNL1        0.0573
     21 H2         -3.3492    0.7771   -2.2997 H       1  UNL1        0.0573
     22 H          -4.9680    1.7213   -0.2114 H       1  UNL1        0.2095
     23 H          -1.1552   -0.2601   -1.7726 H       1  UNL1        0.0636
     24 H          -0.7777    1.4196    0.5347 H       1  UNL1        0.2100
     25 H          -1.1734   -2.0164   -0.0939 H       1  UNL1        0.0646
     26 H           0.3558   -1.0521    1.7727 H       1  UNL1        0.2100
     27 H           0.7214   -1.5523   -1.5588 H       1  UNL1        0.0643
     28 H           1.6701   -2.4150    1.0114 H       1  UNL1        0.2100
     29 H           1.5332    0.5965   -0.6937 H       1  UNL1        0.0592
     30 H           2.0049   -0.2158    0.9066 H       1  UNL1        0.0592
     31 H           3.4253    2.3644   -0.6624 H       1  UNL1        0.2220
     32 H           6.1467   -0.7082    0.3595 H       1  UNL1        0.2220
@<TRIPOS>BOND
     1     1     2    1
     2     1     3    1
     3     3     4    1
     4     1     5    1
     5     5     6    1
     6     5     7    1
     7     7     8    1
     8     7     9    1
     9     9    10    1
    10     9    11    1
    11    11    12    1
    12    12    13    1
    13    13    14    1
    14    13    15    1
    15    13    16    2
    16     1    17    1
    17     2    18    1
    18     2    19    1
    19     3    20    1
    20     3    21    1
    21     4    22    1
    22     5    23    1
    23     6    24    1
    24     7    25    1
    25     8    26    1
    26     9    27    1
    27    10    28    1
    28    11    29    1
    29    11    30    1
    30    14    31    1
    31    15    32    1
