
     RDKit          3D

 44 47  0  0  0  0  0  0  0  0999 V2000
    8.4293   -1.5132    3.7712 C   0  0  0  0  0  0  0  0  0  0  0  0
    7.3187   -1.2002    3.3595 C   0  0  0  0  0  0  0  0  0  0  0  0
    6.0142   -0.8490    2.8595 C   0  0  0  0  0  0  0  0  0  0  0  0
    4.8774   -1.0445    3.6983 C   0  0  0  0  0  0  0  0  0  0  0  0
    3.6837   -0.6580    3.1297 C   0  0  0  0  0  0  0  0  0  0  0  0
    3.4831   -0.1386    1.9185 C   0  0  0  0  0  0  0  0  0  0  0  0
    2.1999    0.2574    1.3327 C   0  0  0  0  0  0  0  0  0  0  0  0
    1.1583    0.3004    2.0807 O   0  0  0  0  0  0  0  0  0  0  0  0
    2.0345    0.5989   -0.0148 N   0  0  0  0  0  0  0  0  0  0  0  0
    0.7866    1.0337   -0.5958 C   0  0  0  0  0  0  0  0  0  0  0  0
    0.5914    2.3190   -1.0309 C   0  0  0  0  0  0  0  0  0  0  0  0
   -0.6310    2.7491   -1.5269 C   0  0  0  0  0  0  0  0  0  0  0  0
   -1.7178    1.8847   -1.6018 C   0  0  0  0  0  0  0  0  0  0  0  0
   -2.9221    2.1976   -2.0669 F   0  0  0  0  0  0  0  0  0  0  0  0
   -1.5247    0.5552   -1.1527 C   0  0  0  0  0  0  0  0  0  0  0  0
   -2.7299   -0.3090   -1.1763 C   0  0  1  0  0  0  0  0  0  0  0  0
   -2.3608   -1.6664   -0.5822 C   0  0  0  0  0  0  0  0  0  0  0  0
   -1.9467   -1.5335    0.7081 F   0  0  0  0  0  0  0  0  0  0  0  0
   -1.4517   -2.3314   -1.3772 F   0  0  0  0  0  0  0  0  0  0  0  0
   -3.7513    0.2171   -0.3487 N   0  0  0  0  0  0  0  0  0  0  0  0
   -4.9915    0.5969   -0.6873 C   0  0  0  0  0  0  0  0  0  0  0  0
   -5.7113    1.0795    0.4698 N   0  0  0  0  0  0  0  0  0  0  0  0
   -5.3438    0.4805   -1.9430 O   0  0  0  0  0  0  0  0  0  0  0  0
   -4.4584    0.1071   -2.9915 C   0  0  2  0  0  0  0  0  0  0  0  0
   -4.2373   -1.3994   -3.0045 C   0  0  0  0  0  0  0  0  0  0  0  0
   -3.1658   -0.4441   -2.6201 C   0  0  2  0  0  0  0  0  0  0  0  0
   -0.3075    0.1887   -0.6793 C   0  0  0  0  0  0  0  0  0  0  0  0
    4.6153    0.0229    1.1566 N   0  0  0  0  0  0  0  0  0  0  0  0
    5.8381   -0.3175    1.6061 C   0  0  0  0  0  0  0  0  0  0  0  0
    9.3872   -1.7649    4.1302 H   0  0  0  0  0  0  0  0  0  0  0  0
    5.0366   -1.4670    4.6568 H   0  0  0  0  0  0  0  0  0  0  0  0
    2.7813   -0.8058    3.7734 H   0  0  0  0  0  0  0  0  0  0  0  0
    2.8582    0.5173   -0.6675 H   0  0  0  0  0  0  0  0  0  0  0  0
    1.4330    3.0191   -0.9823 H   0  0  0  0  0  0  0  0  0  0  0  0
   -0.7832    3.7821   -1.8756 H   0  0  0  0  0  0  0  0  0  0  0  0
   -3.3033   -2.2981   -0.6277 H   0  0  0  0  0  0  0  0  0  0  0  0
   -5.2863    1.7082    1.1627 H   0  0  0  0  0  0  0  0  0  0  0  0
   -6.6867    0.7568    0.5724 H   0  0  0  0  0  0  0  0  0  0  0  0
   -4.5843    0.6499   -3.9509 H   0  0  0  0  0  0  0  0  0  0  0  0
   -4.1903   -1.8716   -3.9779 H   0  0  0  0  0  0  0  0  0  0  0  0
   -4.7006   -2.0311   -2.2198 H   0  0  0  0  0  0  0  0  0  0  0  0
   -2.3310   -0.3925   -3.3343 H   0  0  0  0  0  0  0  0  0  0  0  0
   -0.1279   -0.8246   -0.3266 H   0  0  0  0  0  0  0  0  0  0  0  0
    6.7182   -0.1619    0.9765 H   0  0  0  0  0  0  0  0  0  0  0  0
  1  2  3  0
  2  3  1  0
  3  4  2  0
  4  5  1  0
  5  6  2  0
  6  7  1  0
  7  8  2  0
  7  9  1  0
  9 10  1  0
 10 11  2  0
 11 12  1  0
 12 13  2  0
 13 14  1  0
 13 15  1  0
 15 16  1  0
 16 17  1  1
 17 18  1  0
 17 19  1  0
 16 20  1  0
 20 21  2  0
 21 22  1  0
 21 23  1  0
 23 24  1  0
 24 25  1  0
 25 26  1  0
 15 27  2  0
  6 28  1  0
 28 29  2  0
 29  3  1  0
 27 10  1  0
 26 16  1  0
 26 24  1  0
  1 30  1  0
  4 31  1  0
  5 32  1  0
  9 33  1  0
 11 34  1  0
 12 35  1  0
 17 36  1  0
 22 37  1  0
 22 38  1  0
 24 39  1  6
 25 40  1  0
 25 41  1  0
 26 42  1  6
 27 43  1  0
 29 44  1  0
M  END
$$$$
