@<TRIPOS>MOLECULE
*****
 44 47 0 0 0
SMALL
GASTEIGER

@<TRIPOS>ATOM
      1 C           8.4293   -1.5132    3.7712 C.1     1  UNL1       -0.1139
      2 C           7.3187   -1.2002    3.3595 C.1     1  UNL1       -0.0681
      3 C           6.0142   -0.8490    2.8595 C.ar    1  UNL1        0.0428
      4 C           4.8774   -1.0445    3.6983 C.ar    1  UNL1       -0.0427
      5 C           3.6837   -0.6580    3.1297 C.ar    1  UNL1       -0.0300
      6 C           3.4831   -0.1386    1.9185 C.ar    1  UNL1        0.1257
      7 C           2.1999    0.2574    1.3327 C.2     1  UNL1        0.2666
      8 O           1.1583    0.3004    2.0807 O.2     1  UNL1       -0.2682
      9 N           2.0345    0.5989   -0.0148 N.am    1  UNL1       -0.2802
     10 C           0.7866    1.0337   -0.5958 C.ar    1  UNL1        0.0342
     11 C           0.5914    2.3190   -1.0309 C.ar    1  UNL1       -0.0377
     12 C          -0.6310    2.7491   -1.5269 C.ar    1  UNL1       -0.0243
     13 C          -1.7178    1.8847   -1.6018 C.ar    1  UNL1        0.1292
     14 F          -2.9221    2.1976   -2.0669 F       1  UNL1       -0.2051
     15 C          -1.5247    0.5552   -1.1527 C.ar    1  UNL1        0.0228
     16 C          -2.7299   -0.3090   -1.1763 C.3     1  UNL1        0.1603
     17 C          -2.3608   -1.6664   -0.5822 C.3     1  UNL1        0.2686
     18 F          -1.9467   -1.5335    0.7081 F       1  UNL1       -0.2062
     19 F          -1.4517   -2.3314   -1.3772 F       1  UNL1       -0.2062
     20 N          -3.7513    0.2171   -0.3487 N.2     1  UNL1       -0.2194
     21 C          -4.9915    0.5969   -0.6873 C.2     1  UNL1        0.2764
     22 N          -5.7113    1.0795    0.4698 N.pl3   1  UNL1       -0.3134
     23 O          -5.3438    0.4805   -1.9430 O.2     1  UNL1       -0.4622
     24 C          -4.4584    0.1071   -2.9915 C.3     1  UNL1        0.1091
     25 C          -4.2373   -1.3994   -3.0045 C.3     1  UNL1       -0.0064
     26 C          -3.1658   -0.4441   -2.6201 C.3     1  UNL1        0.0344
     27 C          -0.3075    0.1887   -0.6793 C.ar    1  UNL1       -0.0321
     28 N           4.6153    0.0229    1.1566 N.ar    1  UNL1       -0.2491
     29 C           5.8381   -0.3175    1.6061 C.ar    1  UNL1        0.0438
     30 H           9.3872   -1.7649    4.1302 H       1  UNL1        0.1232
     31 H           5.0366   -1.4670    4.6568 H       1  UNL1        0.0631
     32 H           2.7813   -0.8058    3.7734 H       1  UNL1        0.0641
     33 H           2.8582    0.5173   -0.6675 H       1  UNL1        0.1552
     34 H           1.4330    3.0191   -0.9823 H       1  UNL1        0.0637
     35 H          -0.7832    3.7821   -1.8756 H       1  UNL1        0.0647
     36 H          -3.3033   -2.2981   -0.6277 H       1  UNL1        0.1047
     37 H          -5.2863    1.7082    1.1627 H       1  UNL1        0.1466
     38 H          -6.6867    0.7568    0.5724 H       1  UNL1        0.1466
     39 H          -4.5843    0.6499   -3.9509 H       1  UNL1        0.0737
     40 H          -4.1903   -1.8716   -3.9779 H       1  UNL1        0.0306
     41 H          -4.7006   -2.0311   -2.2198 H       1  UNL1        0.0306
     42 H          -2.3310   -0.3925   -3.3343 H       1  UNL1        0.0366
     43 H          -0.1279   -0.8246   -0.3266 H       1  UNL1        0.0640
     44 H           6.7182   -0.1619    0.9765 H       1  UNL1        0.0842
@<TRIPOS>BOND
     1     1     2    3
     2     2     3    1
     3     3     4   ar
     4     4     5   ar
     5     5     6   ar
     6     6     7    1
     7     7     8    2
     8     7     9   am
     9     9    10    1
    10    10    11   ar
    11    11    12   ar
    12    12    13   ar
    13    13    14    1
    14    13    15   ar
    15    15    16    1
    16    16    17    1
    17    17    18    1
    18    17    19    1
    19    16    20    1
    20    20    21    2
    21    21    22    1
    22    21    23    1
    23    23    24    1
    24    24    25    1
    25    25    26    1
    26    15    27   ar
    27     6    28   ar
    28    28    29   ar
    29    29     3   ar
    30    27    10   ar
    31    26    16    1
    32    26    24    1
    33     1    30    1
    34     4    31    1
    35     5    32    1
    36     9    33    1
    37    11    34    1
    38    12    35    1
    39    17    36    1
    40    22    37    1
    41    22    38    1
    42    24    39    1
    43    25    40    1
    44    25    41    1
    45    26    42    1
    46    27    43    1
    47    29    44    1
