@<TRIPOS>MOLECULE
*****
 44 45 0 0 0
SMALL
GASTEIGER

@<TRIPOS>ATOM
      1 C          -4.3595   -1.4804    1.0174 C.3     1  UNL1       -0.0606
      2 C          -3.5033   -2.2927    0.0747 C.3     1  UNL1       -0.0185
      3 C          -4.0676   -2.0432   -1.3228 C.3     1  UNL1       -0.0606
      4 C          -2.0646   -1.8410    0.0892 C.3     1  UNL1        0.1319
      5 N          -1.2376   -2.5843   -0.7832 N.3     1  UNL1       -0.1750
      6 S          -0.5343   -1.7409   -2.0716 S.O2    1  UNL1        0.0592
      7 O           0.3270   -2.5847   -2.9418 O.2     1  UNL1       -0.1530
      8 O          -1.5190   -1.0293   -2.9509 O.2     1  UNL1       -0.1530
      9 C           0.5026   -0.4895   -1.3853 C.ar    1  UNL1        0.1053
     10 C           1.8047   -0.8201   -1.0944 C.ar    1  UNL1       -0.0348
     11 C           2.6392    0.1275   -0.5614 C.ar    1  UNL1       -0.0522
     12 C           2.2183    1.4226   -0.3002 C.ar    1  UNL1       -0.0177
     13 C           3.1352    2.4008    0.2674 C.ar    1  UNL1       -0.0152
     14 C           4.1460    2.0196    1.1355 C.ar    1  UNL1       -0.0539
     15 C           5.0272    2.9149    1.6897 C.ar    1  UNL1       -0.0585
     16 C           4.8966    4.2470    1.3657 C.ar    1  UNL1       -0.0264
     17 C           3.9025    4.6595    0.5057 C.ar    1  UNL1        0.1240
     18 F           3.7641    5.9598    0.1803 F       1  UNL1       -0.2055
     19 C           3.0241    3.7342   -0.0413 C.ar    1  UNL1       -0.0187
     20 C           0.9109    1.7327   -0.5989 C.ar    1  UNL1       -0.0522
     21 C           0.0374    0.7838   -1.1440 C.ar    1  UNL1       -0.0348
     22 P          -1.3940   -1.7215    1.7612 P.3     1  UNL1        0.3463
     23 O          -0.1113   -0.8881    1.6765 O.2     1  UNL1       -0.2571
     24 O          -1.0762   -3.1811    2.4737 O.3     1  UNL1       -0.3230
     25 O          -2.4550   -0.8476    2.7470 O.3     1  UNL1       -0.3230
     26 H          -5.3979   -1.5136    0.6273 H       1  UNL1        0.0233
     27 H          -4.4089   -1.9213    2.0400 H       1  UNL1        0.0233
     28 H          -4.0731   -0.4086    1.0249 H       1  UNL1        0.0233
     29 H          -3.6548   -3.3447    0.2955 H       1  UNL1        0.0317
     30 H          -4.0805   -0.9648   -1.5620 H       1  UNL1        0.0233
     31 H          -5.1465   -2.3768   -1.3532 H       1  UNL1        0.0233
     32 H          -3.5634   -2.6509   -2.0940 H       1  UNL1        0.0233
     33 H          -2.0791   -0.7864   -0.2964 H       1  UNL1        0.0605
     34 H          -1.6495   -3.4672   -1.0886 H       1  UNL1        0.1490
     35 H           2.1453   -1.8119   -1.2887 H       1  UNL1        0.0637
     36 H           3.6528   -0.1406   -0.3382 H       1  UNL1        0.0624
     37 H           4.2188    0.9677    1.3672 H       1  UNL1        0.0624
     38 H           5.8264    2.6088    2.3769 H       1  UNL1        0.0619
     39 H           5.5999    4.9465    1.8107 H       1  UNL1        0.0646
     40 H           2.2424    4.0507   -0.7161 H       1  UNL1        0.0652
     41 H           0.5822    2.7292   -0.3995 H       1  UNL1        0.0624
     42 H          -0.9887    1.0458   -1.3747 H       1  UNL1        0.0637
     43 H          -1.2565   -3.2589    3.4214 H       1  UNL1        0.2198
     44 H          -1.9823   -0.1614    3.2832 H       1  UNL1        0.2198
@<TRIPOS>BOND
     1     1     2    1
     2     2     3    1
     3     2     4    1
     4     4     5    1
     5     5     6    1
     6     6     7    2
     7     6     8    2
     8     6     9    1
     9     9    10   ar
    10    10    11   ar
    11    11    12   ar
    12    12    13    1
    13    13    14   ar
    14    14    15   ar
    15    15    16   ar
    16    16    17   ar
    17    17    18    1
    18    17    19   ar
    19    12    20   ar
    20    20    21   ar
    21     4    22    1
    22    22    23    2
    23    22    24    1
    24    22    25    1
    25    21     9   ar
    26    19    13   ar
    27     1    26    1
    28     1    27    1
    29     1    28    1
    30     2    29    1
    31     3    30    1
    32     3    31    1
    33     3    32    1
    34     4    33    1
    35     5    34    1
    36    10    35    1
    37    11    36    1
    38    14    37    1
    39    15    38    1
    40    16    39    1
    41    19    40    1
    42    20    41    1
    43    21    42    1
    44    24    43    1
    45    25    44    1
