
     RDKit          3D

 44 45  0  0  0  0  0  0  0  0999 V2000
   -4.3595   -1.4804    1.0174 C   0  0  0  0  0  0  0  0  0  0  0  0
   -3.5033   -2.2927    0.0747 C   0  0  0  0  0  0  0  0  0  0  0  0
   -4.0676   -2.0432   -1.3228 C   0  0  0  0  0  0  0  0  0  0  0  0
   -2.0646   -1.8410    0.0892 C   0  0  2  0  0  0  0  0  0  0  0  0
   -1.2376   -2.5843   -0.7832 N   0  0  0  0  0  0  0  0  0  0  0  0
   -0.5343   -1.7409   -2.0716 S   0  0  0  0  0  6  0  0  0  0  0  0
    0.3270   -2.5847   -2.9418 O   0  0  0  0  0  0  0  0  0  0  0  0
   -1.5190   -1.0293   -2.9509 O   0  0  0  0  0  0  0  0  0  0  0  0
    0.5026   -0.4895   -1.3853 C   0  0  0  0  0  0  0  0  0  0  0  0
    1.8047   -0.8201   -1.0944 C   0  0  0  0  0  0  0  0  0  0  0  0
    2.6392    0.1275   -0.5614 C   0  0  0  0  0  0  0  0  0  0  0  0
    2.2183    1.4226   -0.3002 C   0  0  0  0  0  0  0  0  0  0  0  0
    3.1352    2.4008    0.2674 C   0  0  0  0  0  0  0  0  0  0  0  0
    4.1460    2.0196    1.1355 C   0  0  0  0  0  0  0  0  0  0  0  0
    5.0272    2.9149    1.6897 C   0  0  0  0  0  0  0  0  0  0  0  0
    4.8966    4.2470    1.3657 C   0  0  0  0  0  0  0  0  0  0  0  0
    3.9025    4.6595    0.5057 C   0  0  0  0  0  0  0  0  0  0  0  0
    3.7641    5.9598    0.1803 F   0  0  0  0  0  0  0  0  0  0  0  0
    3.0241    3.7342   -0.0413 C   0  0  0  0  0  0  0  0  0  0  0  0
    0.9109    1.7327   -0.5989 C   0  0  0  0  0  0  0  0  0  0  0  0
    0.0374    0.7838   -1.1440 C   0  0  0  0  0  0  0  0  0  0  0  0
   -1.3940   -1.7215    1.7612 P   0  0  0  0  0  5  0  0  0  0  0  0
   -0.1113   -0.8881    1.6765 O   0  0  0  0  0  0  0  0  0  0  0  0
   -1.0762   -3.1811    2.4737 O   0  0  0  0  0  0  0  0  0  0  0  0
   -2.4550   -0.8476    2.7470 O   0  0  0  0  0  0  0  0  0  0  0  0
   -5.3979   -1.5136    0.6273 H   0  0  0  0  0  0  0  0  0  0  0  0
   -4.4089   -1.9213    2.0400 H   0  0  0  0  0  0  0  0  0  0  0  0
   -4.0731   -0.4086    1.0249 H   0  0  0  0  0  0  0  0  0  0  0  0
   -3.6548   -3.3447    0.2955 H   0  0  0  0  0  0  0  0  0  0  0  0
   -4.0805   -0.9648   -1.5620 H   0  0  0  0  0  0  0  0  0  0  0  0
   -5.1465   -2.3768   -1.3532 H   0  0  0  0  0  0  0  0  0  0  0  0
   -3.5634   -2.6509   -2.0940 H   0  0  0  0  0  0  0  0  0  0  0  0
   -2.0791   -0.7864   -0.2964 H   0  0  0  0  0  0  0  0  0  0  0  0
   -1.6495   -3.4672   -1.0886 H   0  0  0  0  0  0  0  0  0  0  0  0
    2.1453   -1.8119   -1.2887 H   0  0  0  0  0  0  0  0  0  0  0  0
    3.6528   -0.1406   -0.3382 H   0  0  0  0  0  0  0  0  0  0  0  0
    4.2188    0.9677    1.3672 H   0  0  0  0  0  0  0  0  0  0  0  0
    5.8264    2.6088    2.3769 H   0  0  0  0  0  0  0  0  0  0  0  0
    5.5999    4.9465    1.8107 H   0  0  0  0  0  0  0  0  0  0  0  0
    2.2424    4.0507   -0.7161 H   0  0  0  0  0  0  0  0  0  0  0  0
    0.5822    2.7292   -0.3995 H   0  0  0  0  0  0  0  0  0  0  0  0
   -0.9887    1.0458   -1.3747 H   0  0  0  0  0  0  0  0  0  0  0  0
   -1.2565   -3.2589    3.4214 H   0  0  0  0  0  0  0  0  0  0  0  0
   -1.9823   -0.1614    3.2832 H   0  0  0  0  0  0  0  0  0  0  0  0
  1  2  1  0
  2  3  1  0
  2  4  1  0
  4  5  1  0
  5  6  1  0
  6  7  2  0
  6  8  2  0
  6  9  1  0
  9 10  2  0
 10 11  1  0
 11 12  2  0
 12 13  1  0
 13 14  2  0
 14 15  1  0
 15 16  2  0
 16 17  1  0
 17 18  1  0
 17 19  2  0
 12 20  1  0
 20 21  2  0
  4 22  1  0
 22 23  2  0
 22 24  1  0
 22 25  1  0
 21  9  1  0
 19 13  1  0
  1 26  1  0
  1 27  1  0
  1 28  1  0
  2 29  1  0
  3 30  1  0
  3 31  1  0
  3 32  1  0
  4 33  1  6
  5 34  1  0
 10 35  1  0
 11 36  1  0
 14 37  1  0
 15 38  1  0
 16 39  1  0
 19 40  1  0
 20 41  1  0
 21 42  1  0
 24 43  1  0
 25 44  1  0
M  END
$$$$
