@<TRIPOS>MOLECULE
*****
 73 75 0 0 0
SMALL
GASTEIGER

@<TRIPOS>ATOM
      1 C           8.7441   -0.5730   -0.8005 C.3     1  UNL1       -0.0397
      2 C           7.5130    0.2162   -1.1245 C.ar    1  UNL1       -0.0502
      3 C           7.5711    1.3477   -1.9092 C.ar    1  UNL1       -0.0586
      4 C           6.4146    2.0619   -2.1933 C.ar    1  UNL1       -0.0583
      5 C           5.1718    1.6767   -1.7099 C.ar    1  UNL1       -0.0473
      6 C           3.9644    2.4686   -2.0407 C.3     1  UNL1       -0.0395
      7 C           5.1049    0.5474   -0.9252 C.ar    1  UNL1       -0.0442
      8 C           3.8025    0.1114   -0.3907 C.3     1  UNL1       -0.0272
      9 C           3.4184    0.9831    0.7690 C.3     1  UNL1       -0.0461
     10 C           2.1048    0.6227    1.3909 C.3     1  UNL1       -0.0383
     11 C           0.9440    0.7100    0.4459 C.3     1  UNL1       -0.0357
     12 C           0.2237   -0.6075    0.4188 C.3     1  UNL1        0.0204
     13 N          -0.2923   -0.8839    1.7638 N.3     1  UNL1       -0.1810
     14 S          -1.3805   -2.2016    1.7974 S.O2    1  UNL1        0.0339
     15 O          -1.5427   -2.6731    3.2251 O.2     1  UNL1       -0.1580
     16 O          -0.6076   -3.3700    1.1530 O.2     1  UNL1       -0.1580
     17 C          -2.8541   -2.0779    0.9217 C.3     1  UNL1        0.1053
     18 C          -3.9160   -1.1361    1.2724 C.3     1  UNL1        0.0821
     19 C          -4.4089   -1.4312    2.7426 C.3     1  UNL1       -0.0396
     20 C          -5.1670   -1.4053    0.4905 C.3     1  UNL1       -0.0183
     21 C          -5.2058   -1.3235   -0.9681 C.3     1  UNL1        0.0182
     22 C          -4.3615   -2.2015   -1.8044 C.3     1  UNL1       -0.0554
     23 C          -5.2045    0.0946   -1.4759 C.ar    1  UNL1        0.1320
     24 N          -4.0378    0.7295   -1.5584 N.ar    1  UNL1       -0.2372
     25 C          -3.9767    1.9934   -2.0007 C.ar    1  UNL1        0.0663
     26 C          -5.1205    2.6530   -2.3762 C.ar    1  UNL1        0.1594
     27 F          -5.0201    3.9475   -2.8236 F       1  UNL1       -0.2023
     28 C          -6.3110    2.0068   -2.2928 C.ar    1  UNL1        0.0663
     29 N          -6.3154    0.7281   -1.8382 N.ar    1  UNL1       -0.2372
     30 N          -3.5953    0.2584    1.3234 N.am    1  UNL1       -0.1788
     31 O          -2.3762    0.7375    1.1013 O.3     1  UNL1       -0.2921
     32 C          -4.6258    1.2340    1.6401 C.2     1  UNL1        0.2256
     33 O          -4.3621    2.4567    1.6896 O.2     1  UNL1       -0.2772
     34 C           0.8278   -1.0559    2.6334 C.3     1  UNL1        0.0204
     35 C           2.1572   -0.7422    2.0328 C.3     1  UNL1       -0.0357
     36 C           6.2781   -0.1617   -0.6476 C.ar    1  UNL1       -0.0554
     37 H           8.9579   -1.3127   -1.5972 H       1  UNL1        0.0278
     38 H           8.5529   -1.0947    0.1590 H       1  UNL1        0.0278
     39 H           9.6138    0.1103   -0.7648 H       1  UNL1        0.0278
     40 H           8.5412    1.6633   -2.2945 H       1  UNL1        0.0620
     41 H           6.4406    2.9556   -2.8100 H       1  UNL1        0.0620
     42 H           3.9568    2.7810   -3.1131 H       1  UNL1        0.0278
     43 H           3.0376    1.9152   -1.8841 H       1  UNL1        0.0278
     44 H           3.9533    3.3859   -1.4125 H       1  UNL1        0.0278
     45 H           3.9451   -0.9323    0.0138 H       1  UNL1        0.0313
     46 H           3.0207    0.0085   -1.1578 H       1  UNL1        0.0313
     47 H           4.2009    0.8160    1.5659 H       1  UNL1        0.0271
     48 H           3.3867    2.0460    0.4875 H       1  UNL1        0.0271
     49 H           1.9237    1.3457    2.2140 H       1  UNL1        0.0302
     50 H           0.2220    1.4987    0.7412 H       1  UNL1        0.0281
     51 H           1.2641    0.9817   -0.5873 H       1  UNL1        0.0281
     52 H           0.9385   -1.4403    0.1488 H       1  UNL1        0.0444
     53 H          -0.5573   -0.6775   -0.3629 H       1  UNL1        0.0444
     54 H          -2.5488   -1.8410   -0.1483 H       1  UNL1        0.0538
     55 H          -3.2731   -3.1355    0.8246 H       1  UNL1        0.0538
     56 H          -3.6306   -1.2051    3.4593 H       1  UNL1        0.0252
     57 H          -5.2367   -0.7119    2.8784 H       1  UNL1        0.0252
     58 H          -4.8566   -2.4346    2.7803 H       1  UNL1        0.0252
     59 H          -6.0237   -0.7535    0.8646 H       1  UNL1        0.0294
     60 H          -5.5226   -2.4317    0.7828 H       1  UNL1        0.0294
     61 H          -6.2854   -1.6478   -1.2233 H       1  UNL1        0.0377
     62 H          -3.4522   -1.7500   -2.2457 H       1  UNL1        0.0236
     63 H          -4.1103   -3.1536   -1.3426 H       1  UNL1        0.0236
     64 H          -4.9743   -2.4554   -2.7457 H       1  UNL1        0.0236
     65 H          -3.0183    2.5309   -2.0754 H       1  UNL1        0.0860
     66 H          -7.2211    2.4884   -2.5767 H       1  UNL1        0.0860
     67 H          -2.3131    1.4939    0.4840 H       1  UNL1        0.2417
     68 H          -5.6471    0.9632    1.8446 H       1  UNL1        0.1274
     69 H           0.7975   -2.0972    3.0226 H       1  UNL1        0.0444
     70 H           0.6889   -0.4038    3.5195 H       1  UNL1        0.0444
     71 H           2.5542   -1.5303    1.3786 H       1  UNL1        0.0281
     72 H           2.8959   -0.6657    2.8716 H       1  UNL1        0.0281
     73 H           6.2203   -1.0509   -0.0304 H       1  UNL1        0.0623
@<TRIPOS>BOND
     1     1     2    1
     2     2     3   ar
     3     3     4   ar
     4     4     5   ar
     5     5     6    1
     6     5     7   ar
     7     7     8    1
     8     8     9    1
     9     9    10    1
    10    10    11    1
    11    11    12    1
    12    12    13    1
    13    13    14    1
    14    14    15    2
    15    14    16    2
    16    14    17    1
    17    17    18    1
    18    18    19    1
    19    18    20    1
    20    20    21    1
    21    21    22    1
    22    21    23    1
    23    23    24   ar
    24    24    25   ar
    25    25    26   ar
    26    26    27    1
    27    26    28   ar
    28    28    29   ar
    29    18    30    1
    30    30    31    1
    31    30    32   am
    32    32    33    2
    33    13    34    1
    34    34    35    1
    35     7    36   ar
    36    36     2   ar
    37    35    10    1
    38    29    23   ar
    39     1    37    1
    40     1    38    1
    41     1    39    1
    42     3    40    1
    43     4    41    1
    44     6    42    1
    45     6    43    1
    46     6    44    1
    47     8    45    1
    48     8    46    1
    49     9    47    1
    50     9    48    1
    51    10    49    1
    52    11    50    1
    53    11    51    1
    54    12    52    1
    55    12    53    1
    56    17    54    1
    57    17    55    1
    58    19    56    1
    59    19    57    1
    60    19    58    1
    61    20    59    1
    62    20    60    1
    63    21    61    1
    64    22    62    1
    65    22    63    1
    66    22    64    1
    67    25    65    1
    68    28    66    1
    69    31    67    1
    70    32    68    1
    71    34    69    1
    72    34    70    1
    73    35    71    1
    74    35    72    1
    75    36    73    1
