
     RDKit          3D

 73 75  0  0  0  0  0  0  0  0999 V2000
    8.7441   -0.5730   -0.8005 C   0  0  0  0  0  0  0  0  0  0  0  0
    7.5130    0.2162   -1.1245 C   0  0  0  0  0  0  0  0  0  0  0  0
    7.5711    1.3477   -1.9092 C   0  0  0  0  0  0  0  0  0  0  0  0
    6.4146    2.0619   -2.1933 C   0  0  0  0  0  0  0  0  0  0  0  0
    5.1718    1.6767   -1.7099 C   0  0  0  0  0  0  0  0  0  0  0  0
    3.9644    2.4686   -2.0407 C   0  0  0  0  0  0  0  0  0  0  0  0
    5.1049    0.5474   -0.9252 C   0  0  0  0  0  0  0  0  0  0  0  0
    3.8025    0.1114   -0.3907 C   0  0  0  0  0  0  0  0  0  0  0  0
    3.4184    0.9831    0.7690 C   0  0  0  0  0  0  0  0  0  0  0  0
    2.1048    0.6227    1.3909 C   0  0  0  0  0  0  0  0  0  0  0  0
    0.9440    0.7100    0.4459 C   0  0  0  0  0  0  0  0  0  0  0  0
    0.2237   -0.6075    0.4188 C   0  0  0  0  0  0  0  0  0  0  0  0
   -0.2923   -0.8839    1.7638 N   0  0  0  0  0  0  0  0  0  0  0  0
   -1.3805   -2.2016    1.7974 S   0  0  0  0  0  6  0  0  0  0  0  0
   -1.5427   -2.6731    3.2251 O   0  0  0  0  0  0  0  0  0  0  0  0
   -0.6076   -3.3700    1.1530 O   0  0  0  0  0  0  0  0  0  0  0  0
   -2.8541   -2.0779    0.9217 C   0  0  0  0  0  0  0  0  0  0  0  0
   -3.9160   -1.1361    1.2724 C   0  0  2  0  0  0  0  0  0  0  0  0
   -4.4089   -1.4312    2.7426 C   0  0  0  0  0  0  0  0  0  0  0  0
   -5.1670   -1.4053    0.4905 C   0  0  0  0  0  0  0  0  0  0  0  0
   -5.2058   -1.3235   -0.9681 C   0  0  2  0  0  0  0  0  0  0  0  0
   -4.3615   -2.2015   -1.8044 C   0  0  0  0  0  0  0  0  0  0  0  0
   -5.2045    0.0946   -1.4759 C   0  0  0  0  0  0  0  0  0  0  0  0
   -4.0378    0.7295   -1.5584 N   0  0  0  0  0  0  0  0  0  0  0  0
   -3.9767    1.9934   -2.0007 C   0  0  0  0  0  0  0  0  0  0  0  0
   -5.1205    2.6530   -2.3762 C   0  0  0  0  0  0  0  0  0  0  0  0
   -5.0201    3.9475   -2.8236 F   0  0  0  0  0  0  0  0  0  0  0  0
   -6.3110    2.0068   -2.2928 C   0  0  0  0  0  0  0  0  0  0  0  0
   -6.3154    0.7281   -1.8382 N   0  0  0  0  0  0  0  0  0  0  0  0
   -3.5953    0.2584    1.3234 N   0  0  0  0  0  0  0  0  0  0  0  0
   -2.3762    0.7375    1.1013 O   0  0  0  0  0  0  0  0  0  0  0  0
   -4.6258    1.2340    1.6401 C   0  0  0  0  0  0  0  0  0  0  0  0
   -4.3621    2.4567    1.6896 O   0  0  0  0  0  0  0  0  0  0  0  0
    0.8278   -1.0559    2.6334 C   0  0  0  0  0  0  0  0  0  0  0  0
    2.1572   -0.7422    2.0328 C   0  0  0  0  0  0  0  0  0  0  0  0
    6.2781   -0.1617   -0.6476 C   0  0  0  0  0  0  0  0  0  0  0  0
    8.9579   -1.3127   -1.5972 H   0  0  0  0  0  0  0  0  0  0  0  0
    8.5529   -1.0947    0.1590 H   0  0  0  0  0  0  0  0  0  0  0  0
    9.6138    0.1103   -0.7648 H   0  0  0  0  0  0  0  0  0  0  0  0
    8.5412    1.6633   -2.2945 H   0  0  0  0  0  0  0  0  0  0  0  0
    6.4406    2.9556   -2.8100 H   0  0  0  0  0  0  0  0  0  0  0  0
    3.9568    2.7810   -3.1131 H   0  0  0  0  0  0  0  0  0  0  0  0
    3.0376    1.9152   -1.8841 H   0  0  0  0  0  0  0  0  0  0  0  0
    3.9533    3.3859   -1.4125 H   0  0  0  0  0  0  0  0  0  0  0  0
    3.9451   -0.9323    0.0138 H   0  0  0  0  0  0  0  0  0  0  0  0
    3.0207    0.0085   -1.1578 H   0  0  0  0  0  0  0  0  0  0  0  0
    4.2009    0.8160    1.5659 H   0  0  0  0  0  0  0  0  0  0  0  0
    3.3867    2.0460    0.4875 H   0  0  0  0  0  0  0  0  0  0  0  0
    1.9237    1.3457    2.2140 H   0  0  0  0  0  0  0  0  0  0  0  0
    0.2220    1.4987    0.7412 H   0  0  0  0  0  0  0  0  0  0  0  0
    1.2641    0.9817   -0.5873 H   0  0  0  0  0  0  0  0  0  0  0  0
    0.9385   -1.4403    0.1488 H   0  0  0  0  0  0  0  0  0  0  0  0
   -0.5573   -0.6775   -0.3629 H   0  0  0  0  0  0  0  0  0  0  0  0
   -2.5488   -1.8410   -0.1483 H   0  0  0  0  0  0  0  0  0  0  0  0
   -3.2731   -3.1355    0.8246 H   0  0  0  0  0  0  0  0  0  0  0  0
   -3.6306   -1.2051    3.4593 H   0  0  0  0  0  0  0  0  0  0  0  0
   -5.2367   -0.7119    2.8784 H   0  0  0  0  0  0  0  0  0  0  0  0
   -4.8566   -2.4346    2.7803 H   0  0  0  0  0  0  0  0  0  0  0  0
   -6.0237   -0.7535    0.8646 H   0  0  0  0  0  0  0  0  0  0  0  0
   -5.5226   -2.4317    0.7828 H   0  0  0  0  0  0  0  0  0  0  0  0
   -6.2854   -1.6478   -1.2233 H   0  0  0  0  0  0  0  0  0  0  0  0
   -3.4522   -1.7500   -2.2457 H   0  0  0  0  0  0  0  0  0  0  0  0
   -4.1103   -3.1536   -1.3426 H   0  0  0  0  0  0  0  0  0  0  0  0
   -4.9743   -2.4554   -2.7457 H   0  0  0  0  0  0  0  0  0  0  0  0
   -3.0183    2.5309   -2.0754 H   0  0  0  0  0  0  0  0  0  0  0  0
   -7.2211    2.4884   -2.5767 H   0  0  0  0  0  0  0  0  0  0  0  0
   -2.3131    1.4939    0.4840 H   0  0  0  0  0  0  0  0  0  0  0  0
   -5.6471    0.9632    1.8446 H   0  0  0  0  0  0  0  0  0  0  0  0
    0.7975   -2.0972    3.0226 H   0  0  0  0  0  0  0  0  0  0  0  0
    0.6889   -0.4038    3.5195 H   0  0  0  0  0  0  0  0  0  0  0  0
    2.5542   -1.5303    1.3786 H   0  0  0  0  0  0  0  0  0  0  0  0
    2.8959   -0.6657    2.8716 H   0  0  0  0  0  0  0  0  0  0  0  0
    6.2203   -1.0509   -0.0304 H   0  0  0  0  0  0  0  0  0  0  0  0
  1  2  1  0
  2  3  2  0
  3  4  1  0
  4  5  2  0
  5  6  1  0
  5  7  1  0
  7  8  1  0
  8  9  1  0
  9 10  1  0
 10 11  1  0
 11 12  1  0
 12 13  1  0
 13 14  1  0
 14 15  2  0
 14 16  2  0
 14 17  1  0
 17 18  1  0
 18 19  1  0
 18 20  1  0
 20 21  1  0
 21 22  1  0
 21 23  1  0
 23 24  2  0
 24 25  1  0
 25 26  2  0
 26 27  1  0
 26 28  1  0
 28 29  2  0
 18 30  1  1
 30 31  1  0
 30 32  1  0
 32 33  2  0
 13 34  1  0
 34 35  1  0
  7 36  2  0
 36  2  1  0
 35 10  1  0
 29 23  1  0
  1 37  1  0
  1 38  1  0
  1 39  1  0
  3 40  1  0
  4 41  1  0
  6 42  1  0
  6 43  1  0
  6 44  1  0
  8 45  1  0
  8 46  1  0
  9 47  1  0
  9 48  1  0
 10 49  1  0
 11 50  1  0
 11 51  1  0
 12 52  1  0
 12 53  1  0
 17 54  1  0
 17 55  1  0
 19 56  1  0
 19 57  1  0
 19 58  1  0
 20 59  1  0
 20 60  1  0
 21 61  1  6
 22 62  1  0
 22 63  1  0
 22 64  1  0
 25 65  1  0
 28 66  1  0
 31 67  1  0
 32 68  1  0
 34 69  1  0
 34 70  1  0
 35 71  1  0
 35 72  1  0
 36 73  1  0
M  END
$$$$
