@<TRIPOS>MOLECULE
*****
 55 59 0 0 0
SMALL
GASTEIGER

@<TRIPOS>ATOM
      1 C           0.7150   -1.1500    3.1952 C.3     1  UNL1        0.0788
      2 O           0.2416   -1.0550    1.8656 O.3     1  UNL1       -0.4943
      3 C           1.1591   -0.9653    0.8372 C.ar    1  UNL1        0.1328
      4 C           2.5103   -0.9668    1.0781 C.ar    1  UNL1        0.0230
      5 C           3.4124   -0.8769    0.0504 C.ar    1  UNL1        0.1319
      6 O           4.7661   -0.8828    0.3493 O.3     1  UNL1       -0.4559
      7 C           5.4488    0.3003    0.5925 C.ar    1  UNL1        0.1284
      8 C           6.7794    0.2961    0.8975 C.ar    1  UNL1       -0.0193
      9 C           7.3990    1.4951    1.1278 C.ar    1  UNL1       -0.0583
     10 C           6.7100    2.6766    1.0564 C.ar    1  UNL1       -0.0615
     11 C           5.3687    2.6937    0.7498 C.ar    1  UNL1       -0.0583
     12 C           4.7517    1.4982    0.5204 C.ar    1  UNL1       -0.0193
     13 C           3.0051   -0.7815   -1.2624 C.ar    1  UNL1       -0.0185
     14 C           1.6413   -0.7809   -1.4922 C.ar    1  UNL1       -0.0455
     15 C           0.7395   -0.8703   -0.4749 C.ar    1  UNL1        0.0444
     16 C          -0.7105   -0.8589   -0.6966 C.ar    1  UNL1        0.1036
     17 N          -1.5708    0.0279   -0.1658 N.ar    1  UNL1       -0.2308
     18 C          -2.8054   -0.2847   -0.5866 C.ar    1  UNL1        0.1182
     19 C          -4.0230    0.4379   -0.2278 C.3     1  UNL1        0.0228
     20 C          -4.2231    0.7303    1.2338 C.3     1  UNL1       -0.0145
     21 C          -4.5369    2.1855    0.8844 C.3     1  UNL1        0.0646
     22 C          -5.9926    2.4381    0.5814 C.3     1  UNL1       -0.0360
     23 O          -3.9431    3.0795    1.7483 O.3     1  UNL1       -0.3888
     24 C          -3.7965    1.9373   -0.4187 C.3     1  UNL1       -0.0145
     25 N          -2.7084   -1.3580   -1.3721 N.ar    1  UNL1       -0.2982
     26 C          -3.6285   -2.0591   -2.0293 C.ar    1  UNL1        0.0297
     27 C          -3.3341   -3.1776   -2.8117 C.ar    1  UNL1        0.0463
     28 N          -2.0361   -3.5220   -2.8700 N.ar    1  UNL1       -0.2371
     29 C          -1.0827   -2.8555   -2.2336 C.ar    1  UNL1        0.1424
     30 N           0.3009   -3.2354   -2.2907 N.pl3   1  UNL1       -0.3414
     31 C          -1.4085   -1.7474   -1.4647 C.ar    1  UNL1        0.1136
     32 H           1.3095   -0.2636    3.4591 H       1  UNL1        0.0660
     33 H           1.3715   -2.0546    3.2463 H       1  UNL1        0.0660
     34 H          -0.1508   -1.3343    3.8462 H       1  UNL1        0.0660
     35 H           2.8777   -1.0396    2.0916 H       1  UNL1        0.0691
     36 H           7.3621   -0.6130    0.9645 H       1  UNL1        0.0654
     37 H           8.4545    1.4865    1.3692 H       1  UNL1        0.0619
     38 H           7.2552    3.5957    1.2501 H       1  UNL1        0.0618
     39 H           4.8787    3.6509    0.7075 H       1  UNL1        0.0619
     40 H           3.6975    1.4765    0.2767 H       1  UNL1        0.0654
     41 H           3.7440   -0.7114   -2.0538 H       1  UNL1        0.0654
     42 H           1.3229   -0.6954   -2.5340 H       1  UNL1        0.0626
     43 H          -4.9598    0.1088   -0.6851 H       1  UNL1        0.0381
     44 H          -3.3388    0.6535    1.8764 H       1  UNL1        0.0300
     45 H          -5.1319    0.2673    1.6703 H       1  UNL1        0.0300
     46 H          -6.1504    2.9235   -0.4036 H       1  UNL1        0.0257
     47 H          -6.6066    1.5167    0.6129 H       1  UNL1        0.0257
     48 H          -6.3626    3.1522    1.3477 H       1  UNL1        0.0257
     49 H          -4.4813    3.0842    2.5778 H       1  UNL1        0.2101
     50 H          -4.2736    2.3688   -1.3138 H       1  UNL1        0.0300
     51 H          -2.7552    2.2574   -0.3305 H       1  UNL1        0.0300
     52 H          -4.6589   -1.7422   -1.9506 H       1  UNL1        0.0829
     53 H          -4.1155   -3.7285   -3.3365 H       1  UNL1        0.0845
     54 H           0.7168   -3.6966   -1.4734 H       1  UNL1        0.1438
     55 H           0.8462   -3.0312   -3.1649 H       1  UNL1        0.1438
@<TRIPOS>BOND
     1     1     2    1
     2     2     3    1
     3     3     4   ar
     4     4     5   ar
     5     5     6    1
     6     6     7    1
     7     7     8   ar
     8     8     9   ar
     9     9    10   ar
    10    10    11   ar
    11    11    12   ar
    12     5    13   ar
    13    13    14   ar
    14    14    15   ar
    15    15    16    1
    16    16    17   ar
    17    17    18   ar
    18    18    19    1
    19    19    20    1
    20    20    21    1
    21    21    22    1
    22    21    23    1
    23    21    24    1
    24    18    25   ar
    25    25    26   ar
    26    26    27   ar
    27    27    28   ar
    28    28    29   ar
    29    29    30    1
    30    29    31   ar
    31    15     3   ar
    32    31    16   ar
    33    12     7   ar
    34    24    19    1
    35    31    25   ar
    36     1    32    1
    37     1    33    1
    38     1    34    1
    39     4    35    1
    40     8    36    1
    41     9    37    1
    42    10    38    1
    43    11    39    1
    44    12    40    1
    45    13    41    1
    46    14    42    1
    47    19    43    1
    48    20    44    1
    49    20    45    1
    50    22    46    1
    51    22    47    1
    52    22    48    1
    53    23    49    1
    54    24    50    1
    55    24    51    1
    56    26    52    1
    57    27    53    1
    58    30    54    1
    59    30    55    1
