
     RDKit          3D

 55 59  0  0  0  0  0  0  0  0999 V2000
    0.7150   -1.1500    3.1952 C   0  0  0  0  0  0  0  0  0  0  0  0
    0.2416   -1.0550    1.8656 O   0  0  0  0  0  0  0  0  0  0  0  0
    1.1591   -0.9653    0.8372 C   0  0  0  0  0  0  0  0  0  0  0  0
    2.5103   -0.9668    1.0781 C   0  0  0  0  0  0  0  0  0  0  0  0
    3.4124   -0.8769    0.0504 C   0  0  0  0  0  0  0  0  0  0  0  0
    4.7661   -0.8828    0.3493 O   0  0  0  0  0  0  0  0  0  0  0  0
    5.4488    0.3003    0.5925 C   0  0  0  0  0  0  0  0  0  0  0  0
    6.7794    0.2961    0.8975 C   0  0  0  0  0  0  0  0  0  0  0  0
    7.3990    1.4951    1.1278 C   0  0  0  0  0  0  0  0  0  0  0  0
    6.7100    2.6766    1.0564 C   0  0  0  0  0  0  0  0  0  0  0  0
    5.3687    2.6937    0.7498 C   0  0  0  0  0  0  0  0  0  0  0  0
    4.7517    1.4982    0.5204 C   0  0  0  0  0  0  0  0  0  0  0  0
    3.0051   -0.7815   -1.2624 C   0  0  0  0  0  0  0  0  0  0  0  0
    1.6413   -0.7809   -1.4922 C   0  0  0  0  0  0  0  0  0  0  0  0
    0.7395   -0.8703   -0.4749 C   0  0  0  0  0  0  0  0  0  0  0  0
   -0.7105   -0.8589   -0.6966 C   0  0  0  0  0  0  0  0  0  0  0  0
   -1.5708    0.0279   -0.1658 N   0  0  0  0  0  0  0  0  0  0  0  0
   -2.8054   -0.2847   -0.5866 C   0  0  0  0  0  0  0  0  0  0  0  0
   -4.0230    0.4379   -0.2278 C   0  0  1  0  0  0  0  0  0  0  0  0
   -4.2231    0.7303    1.2338 C   0  0  0  0  0  0  0  0  0  0  0  0
   -4.5369    2.1855    0.8844 C   0  0  1  0  0  0  0  0  0  0  0  0
   -5.9926    2.4381    0.5814 C   0  0  0  0  0  0  0  0  0  0  0  0
   -3.9431    3.0795    1.7483 O   0  0  0  0  0  0  0  0  0  0  0  0
   -3.7965    1.9373   -0.4187 C   0  0  0  0  0  0  0  0  0  0  0  0
   -2.7084   -1.3580   -1.3721 N   0  0  0  0  0  0  0  0  0  0  0  0
   -3.6285   -2.0591   -2.0293 C   0  0  0  0  0  0  0  0  0  0  0  0
   -3.3341   -3.1776   -2.8117 C   0  0  0  0  0  0  0  0  0  0  0  0
   -2.0361   -3.5220   -2.8700 N   0  0  0  0  0  0  0  0  0  0  0  0
   -1.0827   -2.8555   -2.2336 C   0  0  0  0  0  0  0  0  0  0  0  0
    0.3009   -3.2354   -2.2907 N   0  0  0  0  0  0  0  0  0  0  0  0
   -1.4085   -1.7474   -1.4647 C   0  0  0  0  0  0  0  0  0  0  0  0
    1.3095   -0.2636    3.4591 H   0  0  0  0  0  0  0  0  0  0  0  0
    1.3715   -2.0546    3.2463 H   0  0  0  0  0  0  0  0  0  0  0  0
   -0.1508   -1.3343    3.8462 H   0  0  0  0  0  0  0  0  0  0  0  0
    2.8777   -1.0396    2.0916 H   0  0  0  0  0  0  0  0  0  0  0  0
    7.3621   -0.6130    0.9645 H   0  0  0  0  0  0  0  0  0  0  0  0
    8.4545    1.4865    1.3692 H   0  0  0  0  0  0  0  0  0  0  0  0
    7.2552    3.5957    1.2501 H   0  0  0  0  0  0  0  0  0  0  0  0
    4.8787    3.6509    0.7075 H   0  0  0  0  0  0  0  0  0  0  0  0
    3.6975    1.4765    0.2767 H   0  0  0  0  0  0  0  0  0  0  0  0
    3.7440   -0.7114   -2.0538 H   0  0  0  0  0  0  0  0  0  0  0  0
    1.3229   -0.6954   -2.5340 H   0  0  0  0  0  0  0  0  0  0  0  0
   -4.9598    0.1088   -0.6851 H   0  0  0  0  0  0  0  0  0  0  0  0
   -3.3388    0.6535    1.8764 H   0  0  0  0  0  0  0  0  0  0  0  0
   -5.1319    0.2673    1.6703 H   0  0  0  0  0  0  0  0  0  0  0  0
   -6.1504    2.9235   -0.4036 H   0  0  0  0  0  0  0  0  0  0  0  0
   -6.6066    1.5167    0.6129 H   0  0  0  0  0  0  0  0  0  0  0  0
   -6.3626    3.1522    1.3477 H   0  0  0  0  0  0  0  0  0  0  0  0
   -4.4813    3.0842    2.5778 H   0  0  0  0  0  0  0  0  0  0  0  0
   -4.2736    2.3688   -1.3138 H   0  0  0  0  0  0  0  0  0  0  0  0
   -2.7552    2.2574   -0.3305 H   0  0  0  0  0  0  0  0  0  0  0  0
   -4.6589   -1.7422   -1.9506 H   0  0  0  0  0  0  0  0  0  0  0  0
   -4.1155   -3.7285   -3.3365 H   0  0  0  0  0  0  0  0  0  0  0  0
    0.7168   -3.6966   -1.4734 H   0  0  0  0  0  0  0  0  0  0  0  0
    0.8462   -3.0312   -3.1649 H   0  0  0  0  0  0  0  0  0  0  0  0
  1  2  1  0
  2  3  1  0
  3  4  2  0
  4  5  1  0
  5  6  1  0
  6  7  1  0
  7  8  2  0
  8  9  1  0
  9 10  2  0
 10 11  1  0
 11 12  2  0
  5 13  2  0
 13 14  1  0
 14 15  2  0
 15 16  1  0
 16 17  1  0
 17 18  2  0
 18 19  1  0
 19 20  1  0
 20 21  1  0
 21 22  1  0
 21 23  1  1
 21 24  1  0
 18 25  1  0
 25 26  1  0
 26 27  2  0
 27 28  1  0
 28 29  2  0
 29 30  1  0
 29 31  1  0
 15  3  1  0
 31 16  2  0
 12  7  1  0
 24 19  1  0
 31 25  1  0
  1 32  1  0
  1 33  1  0
  1 34  1  0
  4 35  1  0
  8 36  1  0
  9 37  1  0
 10 38  1  0
 11 39  1  0
 12 40  1  0
 13 41  1  0
 14 42  1  0
 19 43  1  6
 20 44  1  0
 20 45  1  0
 22 46  1  0
 22 47  1  0
 22 48  1  0
 23 49  1  0
 24 50  1  0
 24 51  1  0
 26 52  1  0
 27 53  1  0
 30 54  1  0
 30 55  1  0
M  END
$$$$
