@<TRIPOS>MOLECULE
*****
 63 67 0 0 0
SMALL
GASTEIGER

@<TRIPOS>ATOM
      1 C          -5.5962   -1.5021   -1.9712 C.3     1  UNL1        0.1126
      2 C          -6.7740   -2.4506   -1.9989 C.3     1  UNL1        0.0730
      3 O          -6.5289   -3.4553   -2.9196 O.3     1  UNL1       -0.3924
      4 O          -5.7651   -0.4533   -1.0621 O.3     1  UNL1       -0.3456
      5 C          -4.4569    0.0792   -1.0948 C.3     1  UNL1        0.1688
      6 N          -4.2817    1.2057   -0.2377 N.ar    1  UNL1       -0.2699
      7 C          -5.0417    1.5231    0.8258 C.ar    1  UNL1        0.0170
      8 C          -4.7345    2.6623    1.5604 C.ar    1  UNL1        0.0163
      9 C          -3.6578    3.4627    1.2021 C.ar    1  UNL1        0.2182
     10 O          -3.3264    4.6126    1.9219 O.3     1  UNL1       -0.4923
     11 N          -2.9175    3.0995    0.1165 N.ar    1  UNL1       -0.1577
     12 C          -3.2388    1.9820   -0.5839 C.ar    1  UNL1        0.3536
     13 O          -2.4488    1.8039   -1.5499 O.2     1  UNL1       -0.2443
     14 C          -3.6737   -1.1352   -0.6488 C.3     1  UNL1        0.1434
     15 O          -2.3165   -1.0318   -0.8499 O.3     1  UNL1       -0.2761
     16 P          -1.4342   -1.2323    0.5692 P.3     1  UNL1        0.4755
     17 O          -2.0996   -2.4906    1.5063 O.3     1  UNL1       -0.3025
     18 O          -1.4339    0.0701    1.3269 O.2     1  UNL1       -0.2273
     19 O           0.1625   -1.6378    0.2740 O.3     1  UNL1       -0.2840
     20 C           0.9701   -1.3722    1.3723 C.3     1  UNL1        0.0879
     21 C           2.4176   -1.7374    1.1108 C.3     1  UNL1        0.1134
     22 O           2.9574   -1.0482    0.0566 O.3     1  UNL1       -0.3456
     23 C           4.3133   -0.8860    0.3489 C.3     1  UNL1        0.1667
     24 N           4.9698    0.0425   -0.5058 N.ar    1  UNL1       -0.2855
     25 C           5.3237   -0.3245   -1.7608 C.ar    1  UNL1        0.1004
     26 N           5.9162    0.6941   -2.3670 N.ar    1  UNL1       -0.2306
     27 C           5.9737    1.7412   -1.5577 C.ar    1  UNL1        0.1473
     28 C           6.4367    3.0473   -1.5642 C.ar    1  UNL1        0.1472
     29 N           7.0569    3.4863   -2.7728 N.pl3   1  UNL1       -0.3413
     30 N           6.3031    3.8453   -0.4867 N.ar    1  UNL1       -0.2188
     31 C           5.7020    3.3762    0.6447 C.ar    1  UNL1        0.1205
     32 N           5.2443    2.1091    0.6732 N.ar    1  UNL1       -0.2159
     33 C           5.3727    1.3169   -0.3855 C.ar    1  UNL1        0.1674
     34 C           4.2509   -0.4295    1.7916 C.3     1  UNL1        0.1285
     35 O           5.4774   -0.5731    2.4317 O.3     1  UNL1       -0.3847
     36 C           3.2217   -1.4088    2.3403 C.3     1  UNL1        0.1135
     37 O           3.9178   -2.5367    2.7694 O.3     1  UNL1       -0.3864
     38 C          -4.3383   -2.2181   -1.4757 C.3     1  UNL1        0.1144
     39 O          -3.5854   -2.4793   -2.6124 O.3     1  UNL1       -0.3864
     40 H          -5.4271   -1.0241   -2.9579 H       1  UNL1        0.0647
     41 H          -6.9709   -2.8271   -0.9973 H       1  UNL1        0.0584
     42 H          -7.6470   -1.8695   -2.3460 H       1  UNL1        0.0584
     43 H          -6.1879   -4.2589   -2.4358 H       1  UNL1        0.2095
     44 H          -4.2427    0.2614   -2.1525 H       1  UNL1        0.0867
     45 H          -5.8610    0.8660    1.0544 H       1  UNL1        0.0813
     46 H          -5.3423    2.9166    2.4114 H       1  UNL1        0.0685
     47 H          -3.8561    5.4806    1.7829 H       1  UNL1        0.2937
     48 H          -3.9439   -1.3331    0.4181 H       1  UNL1        0.0674
     49 H          -1.4615   -2.6646    2.2365 H       1  UNL1        0.2220
     50 H           0.5753   -1.9897    2.2040 H       1  UNL1        0.0592
     51 H           0.8888   -0.3238    1.7206 H       1  UNL1        0.0592
     52 H           2.4434   -2.8299    0.9293 H       1  UNL1        0.0647
     53 H           4.7991   -1.8811    0.3478 H       1  UNL1        0.0866
     54 H           5.1947   -1.2512   -2.2742 H       1  UNL1        0.1030
     55 H           6.8239    4.0221   -3.6437 H       1  UNL1        0.1438
     56 H           8.0708    3.1783   -2.8094 H       1  UNL1        0.1438
     57 H           5.6715    4.1313    1.4152 H       1  UNL1        0.1048
     58 H           3.8511    0.5986    1.8854 H       1  UNL1        0.0665
     59 H           5.7319    0.3213    2.7734 H       1  UNL1        0.2101
     60 H           2.6062   -0.9622    3.1459 H       1  UNL1        0.0647
     61 H           3.3783   -3.3581    2.7347 H       1  UNL1        0.2100
     62 H          -4.5960   -3.1148   -0.8842 H       1  UNL1        0.0648
     63 H          -2.8362   -1.8454   -2.7237 H       1  UNL1        0.2100
@<TRIPOS>BOND
     1     1     2    1
     2     2     3    1
     3     1     4    1
     4     4     5    1
     5     5     6    1
     6     6     7   ar
     7     7     8   ar
     8     8     9   ar
     9     9    10    1
    10     9    11   ar
    11    11    12   ar
    12    12    13    2
    13     5    14    1
    14    14    15    1
    15    15    16    1
    16    16    17    1
    17    16    18    2
    18    16    19    1
    19    19    20    1
    20    20    21    1
    21    21    22    1
    22    22    23    1
    23    23    24    1
    24    24    25   ar
    25    25    26   ar
    26    26    27   ar
    27    27    28   ar
    28    28    29    1
    29    28    30   ar
    30    30    31   ar
    31    31    32   ar
    32    32    33   ar
    33    23    34    1
    34    34    35    1
    35    34    36    1
    36    36    37    1
    37    14    38    1
    38    38    39    1
    39    38     1    1
    40    12     6   ar
    41    36    21    1
    42    33    24   ar
    43    33    27   ar
    44     1    40    1
    45     2    41    1
    46     2    42    1
    47     3    43    1
    48     5    44    1
    49     7    45    1
    50     8    46    1
    51    10    47    1
    52    14    48    1
    53    17    49    1
    54    20    50    1
    55    20    51    1
    56    21    52    1
    57    23    53    1
    58    25    54    1
    59    29    55    1
    60    29    56    1
    61    31    57    1
    62    34    58    1
    63    35    59    1
    64    36    60    1
    65    37    61    1
    66    38    62    1
    67    39    63    1
