
     RDKit          3D

 63 67  0  0  0  0  0  0  0  0999 V2000
   -5.5962   -1.5021   -1.9712 C   0  0  1  0  0  0  0  0  0  0  0  0
   -6.7740   -2.4506   -1.9989 C   0  0  0  0  0  0  0  0  0  0  0  0
   -6.5289   -3.4553   -2.9196 O   0  0  0  0  0  0  0  0  0  0  0  0
   -5.7651   -0.4533   -1.0621 O   0  0  0  0  0  0  0  0  0  0  0  0
   -4.4569    0.0792   -1.0948 C   0  0  1  0  0  0  0  0  0  0  0  0
   -4.2817    1.2057   -0.2377 N   0  0  0  0  0  0  0  0  0  0  0  0
   -5.0417    1.5231    0.8258 C   0  0  0  0  0  0  0  0  0  0  0  0
   -4.7345    2.6623    1.5604 C   0  0  0  0  0  0  0  0  0  0  0  0
   -3.6578    3.4627    1.2021 C   0  0  0  0  0  0  0  0  0  0  0  0
   -3.3264    4.6126    1.9219 O   0  0  0  0  0  0  0  0  0  0  0  0
   -2.9175    3.0995    0.1165 N   0  0  0  0  0  0  0  0  0  0  0  0
   -3.2388    1.9820   -0.5839 C   0  0  0  0  0  0  0  0  0  0  0  0
   -2.4488    1.8039   -1.5499 O   0  0  0  0  0  0  0  0  0  0  0  0
   -3.6737   -1.1352   -0.6488 C   0  0  2  0  0  0  0  0  0  0  0  0
   -2.3165   -1.0318   -0.8499 O   0  0  0  0  0  0  0  0  0  0  0  0
   -1.4342   -1.2323    0.5692 P   0  0  0  0  0  0  0  0  0  0  0  0
   -2.0996   -2.4906    1.5063 O   0  0  0  0  0  0  0  0  0  0  0  0
   -1.4339    0.0701    1.3269 O   0  0  0  0  0  0  0  0  0  0  0  0
    0.1625   -1.6378    0.2740 O   0  0  0  0  0  0  0  0  0  0  0  0
    0.9701   -1.3722    1.3723 C   0  0  0  0  0  0  0  0  0  0  0  0
    2.4176   -1.7374    1.1108 C   0  0  1  0  0  0  0  0  0  0  0  0
    2.9574   -1.0482    0.0566 O   0  0  0  0  0  0  0  0  0  0  0  0
    4.3133   -0.8860    0.3489 C   0  0  1  0  0  0  0  0  0  0  0  0
    4.9698    0.0425   -0.5058 N   0  0  0  0  0  0  0  0  0  0  0  0
    5.3237   -0.3245   -1.7608 C   0  0  0  0  0  0  0  0  0  0  0  0
    5.9162    0.6941   -2.3670 N   0  0  0  0  0  0  0  0  0  0  0  0
    5.9737    1.7412   -1.5577 C   0  0  0  0  0  0  0  0  0  0  0  0
    6.4367    3.0473   -1.5642 C   0  0  0  0  0  0  0  0  0  0  0  0
    7.0569    3.4863   -2.7728 N   0  0  0  0  0  0  0  0  0  0  0  0
    6.3031    3.8453   -0.4867 N   0  0  0  0  0  0  0  0  0  0  0  0
    5.7020    3.3762    0.6447 C   0  0  0  0  0  0  0  0  0  0  0  0
    5.2443    2.1091    0.6732 N   0  0  0  0  0  0  0  0  0  0  0  0
    5.3727    1.3169   -0.3855 C   0  0  0  0  0  0  0  0  0  0  0  0
    4.2509   -0.4295    1.7916 C   0  0  2  0  0  0  0  0  0  0  0  0
    5.4774   -0.5731    2.4317 O   0  0  0  0  0  0  0  0  0  0  0  0
    3.2217   -1.4088    2.3403 C   0  0  2  0  0  0  0  0  0  0  0  0
    3.9178   -2.5367    2.7694 O   0  0  0  0  0  0  0  0  0  0  0  0
   -4.3383   -2.2181   -1.4757 C   0  0  2  0  0  0  0  0  0  0  0  0
   -3.5854   -2.4793   -2.6124 O   0  0  0  0  0  0  0  0  0  0  0  0
   -5.4271   -1.0241   -2.9579 H   0  0  0  0  0  0  0  0  0  0  0  0
   -6.9709   -2.8271   -0.9973 H   0  0  0  0  0  0  0  0  0  0  0  0
   -7.6470   -1.8695   -2.3460 H   0  0  0  0  0  0  0  0  0  0  0  0
   -6.1879   -4.2589   -2.4358 H   0  0  0  0  0  0  0  0  0  0  0  0
   -4.2427    0.2614   -2.1525 H   0  0  0  0  0  0  0  0  0  0  0  0
   -5.8610    0.8660    1.0544 H   0  0  0  0  0  0  0  0  0  0  0  0
   -5.3423    2.9166    2.4114 H   0  0  0  0  0  0  0  0  0  0  0  0
   -3.8561    5.4806    1.7829 H   0  0  0  0  0  0  0  0  0  0  0  0
   -3.9439   -1.3331    0.4181 H   0  0  0  0  0  0  0  0  0  0  0  0
   -1.4615   -2.6646    2.2365 H   0  0  0  0  0  0  0  0  0  0  0  0
    0.5753   -1.9897    2.2040 H   0  0  0  0  0  0  0  0  0  0  0  0
    0.8888   -0.3238    1.7206 H   0  0  0  0  0  0  0  0  0  0  0  0
    2.4434   -2.8299    0.9293 H   0  0  0  0  0  0  0  0  0  0  0  0
    4.7991   -1.8811    0.3478 H   0  0  0  0  0  0  0  0  0  0  0  0
    5.1947   -1.2512   -2.2742 H   0  0  0  0  0  0  0  0  0  0  0  0
    6.8239    4.0221   -3.6437 H   0  0  0  0  0  0  0  0  0  0  0  0
    8.0708    3.1783   -2.8094 H   0  0  0  0  0  0  0  0  0  0  0  0
    5.6715    4.1313    1.4152 H   0  0  0  0  0  0  0  0  0  0  0  0
    3.8511    0.5986    1.8854 H   0  0  0  0  0  0  0  0  0  0  0  0
    5.7319    0.3213    2.7734 H   0  0  0  0  0  0  0  0  0  0  0  0
    2.6062   -0.9622    3.1459 H   0  0  0  0  0  0  0  0  0  0  0  0
    3.3783   -3.3581    2.7347 H   0  0  0  0  0  0  0  0  0  0  0  0
   -4.5960   -3.1148   -0.8842 H   0  0  0  0  0  0  0  0  0  0  0  0
   -2.8362   -1.8454   -2.7237 H   0  0  0  0  0  0  0  0  0  0  0  0
  1  2  1  0
  2  3  1  0
  1  4  1  0
  4  5  1  0
  5  6  1  0
  6  7  1  0
  7  8  2  0
  8  9  1  0
  9 10  1  0
  9 11  2  0
 11 12  1  0
 12 13  2  0
  5 14  1  0
 14 15  1  0
 15 16  1  0
 16 17  1  0
 16 18  2  0
 16 19  1  0
 19 20  1  0
 20 21  1  0
 21 22  1  0
 22 23  1  0
 23 24  1  0
 24 25  1  0
 25 26  2  0
 26 27  1  0
 27 28  2  0
 28 29  1  0
 28 30  1  0
 30 31  2  0
 31 32  1  0
 32 33  2  0
 23 34  1  0
 34 35  1  0
 34 36  1  0
 36 37  1  0
 14 38  1  0
 38 39  1  0
 38  1  1  0
 12  6  1  0
 36 21  1  0
 33 24  1  0
 33 27  1  0
  1 40  1  6
  2 41  1  0
  2 42  1  0
  3 43  1  0
  5 44  1  6
  7 45  1  0
  8 46  1  0
 10 47  1  0
 14 48  1  1
 17 49  1  0
 20 50  1  0
 20 51  1  0
 21 52  1  6
 23 53  1  1
 25 54  1  0
 29 55  1  0
 29 56  1  0
 31 57  1  0
 34 58  1  6
 35 59  1  0
 36 60  1  1
 37 61  1  0
 38 62  1  1
 39 63  1  0
M  END
$$$$
