@<TRIPOS>MOLECULE
*****
 52 54 0 0 0
SMALL
GASTEIGER

@<TRIPOS>ATOM
      1 C          -1.0847   -1.6316    0.7429 C.3     1  UNL1        0.1293
      2 C          -1.1086   -0.1939    1.1031 C.3     1  UNL1        0.0017
      3 C          -1.6628    0.6341    0.0244 C.ar    1  UNL1       -0.0203
      4 C          -0.8816    1.2059   -0.9862 C.ar    1  UNL1        0.0060
      5 N          -1.6862    1.8727   -1.8618 N.ar    1  UNL1       -0.3604
      6 C          -2.9721    1.7717   -1.4823 C.ar    1  UNL1        0.0467
      7 C          -2.9390    1.0162   -0.3333 C.ar    1  UNL1        0.0031
      8 C          -4.1428    0.7643    0.3034 C.ar    1  UNL1       -0.0494
      9 C          -5.3554    1.2212   -0.1454 C.ar    1  UNL1       -0.0498
     10 C          -6.6269    0.9313    0.5709 C.3     1  UNL1       -0.0397
     11 C          -5.3919    1.9881   -1.3142 C.ar    1  UNL1       -0.0569
     12 C          -4.1903    2.2479   -1.9624 C.ar    1  UNL1       -0.0375
     13 N          -0.5519   -2.4522    1.8323 N.3     1  UNL1       -0.1758
     14 S           1.0178   -2.9713    1.2891 S.O2    1  UNL1        0.0591
     15 O           0.8100   -3.7574    0.0379 O.2     1  UNL1       -0.1530
     16 O           1.6102   -3.8682    2.3107 O.2     1  UNL1       -0.1530
     17 C           2.0153   -1.5562    1.0488 C.ar    1  UNL1        0.1055
     18 C           2.6207   -1.0959    2.2261 C.ar    1  UNL1       -0.0319
     19 C           3.4497    0.0327    2.1914 C.ar    1  UNL1       -0.0180
     20 C           3.6855    0.7156    0.9869 C.ar    1  UNL1        0.1220
     21 O           4.5269    1.7993    1.1634 O.3     1  UNL1       -0.4795
     22 C           4.8790    2.6118    0.0707 C.3     1  UNL1        0.1499
     23 C           5.5538    1.7876   -0.9232 C.1     1  UNL1       -0.0617
     24 C           6.1105    1.1036   -1.7476 C.1     1  UNL1       -0.1022
     25 C           6.8019    0.2891   -2.7511 C.3     1  UNL1       -0.0025
     26 C           3.0748    0.2282   -0.1267 C.ar    1  UNL1       -0.0180
     27 C           2.2617   -0.8771   -0.1004 C.ar    1  UNL1       -0.0319
     28 C          -2.3148   -2.2308    0.2777 C.2     1  UNL1        0.3239
     29 O          -3.1072   -3.2761    0.7019 O.3     1  UNL1       -0.4795
     30 O          -3.0537   -1.9728   -0.6822 O.2     1  UNL1       -0.2492
     31 H          -0.2702   -1.7195   -0.0526 H       1  UNL1        0.0596
     32 H          -0.0796    0.1639    1.3210 H       1  UNL1        0.0335
     33 H          -1.7597   -0.0558    2.0077 H       1  UNL1        0.0335
     34 H           0.1935    1.1695   -1.1197 H       1  UNL1        0.0810
     35 H          -1.4047    2.3998   -2.7178 H       1  UNL1        0.1653
     36 H          -4.1365    0.1741    1.2095 H       1  UNL1        0.0627
     37 H          -7.1812    0.1803   -0.0029 H       1  UNL1        0.0278
     38 H          -6.3786    0.5925    1.6118 H       1  UNL1        0.0278
     39 H          -7.1952    1.8875    0.6198 H       1  UNL1        0.0278
     40 H          -6.3137    2.3888   -1.7379 H       1  UNL1        0.0621
     41 H          -4.1870    2.8379   -2.8719 H       1  UNL1        0.0638
     42 H          -0.4751   -1.9082    2.7199 H       1  UNL1        0.1489
     43 H           2.4773   -1.5826    3.1937 H       1  UNL1        0.0638
     44 H           3.8929    0.3388    3.1495 H       1  UNL1        0.0655
     45 H           3.9234    3.0064   -0.3426 H       1  UNL1        0.0837
     46 H           5.5445    3.4320    0.4192 H       1  UNL1        0.0837
     47 H           6.1615    0.3180   -3.6579 H       1  UNL1        0.0362
     48 H           7.8087    0.6919   -2.9652 H       1  UNL1        0.0362
     49 H           6.9180   -0.7629   -2.4082 H       1  UNL1        0.0362
     50 H           3.2872    0.7866   -1.0246 H       1  UNL1        0.0655
     51 H           1.8051   -1.2374   -0.9918 H       1  UNL1        0.0638
     52 H          -3.9782   -3.2155    1.1764 H       1  UNL1        0.2951
@<TRIPOS>BOND
     1     1     2    1
     2     2     3    1
     3     3     4   ar
     4     4     5   ar
     5     5     6   ar
     6     6     7   ar
     7     7     8   ar
     8     8     9   ar
     9     9    10    1
    10     9    11   ar
    11    11    12   ar
    12     1    13    1
    13    13    14    1
    14    14    15    2
    15    14    16    2
    16    14    17    1
    17    17    18   ar
    18    18    19   ar
    19    19    20   ar
    20    20    21    1
    21    21    22    1
    22    22    23    1
    23    23    24    3
    24    24    25    1
    25    20    26   ar
    26    26    27   ar
    27     1    28    1
    28    28    29    1
    29    28    30    2
    30     7     3   ar
    31    27    17   ar
    32    12     6   ar
    33     1    31    1
    34     2    32    1
    35     2    33    1
    36     4    34    1
    37     5    35    1
    38     8    36    1
    39    10    37    1
    40    10    38    1
    41    10    39    1
    42    11    40    1
    43    12    41    1
    44    13    42    1
    45    18    43    1
    46    19    44    1
    47    22    45    1
    48    22    46    1
    49    25    47    1
    50    25    48    1
    51    25    49    1
    52    26    50    1
    53    27    51    1
    54    29    52    1
