@<TRIPOS>MOLECULE
*****
 58 61 0 0 0
SMALL
GASTEIGER

@<TRIPOS>ATOM
      1 C          -5.0098   -1.0348    1.8383 C.3     1  UNL1       -0.0418
      2 C          -5.8666   -0.1603    0.9784 C.3     1  UNL1        0.0523
      3 C          -7.0949   -0.9770    0.5782 C.3     1  UNL1       -0.0418
      4 C          -6.4127    1.0130    1.7862 C.3     1  UNL1        0.0649
      5 O          -5.4666    1.9056    2.1980 O.3     1  UNL1       -0.3929
      6 N          -5.2017    0.2590   -0.2325 N.am    1  UNL1       -0.3040
      7 C          -3.9860    0.9837   -0.2942 C.2     1  UNL1        0.2481
      8 O          -3.4000    1.3076    0.7598 O.2     1  UNL1       -0.2701
      9 C          -3.3956    1.3655   -1.5641 C.ar    1  UNL1        0.0815
     10 C          -4.0553    1.9529   -2.6343 C.ar    1  UNL1        0.0178
     11 N          -3.1965    2.1578   -3.6422 N.ar    1  UNL1       -0.3438
     12 C          -1.9763    1.7157   -3.2588 C.ar    1  UNL1        0.1574
     13 N          -0.7709    1.6869   -3.8946 N.ar    1  UNL1       -0.2338
     14 C           0.2786    1.1576   -3.1972 C.ar    1  UNL1        0.0575
     15 C           0.1617    0.6691   -1.9180 C.ar    1  UNL1        0.1104
     16 C           1.3542    0.1195   -1.2380 C.ar    1  UNL1        0.1201
     17 N           2.5994    0.0241   -1.7557 N.ar    1  UNL1       -0.1685
     18 N           3.4161   -0.5209   -0.8425 N.ar    1  UNL1       -0.2629
     19 C           4.8294   -0.8134   -0.9700 C.3     1  UNL1        0.0446
     20 C           5.7231    0.3049   -0.5695 C.3     1  UNL1       -0.0050
     21 C           7.1877   -0.0105   -0.6926 C.3     1  UNL1        0.0799
     22 O           7.9414    1.0946   -0.3003 O.3     1  UNL1       -0.3895
     23 C           7.6126   -1.1506    0.2062 C.3     1  UNL1        0.0702
     24 O           8.9761   -1.3781    0.0382 O.3     1  UNL1       -0.3925
     25 C           2.7338   -0.7945    0.2893 C.ar    1  UNL1        0.0723
     26 C           3.0285   -1.3390    1.5252 C.ar    1  UNL1       -0.0008
     27 C           2.0783   -1.4854    2.4899 C.ar    1  UNL1        0.1254
     28 F           2.3986   -2.0287    3.7076 F       1  UNL1       -0.2054
     29 C           0.7872   -1.0970    2.2731 C.ar    1  UNL1       -0.0257
     30 C           0.4861   -0.5455    1.0241 C.ar    1  UNL1       -0.0477
     31 C           1.4480   -0.3934    0.0371 C.ar    1  UNL1        0.0293
     32 N          -1.0336    0.7047   -1.3059 N.ar    1  UNL1       -0.2397
     33 C          -2.0912    1.2265   -1.9799 C.ar    1  UNL1        0.1202
     34 H          -5.0363   -0.7614    2.9136 H       1  UNL1        0.0251
     35 H          -5.3623   -2.0782    1.7668 H       1  UNL1        0.0251
     36 H          -3.9769   -1.0192    1.4333 H       1  UNL1        0.0251
     37 H          -7.9949   -0.3435    0.6665 H       1  UNL1        0.0251
     38 H          -7.0118   -1.1951   -0.5247 H       1  UNL1        0.0251
     39 H          -7.1544   -1.9138    1.1623 H       1  UNL1        0.0251
     40 H          -7.2547    1.4746    1.2302 H       1  UNL1        0.0578
     41 H          -6.8650    0.5548    2.7012 H       1  UNL1        0.0578
     42 H          -5.0723    1.5946    3.0432 H       1  UNL1        0.2095
     43 H          -5.6283    0.0251   -1.1813 H       1  UNL1        0.1496
     44 H          -5.1154    2.2005   -2.6273 H       1  UNL1        0.0816
     45 H          -3.4494    2.5814   -4.5419 H       1  UNL1        0.1668
     46 H           1.2602    1.1082   -3.6532 H       1  UNL1        0.0853
     47 H           5.0251   -1.7658   -0.4532 H       1  UNL1        0.0510
     48 H           4.9681   -1.0631   -2.0659 H       1  UNL1        0.0510
     49 H           5.5407    1.1405   -1.3126 H       1  UNL1        0.0309
     50 H           5.4853    0.7403    0.4181 H       1  UNL1        0.0309
     51 H           7.4893   -0.2701   -1.7228 H       1  UNL1        0.0617
     52 H           8.8506    1.0196   -0.6907 H       1  UNL1        0.2099
     53 H           7.0067   -2.0249   -0.0261 H       1  UNL1        0.0583
     54 H           7.4924   -0.7998    1.2710 H       1  UNL1        0.0583
     55 H           9.1800   -2.0246   -0.6544 H       1  UNL1        0.2095
     56 H           4.0648   -1.6550    1.7109 H       1  UNL1        0.0667
     57 H           0.0071   -1.1980    3.0123 H       1  UNL1        0.0646
     58 H          -0.5314   -0.2467    0.8701 H       1  UNL1        0.0626
@<TRIPOS>BOND
     1     1     2    1
     2     2     3    1
     3     2     4    1
     4     4     5    1
     5     2     6    1
     6     6     7   am
     7     7     8    2
     8     7     9    1
     9     9    10   ar
    10    10    11   ar
    11    11    12   ar
    12    12    13   ar
    13    13    14   ar
    14    14    15   ar
    15    15    16    1
    16    16    17   ar
    17    17    18   ar
    18    18    19    1
    19    19    20    1
    20    20    21    1
    21    21    22    1
    22    21    23    1
    23    23    24    1
    24    18    25   ar
    25    25    26   ar
    26    26    27   ar
    27    27    28    1
    28    27    29   ar
    29    29    30   ar
    30    30    31   ar
    31    15    32   ar
    32    32    33   ar
    33    33     9   ar
    34    33    12   ar
    35    31    16   ar
    36    31    25   ar
    37     1    34    1
    38     1    35    1
    39     1    36    1
    40     3    37    1
    41     3    38    1
    42     3    39    1
    43     4    40    1
    44     4    41    1
    45     5    42    1
    46     6    43    1
    47    10    44    1
    48    11    45    1
    49    14    46    1
    50    19    47    1
    51    19    48    1
    52    20    49    1
    53    20    50    1
    54    21    51    1
    55    22    52    1
    56    23    53    1
    57    23    54    1
    58    24    55    1
    59    26    56    1
    60    29    57    1
    61    30    58    1
