
     RDKit          3D

 58 61  0  0  0  0  0  0  0  0999 V2000
   -5.0098   -1.0348    1.8383 C   0  0  0  0  0  0  0  0  0  0  0  0
   -5.8666   -0.1603    0.9784 C   0  0  0  0  0  0  0  0  0  0  0  0
   -7.0949   -0.9770    0.5782 C   0  0  0  0  0  0  0  0  0  0  0  0
   -6.4127    1.0130    1.7862 C   0  0  0  0  0  0  0  0  0  0  0  0
   -5.4666    1.9056    2.1980 O   0  0  0  0  0  0  0  0  0  0  0  0
   -5.2017    0.2590   -0.2325 N   0  0  0  0  0  0  0  0  0  0  0  0
   -3.9860    0.9837   -0.2942 C   0  0  0  0  0  0  0  0  0  0  0  0
   -3.4000    1.3076    0.7598 O   0  0  0  0  0  0  0  0  0  0  0  0
   -3.3956    1.3655   -1.5641 C   0  0  0  0  0  0  0  0  0  0  0  0
   -4.0553    1.9529   -2.6343 C   0  0  0  0  0  0  0  0  0  0  0  0
   -3.1965    2.1578   -3.6422 N   0  0  0  0  0  0  0  0  0  0  0  0
   -1.9763    1.7157   -3.2588 C   0  0  0  0  0  0  0  0  0  0  0  0
   -0.7709    1.6869   -3.8946 N   0  0  0  0  0  0  0  0  0  0  0  0
    0.2786    1.1576   -3.1972 C   0  0  0  0  0  0  0  0  0  0  0  0
    0.1617    0.6691   -1.9180 C   0  0  0  0  0  0  0  0  0  0  0  0
    1.3542    0.1195   -1.2380 C   0  0  0  0  0  0  0  0  0  0  0  0
    2.5994    0.0241   -1.7557 N   0  0  0  0  0  0  0  0  0  0  0  0
    3.4161   -0.5209   -0.8425 N   0  0  0  0  0  0  0  0  0  0  0  0
    4.8294   -0.8134   -0.9700 C   0  0  0  0  0  0  0  0  0  0  0  0
    5.7231    0.3049   -0.5695 C   0  0  0  0  0  0  0  0  0  0  0  0
    7.1877   -0.0105   -0.6926 C   0  0  0  0  0  0  0  0  0  0  0  0
    7.9414    1.0946   -0.3003 O   0  0  0  0  0  0  0  0  0  0  0  0
    7.6126   -1.1506    0.2062 C   0  0  0  0  0  0  0  0  0  0  0  0
    8.9761   -1.3781    0.0382 O   0  0  0  0  0  0  0  0  0  0  0  0
    2.7338   -0.7945    0.2893 C   0  0  0  0  0  0  0  0  0  0  0  0
    3.0285   -1.3390    1.5252 C   0  0  0  0  0  0  0  0  0  0  0  0
    2.0783   -1.4854    2.4899 C   0  0  0  0  0  0  0  0  0  0  0  0
    2.3986   -2.0287    3.7076 F   0  0  0  0  0  0  0  0  0  0  0  0
    0.7872   -1.0970    2.2731 C   0  0  0  0  0  0  0  0  0  0  0  0
    0.4861   -0.5455    1.0241 C   0  0  0  0  0  0  0  0  0  0  0  0
    1.4480   -0.3934    0.0371 C   0  0  0  0  0  0  0  0  0  0  0  0
   -1.0336    0.7047   -1.3059 N   0  0  0  0  0  0  0  0  0  0  0  0
   -2.0912    1.2265   -1.9799 C   0  0  0  0  0  0  0  0  0  0  0  0
   -5.0363   -0.7614    2.9136 H   0  0  0  0  0  0  0  0  0  0  0  0
   -5.3623   -2.0782    1.7668 H   0  0  0  0  0  0  0  0  0  0  0  0
   -3.9769   -1.0192    1.4333 H   0  0  0  0  0  0  0  0  0  0  0  0
   -7.9949   -0.3435    0.6665 H   0  0  0  0  0  0  0  0  0  0  0  0
   -7.0118   -1.1951   -0.5247 H   0  0  0  0  0  0  0  0  0  0  0  0
   -7.1544   -1.9138    1.1623 H   0  0  0  0  0  0  0  0  0  0  0  0
   -7.2547    1.4746    1.2302 H   0  0  0  0  0  0  0  0  0  0  0  0
   -6.8650    0.5548    2.7012 H   0  0  0  0  0  0  0  0  0  0  0  0
   -5.0723    1.5946    3.0432 H   0  0  0  0  0  0  0  0  0  0  0  0
   -5.6283    0.0251   -1.1813 H   0  0  0  0  0  0  0  0  0  0  0  0
   -5.1154    2.2005   -2.6273 H   0  0  0  0  0  0  0  0  0  0  0  0
   -3.4494    2.5814   -4.5419 H   0  0  0  0  0  0  0  0  0  0  0  0
    1.2602    1.1082   -3.6532 H   0  0  0  0  0  0  0  0  0  0  0  0
    5.0251   -1.7658   -0.4532 H   0  0  0  0  0  0  0  0  0  0  0  0
    4.9681   -1.0631   -2.0659 H   0  0  0  0  0  0  0  0  0  0  0  0
    5.5407    1.1405   -1.3126 H   0  0  0  0  0  0  0  0  0  0  0  0
    5.4853    0.7403    0.4181 H   0  0  0  0  0  0  0  0  0  0  0  0
    7.4893   -0.2701   -1.7228 H   0  0  0  0  0  0  0  0  0  0  0  0
    8.8506    1.0196   -0.6907 H   0  0  0  0  0  0  0  0  0  0  0  0
    7.0067   -2.0249   -0.0261 H   0  0  0  0  0  0  0  0  0  0  0  0
    7.4924   -0.7998    1.2710 H   0  0  0  0  0  0  0  0  0  0  0  0
    9.1800   -2.0246   -0.6544 H   0  0  0  0  0  0  0  0  0  0  0  0
    4.0648   -1.6550    1.7109 H   0  0  0  0  0  0  0  0  0  0  0  0
    0.0071   -1.1980    3.0123 H   0  0  0  0  0  0  0  0  0  0  0  0
   -0.5314   -0.2467    0.8701 H   0  0  0  0  0  0  0  0  0  0  0  0
  1  2  1  0
  2  3  1  0
  2  4  1  0
  4  5  1  0
  2  6  1  0
  6  7  1  0
  7  8  2  0
  7  9  1  0
  9 10  2  0
 10 11  1  0
 11 12  1  0
 12 13  2  0
 13 14  1  0
 14 15  2  0
 15 16  1  0
 16 17  2  0
 17 18  1  0
 18 19  1  0
 19 20  1  0
 20 21  1  0
 21 22  1  0
 21 23  1  0
 23 24  1  0
 18 25  1  0
 25 26  2  0
 26 27  1  0
 27 28  1  0
 27 29  2  0
 29 30  1  0
 30 31  2  0
 15 32  1  0
 32 33  2  0
 33  9  1  0
 33 12  1  0
 31 16  1  0
 31 25  1  0
  1 34  1  0
  1 35  1  0
  1 36  1  0
  3 37  1  0
  3 38  1  0
  3 39  1  0
  4 40  1  0
  4 41  1  0
  5 42  1  0
  6 43  1  0
 10 44  1  0
 11 45  1  0
 14 46  1  0
 19 47  1  0
 19 48  1  0
 20 49  1  0
 20 50  1  0
 21 51  1  0
 22 52  1  0
 23 53  1  0
 23 54  1  0
 24 55  1  0
 26 56  1  0
 29 57  1  0
 30 58  1  0
M  END
$$$$
