@<TRIPOS>MOLECULE
*****
 36 38 0 0 0
SMALL
GASTEIGER

@<TRIPOS>ATOM
      1 C          -1.4076    0.2485   -0.9154 C.3     1  UNL1        0.1134
      2 C          -2.7475    0.0214   -0.2717 C.3     1  UNL1        0.0878
      3 O          -2.8987    0.9434    0.7380 O.3     1  UNL1       -0.2841
      4 P          -4.3685    0.8084    1.5567 P.3     1  UNL1        0.4724
      5 O          -4.5046    2.1663    2.5703 O.3     1  UNL1       -0.3026
      6 O          -5.6650    0.8594    0.4695 O.3     1  UNL1       -0.3026
      7 O          -4.4747   -0.4524    2.3539 O.2     1  UNL1       -0.2275
      8 O          -0.3751    0.1000   -0.0111 O.3     1  UNL1       -0.3456
      9 C           0.7308   -0.3006   -0.7909 C.3     1  UNL1        0.1667
     10 N           1.8405   -0.7310   -0.0252 N.ar    1  UNL1       -0.2853
     11 C           2.1887   -2.0157    0.2702 C.ar    1  UNL1        0.1006
     12 N           3.3230   -1.9631    1.0294 N.ar    1  UNL1       -0.2266
     13 C           3.6593   -0.6828    1.1939 C.ar    1  UNL1        0.1916
     14 C           4.7145   -0.0820    1.8737 C.ar    1  UNL1        0.3061
     15 CL          5.8725   -1.1119    2.7006 Cl      1  UNL1       -0.0089
     16 N           4.8219    1.2562    1.8817 N.ar    1  UNL1       -0.1828
     17 C           3.9013    2.0141    1.2272 C.ar    1  UNL1        0.2685
     18 N           2.8859    1.4401    0.5728 N.ar    1  UNL1       -0.1734
     19 C           2.7288    0.1047    0.5313 C.ar    1  UNL1        0.1757
     20 C           0.0832   -1.4210   -1.5806 C.3     1  UNL1        0.1285
     21 O           0.9383   -1.7793   -2.6062 O.3     1  UNL1       -0.3847
     22 C          -1.1407   -0.6782   -2.0699 C.3     1  UNL1        0.1135
     23 O          -0.7654    0.0926   -3.1639 O.3     1  UNL1       -0.3864
     24 H          -1.3643    1.3281   -1.2385 H       1  UNL1        0.0647
     25 H          -2.7565   -0.9877    0.2097 H       1  UNL1        0.0592
     26 H          -3.5437    0.0221   -1.0325 H       1  UNL1        0.0592
     27 H          -5.4548    2.4576    2.6009 H       1  UNL1        0.2220
     28 H          -5.5820    0.2072   -0.2648 H       1  UNL1        0.2220
     29 H           0.9260    0.5389   -1.4677 H       1  UNL1        0.0866
     30 H           1.6124   -2.8621   -0.0762 H       1  UNL1        0.1030
     31 H           5.6264    1.6793    2.4017 H       1  UNL1        0.4554
     32 H           4.0645    3.0839    1.2855 H       1  UNL1        0.1619
     33 H          -0.1865   -2.2700   -0.9111 H       1  UNL1        0.0665
     34 H           0.6189   -1.5763   -3.5055 H       1  UNL1        0.2101
     35 H          -1.9864   -1.3537   -2.2879 H       1  UNL1        0.0647
     36 H          -1.3148    0.8957   -3.2479 H       1  UNL1        0.2100
@<TRIPOS>UNITY_ATOM_ATTR
16 1
charge 1
@<TRIPOS>BOND
     1     1     2    1
     2     2     3    1
     3     3     4    1
     4     4     5    1
     5     4     6    1
     6     4     7    2
     7     1     8    1
     8     8     9    1
     9     9    10    1
    10    10    11   ar
    11    11    12   ar
    12    12    13   ar
    13    13    14   ar
    14    14    15    1
    15    14    16   ar
    16    16    17   ar
    17    17    18   ar
    18    18    19   ar
    19     9    20    1
    20    20    21    1
    21    20    22    1
    22    22    23    1
    23    22     1    1
    24    19    10   ar
    25    19    13   ar
    26     1    24    1
    27     2    25    1
    28     2    26    1
    29     5    27    1
    30     6    28    1
    31     9    29    1
    32    11    30    1
    33    16    31    1
    34    17    32    1
    35    20    33    1
    36    21    34    1
    37    22    35    1
    38    23    36    1
