
     RDKit          3D

 36 38  0  0  0  0  0  0  0  0999 V2000
   -1.4076    0.2485   -0.9154 C   0  0  1  0  0  0  0  0  0  0  0  0
   -2.7475    0.0214   -0.2717 C   0  0  0  0  0  0  0  0  0  0  0  0
   -2.8987    0.9434    0.7380 O   0  0  0  0  0  0  0  0  0  0  0  0
   -4.3685    0.8084    1.5567 P   0  0  0  0  0  0  0  0  0  0  0  0
   -4.5046    2.1663    2.5703 O   0  0  0  0  0  0  0  0  0  0  0  0
   -5.6650    0.8594    0.4695 O   0  0  0  0  0  0  0  0  0  0  0  0
   -4.4747   -0.4524    2.3539 O   0  0  0  0  0  0  0  0  0  0  0  0
   -0.3751    0.1000   -0.0111 O   0  0  0  0  0  0  0  0  0  0  0  0
    0.7308   -0.3006   -0.7909 C   0  0  1  0  0  0  0  0  0  0  0  0
    1.8405   -0.7310   -0.0252 N   0  0  0  0  0  0  0  0  0  0  0  0
    2.1887   -2.0157    0.2702 C   0  0  0  0  0  0  0  0  0  0  0  0
    3.3230   -1.9631    1.0294 N   0  0  0  0  0  0  0  0  0  0  0  0
    3.6593   -0.6828    1.1939 C   0  0  0  0  0  0  0  0  0  0  0  0
    4.7145   -0.0820    1.8737 C   0  0  0  0  0  0  0  0  0  0  0  0
    5.8725   -1.1119    2.7006 Cl  0  0  0  0  0  0  0  0  0  0  0  0
    4.8219    1.2562    1.8817 N   0  0  0  0  0  4  0  0  0  0  0  0
    3.9013    2.0141    1.2272 C   0  0  0  0  0  0  0  0  0  0  0  0
    2.8859    1.4401    0.5728 N   0  0  0  0  0  0  0  0  0  0  0  0
    2.7288    0.1047    0.5313 C   0  0  0  0  0  0  0  0  0  0  0  0
    0.0832   -1.4210   -1.5806 C   0  0  2  0  0  0  0  0  0  0  0  0
    0.9383   -1.7793   -2.6062 O   0  0  0  0  0  0  0  0  0  0  0  0
   -1.1407   -0.6782   -2.0699 C   0  0  2  0  0  0  0  0  0  0  0  0
   -0.7654    0.0926   -3.1639 O   0  0  0  0  0  0  0  0  0  0  0  0
   -1.3643    1.3281   -1.2385 H   0  0  0  0  0  0  0  0  0  0  0  0
   -2.7565   -0.9877    0.2097 H   0  0  0  0  0  0  0  0  0  0  0  0
   -3.5437    0.0221   -1.0325 H   0  0  0  0  0  0  0  0  0  0  0  0
   -5.4548    2.4576    2.6009 H   0  0  0  0  0  0  0  0  0  0  0  0
   -5.5820    0.2072   -0.2648 H   0  0  0  0  0  0  0  0  0  0  0  0
    0.9260    0.5389   -1.4677 H   0  0  0  0  0  0  0  0  0  0  0  0
    1.6124   -2.8621   -0.0762 H   0  0  0  0  0  0  0  0  0  0  0  0
    5.6264    1.6793    2.4017 H   0  0  0  0  0  0  0  0  0  0  0  0
    4.0645    3.0839    1.2855 H   0  0  0  0  0  0  0  0  0  0  0  0
   -0.1865   -2.2700   -0.9111 H   0  0  0  0  0  0  0  0  0  0  0  0
    0.6189   -1.5763   -3.5055 H   0  0  0  0  0  0  0  0  0  0  0  0
   -1.9864   -1.3537   -2.2879 H   0  0  0  0  0  0  0  0  0  0  0  0
   -1.3148    0.8957   -3.2479 H   0  0  0  0  0  0  0  0  0  0  0  0
  1  2  1  0
  2  3  1  0
  3  4  1  0
  4  5  1  0
  4  6  1  0
  4  7  2  0
  1  8  1  0
  8  9  1  0
  9 10  1  0
 10 11  1  0
 11 12  2  0
 12 13  1  0
 13 14  2  0
 14 15  1  0
 14 16  1  0
 16 17  2  0
 17 18  1  0
 18 19  2  0
  9 20  1  0
 20 21  1  0
 20 22  1  0
 22 23  1  0
 22  1  1  0
 19 10  1  0
 19 13  1  0
  1 24  1  6
  2 25  1  0
  2 26  1  0
  5 27  1  0
  6 28  1  0
  9 29  1  6
 11 30  1  0
 16 31  1  0
 17 32  1  0
 20 33  1  1
 21 34  1  0
 22 35  1  6
 23 36  1  0
M  CHG  1  16   1
M  END
$$$$
