@<TRIPOS>MOLECULE
*****
 58 61 0 0 0
SMALL
GASTEIGER

@<TRIPOS>ATOM
      1 C           6.2295   -1.0002    0.3908 C.3     1  UNL1       -0.0412
      2 C           4.9123   -1.0032    1.1030 C.3     1  UNL1        0.0927
      3 C           5.1233   -1.1744    2.6232 C.3     1  UNL1       -0.0412
      4 S           3.9525    0.4498    0.9077 S.O2    1  UNL1        0.0599
      5 O           2.8527    0.4101    1.9335 O.2     1  UNL1       -0.1525
      6 O           4.8451    1.6210    1.2940 O.2     1  UNL1       -0.1525
      7 N           3.3715    0.7279   -0.6711 N.ar    1  UNL1       -0.1832
      8 C           4.0729    0.9301   -1.7984 C.ar    1  UNL1        0.2142
      9 N           5.4981    0.9800   -1.9406 N.pl3   1  UNL1       -0.3275
     10 N           3.2690    1.1029   -2.8522 N.ar    1  UNL1       -0.2133
     11 C           2.0053    1.0146   -2.4191 C.ar    1  UNL1        0.0927
     12 C           0.8002    1.1120   -3.0617 C.ar    1  UNL1       -0.0335
     13 C          -0.3716    0.9771   -2.3543 C.ar    1  UNL1       -0.0504
     14 C          -0.3290    0.7438   -0.9981 C.ar    1  UNL1        0.0046
     15 C          -1.5795    0.6005   -0.2496 C.ar    1  UNL1        0.0969
     16 N          -2.0587    1.3834    0.7524 N.ar    1  UNL1       -0.2313
     17 C          -3.2296    0.9563    1.2025 C.ar    1  UNL1        0.1136
     18 C          -4.0978    1.5069    2.2760 C.3     1  UNL1        0.0202
     19 C          -5.0753    2.5220    1.6831 C.3     1  UNL1       -0.0532
     20 C          -3.2159    2.2961    3.2347 C.3     1  UNL1       -0.0532
     21 C          -4.8222    0.3872    2.9870 C.3     1  UNL1       -0.0532
     22 N          -3.5267   -0.1537    0.4613 N.ar    1  UNL1       -0.3409
     23 C          -2.5357   -0.3721   -0.4149 C.ar    1  UNL1        0.0740
     24 C          -2.4726   -1.4515   -1.3811 C.ar    1  UNL1        0.0006
     25 C          -1.4830   -2.4190   -1.3606 C.ar    1  UNL1       -0.0499
     26 C          -1.4700   -3.4267   -2.3059 C.ar    1  UNL1       -0.0258
     27 C          -2.4306   -3.5035   -3.2913 C.ar    1  UNL1        0.1234
     28 F          -2.4627   -4.4690   -4.2393 F       1  UNL1       -0.2055
     29 C          -3.4232   -2.5497   -3.3278 C.ar    1  UNL1       -0.0258
     30 C          -3.4184   -1.5534   -2.3764 C.ar    1  UNL1       -0.0499
     31 C           0.8885    0.6473   -0.3603 C.ar    1  UNL1       -0.0250
     32 C           2.0858    0.7786   -1.0452 C.ar    1  UNL1        0.0942
     33 H           6.1522   -1.3802   -0.6523 H       1  UNL1        0.0249
     34 H           6.6964   -0.0026    0.3518 H       1  UNL1        0.0249
     35 H           6.9058   -1.6805    0.9924 H       1  UNL1        0.0249
     36 H           4.3612   -1.9339    0.8158 H       1  UNL1        0.0551
     37 H           6.0550   -1.7310    2.8209 H       1  UNL1        0.0249
     38 H           4.2282   -1.6243    3.0854 H       1  UNL1        0.0249
     39 H           5.2424   -0.1569    3.0592 H       1  UNL1        0.0249
     40 H           6.0191    0.4289   -2.6440 H       1  UNL1        0.1451
     41 H           6.0313    1.6021   -1.3033 H       1  UNL1        0.1451
     42 H           0.8038    1.2976   -4.1389 H       1  UNL1        0.0640
     43 H          -1.3418    1.0572   -2.8814 H       1  UNL1        0.0625
     44 H          -4.5418    3.4844    1.5469 H       1  UNL1        0.0239
     45 H          -5.9945    2.6004    2.2800 H       1  UNL1        0.0239
     46 H          -5.2894    2.1446    0.6442 H       1  UNL1        0.0239
     47 H          -2.7025    1.6709    3.9617 H       1  UNL1        0.0239
     48 H          -2.4524    2.8001    2.6025 H       1  UNL1        0.0239
     49 H          -3.8137    3.1115    3.7229 H       1  UNL1        0.0239
     50 H          -4.0731   -0.3014    3.3700 H       1  UNL1        0.0239
     51 H          -5.4521    0.8428    3.7862 H       1  UNL1        0.0239
     52 H          -5.4473   -0.1309    2.2558 H       1  UNL1        0.0239
     53 H          -4.3751   -0.7503    0.5418 H       1  UNL1        0.1671
     54 H          -0.7299   -2.3427   -0.5727 H       1  UNL1        0.0625
     55 H          -0.6729   -4.1858   -2.2705 H       1  UNL1        0.0646
     56 H          -4.2129   -2.5462   -4.0745 H       1  UNL1        0.0646
     57 H          -4.2079   -0.8063   -2.4164 H       1  UNL1        0.0625
     58 H           0.9081    0.4615    0.7151 H       1  UNL1        0.0646
@<TRIPOS>BOND
     1     1     2    1
     2     2     3    1
     3     2     4    1
     4     4     5    2
     5     4     6    2
     6     4     7    1
     7     7     8   ar
     8     8     9    1
     9     8    10   ar
    10    10    11   ar
    11    11    12   ar
    12    12    13   ar
    13    13    14   ar
    14    14    15    1
    15    15    16   ar
    16    16    17   ar
    17    17    18    1
    18    18    19    1
    19    18    20    1
    20    18    21    1
    21    17    22   ar
    22    22    23   ar
    23    23    24    1
    24    24    25   ar
    25    25    26   ar
    26    26    27   ar
    27    27    28    1
    28    27    29   ar
    29    29    30   ar
    30    14    31   ar
    31    31    32   ar
    32    32     7   ar
    33    32    11   ar
    34    23    15   ar
    35    30    24   ar
    36     1    33    1
    37     1    34    1
    38     1    35    1
    39     2    36    1
    40     3    37    1
    41     3    38    1
    42     3    39    1
    43     9    40    1
    44     9    41    1
    45    12    42    1
    46    13    43    1
    47    19    44    1
    48    19    45    1
    49    19    46    1
    50    20    47    1
    51    20    48    1
    52    20    49    1
    53    21    50    1
    54    21    51    1
    55    21    52    1
    56    22    53    1
    57    25    54    1
    58    26    55    1
    59    29    56    1
    60    30    57    1
    61    31    58    1
