
     RDKit          3D

 58 61  0  0  0  0  0  0  0  0999 V2000
    6.2295   -1.0002    0.3908 C   0  0  0  0  0  0  0  0  0  0  0  0
    4.9123   -1.0032    1.1030 C   0  0  0  0  0  0  0  0  0  0  0  0
    5.1233   -1.1744    2.6232 C   0  0  0  0  0  0  0  0  0  0  0  0
    3.9525    0.4498    0.9077 S   0  0  0  0  0  6  0  0  0  0  0  0
    2.8527    0.4101    1.9335 O   0  0  0  0  0  0  0  0  0  0  0  0
    4.8451    1.6210    1.2940 O   0  0  0  0  0  0  0  0  0  0  0  0
    3.3715    0.7279   -0.6711 N   0  0  0  0  0  0  0  0  0  0  0  0
    4.0729    0.9301   -1.7984 C   0  0  0  0  0  0  0  0  0  0  0  0
    5.4981    0.9800   -1.9406 N   0  0  0  0  0  0  0  0  0  0  0  0
    3.2690    1.1029   -2.8522 N   0  0  0  0  0  0  0  0  0  0  0  0
    2.0053    1.0146   -2.4191 C   0  0  0  0  0  0  0  0  0  0  0  0
    0.8002    1.1120   -3.0617 C   0  0  0  0  0  0  0  0  0  0  0  0
   -0.3716    0.9771   -2.3543 C   0  0  0  0  0  0  0  0  0  0  0  0
   -0.3290    0.7438   -0.9981 C   0  0  0  0  0  0  0  0  0  0  0  0
   -1.5795    0.6005   -0.2496 C   0  0  0  0  0  0  0  0  0  0  0  0
   -2.0587    1.3834    0.7524 N   0  0  0  0  0  0  0  0  0  0  0  0
   -3.2296    0.9563    1.2025 C   0  0  0  0  0  0  0  0  0  0  0  0
   -4.0978    1.5069    2.2760 C   0  0  0  0  0  0  0  0  0  0  0  0
   -5.0753    2.5220    1.6831 C   0  0  0  0  0  0  0  0  0  0  0  0
   -3.2159    2.2961    3.2347 C   0  0  0  0  0  0  0  0  0  0  0  0
   -4.8222    0.3872    2.9870 C   0  0  0  0  0  0  0  0  0  0  0  0
   -3.5267   -0.1537    0.4613 N   0  0  0  0  0  0  0  0  0  0  0  0
   -2.5357   -0.3721   -0.4149 C   0  0  0  0  0  0  0  0  0  0  0  0
   -2.4726   -1.4515   -1.3811 C   0  0  0  0  0  0  0  0  0  0  0  0
   -1.4830   -2.4190   -1.3606 C   0  0  0  0  0  0  0  0  0  0  0  0
   -1.4700   -3.4267   -2.3059 C   0  0  0  0  0  0  0  0  0  0  0  0
   -2.4306   -3.5035   -3.2913 C   0  0  0  0  0  0  0  0  0  0  0  0
   -2.4627   -4.4690   -4.2393 F   0  0  0  0  0  0  0  0  0  0  0  0
   -3.4232   -2.5497   -3.3278 C   0  0  0  0  0  0  0  0  0  0  0  0
   -3.4184   -1.5534   -2.3764 C   0  0  0  0  0  0  0  0  0  0  0  0
    0.8885    0.6473   -0.3603 C   0  0  0  0  0  0  0  0  0  0  0  0
    2.0858    0.7786   -1.0452 C   0  0  0  0  0  0  0  0  0  0  0  0
    6.1522   -1.3802   -0.6523 H   0  0  0  0  0  0  0  0  0  0  0  0
    6.6964   -0.0026    0.3518 H   0  0  0  0  0  0  0  0  0  0  0  0
    6.9058   -1.6805    0.9924 H   0  0  0  0  0  0  0  0  0  0  0  0
    4.3612   -1.9339    0.8158 H   0  0  0  0  0  0  0  0  0  0  0  0
    6.0550   -1.7310    2.8209 H   0  0  0  0  0  0  0  0  0  0  0  0
    4.2282   -1.6243    3.0854 H   0  0  0  0  0  0  0  0  0  0  0  0
    5.2424   -0.1569    3.0592 H   0  0  0  0  0  0  0  0  0  0  0  0
    6.0191    0.4289   -2.6440 H   0  0  0  0  0  0  0  0  0  0  0  0
    6.0313    1.6021   -1.3033 H   0  0  0  0  0  0  0  0  0  0  0  0
    0.8038    1.2976   -4.1389 H   0  0  0  0  0  0  0  0  0  0  0  0
   -1.3418    1.0572   -2.8814 H   0  0  0  0  0  0  0  0  0  0  0  0
   -4.5418    3.4844    1.5469 H   0  0  0  0  0  0  0  0  0  0  0  0
   -5.9945    2.6004    2.2800 H   0  0  0  0  0  0  0  0  0  0  0  0
   -5.2894    2.1446    0.6442 H   0  0  0  0  0  0  0  0  0  0  0  0
   -2.7025    1.6709    3.9617 H   0  0  0  0  0  0  0  0  0  0  0  0
   -2.4524    2.8001    2.6025 H   0  0  0  0  0  0  0  0  0  0  0  0
   -3.8137    3.1115    3.7229 H   0  0  0  0  0  0  0  0  0  0  0  0
   -4.0731   -0.3014    3.3700 H   0  0  0  0  0  0  0  0  0  0  0  0
   -5.4521    0.8428    3.7862 H   0  0  0  0  0  0  0  0  0  0  0  0
   -5.4473   -0.1309    2.2558 H   0  0  0  0  0  0  0  0  0  0  0  0
   -4.3751   -0.7503    0.5418 H   0  0  0  0  0  0  0  0  0  0  0  0
   -0.7299   -2.3427   -0.5727 H   0  0  0  0  0  0  0  0  0  0  0  0
   -0.6729   -4.1858   -2.2705 H   0  0  0  0  0  0  0  0  0  0  0  0
   -4.2129   -2.5462   -4.0745 H   0  0  0  0  0  0  0  0  0  0  0  0
   -4.2079   -0.8063   -2.4164 H   0  0  0  0  0  0  0  0  0  0  0  0
    0.9081    0.4615    0.7151 H   0  0  0  0  0  0  0  0  0  0  0  0
  1  2  1  0
  2  3  1  0
  2  4  1  0
  4  5  2  0
  4  6  2  0
  4  7  1  0
  7  8  1  0
  8  9  1  0
  8 10  2  0
 10 11  1  0
 11 12  2  0
 12 13  1  0
 13 14  2  0
 14 15  1  0
 15 16  1  0
 16 17  2  0
 17 18  1  0
 18 19  1  0
 18 20  1  0
 18 21  1  0
 17 22  1  0
 22 23  1  0
 23 24  1  0
 24 25  2  0
 25 26  1  0
 26 27  2  0
 27 28  1  0
 27 29  1  0
 29 30  2  0
 14 31  1  0
 31 32  2  0
 32  7  1  0
 32 11  1  0
 23 15  2  0
 30 24  1  0
  1 33  1  0
  1 34  1  0
  1 35  1  0
  2 36  1  0
  3 37  1  0
  3 38  1  0
  3 39  1  0
  9 40  1  0
  9 41  1  0
 12 42  1  0
 13 43  1  0
 19 44  1  0
 19 45  1  0
 19 46  1  0
 20 47  1  0
 20 48  1  0
 20 49  1  0
 21 50  1  0
 21 51  1  0
 21 52  1  0
 22 53  1  0
 25 54  1  0
 26 55  1  0
 29 56  1  0
 30 57  1  0
 31 58  1  0
M  END
$$$$
