
     RDKit          3D

 53 58  0  0  0  0  0  0  0  0999 V2000
   -4.3502    2.3756   -1.5924 Cl  0  0  0  0  0  0  0  0  0  0  0  0
   -3.4088    1.2196   -0.6788 C   0  0  0  0  0  0  0  0  0  0  0  0
   -2.0485    1.3583   -0.6128 C   0  0  0  0  0  0  0  0  0  0  0  0
   -1.2848    0.4592    0.1022 C   0  0  0  0  0  0  0  0  0  0  0  0
    0.1604    0.5358    0.2205 C   0  0  0  0  0  0  0  0  0  0  0  0
    0.9296   -0.5981    0.3558 C   0  0  0  0  0  0  0  0  0  0  0  0
    2.2607   -0.5648    0.4670 N   0  0  0  0  0  0  0  0  0  0  0  0
    2.8716    0.6355    0.4449 C   0  0  0  0  0  0  0  0  0  0  0  0
    4.2123    0.9376    0.5403 C   0  0  0  0  0  0  0  0  0  0  0  0
    5.3716    0.0669    0.6930 C   0  0  0  0  0  0  0  0  0  0  0  0
    5.8434   -0.2895    1.9570 C   0  0  0  0  0  0  0  0  0  0  0  0
    6.9412   -1.1144    2.1362 C   0  0  0  0  0  0  0  0  0  0  0  0
    7.5822   -1.5941    1.0168 C   0  0  0  0  0  0  0  0  0  0  0  0
    7.1561   -1.2719   -0.2710 C   0  0  0  0  0  0  0  0  0  0  0  0
    7.7965   -1.7514   -1.3511 N   0  0  0  0  0  0  0  0  0  0  0  0
    7.3994   -1.4512   -2.5979 C   0  0  0  0  0  0  0  0  0  0  0  0
    6.3054   -0.6292   -2.7547 C   0  0  0  0  0  0  0  0  0  0  0  0
    5.6322   -0.1252   -1.6680 C   0  0  0  0  0  0  0  0  0  0  0  0
    6.0572   -0.4463   -0.3871 C   0  0  0  0  0  0  0  0  0  0  0  0
    4.2804    2.3113    0.4614 C   0  0  0  0  0  0  0  0  0  0  0  0
    3.0211    2.7721    0.3259 N   0  0  0  0  0  0  0  0  0  0  0  0
    2.1463    1.7582    0.3140 N   0  0  0  0  0  0  0  0  0  0  0  0
    0.7967    1.7565    0.1993 C   0  0  0  0  0  0  0  0  0  0  0  0
   -1.9346   -0.5736    0.7416 C   0  0  0  0  0  0  0  0  0  0  0  0
   -3.3000   -0.7128    0.6753 C   0  0  0  0  0  0  0  0  0  0  0  0
   -4.0725    0.1881   -0.0420 C   0  0  0  0  0  0  0  0  0  0  0  0
   -5.4768    0.0407   -0.1074 N   0  0  0  0  0  0  0  0  0  0  0  0
   -6.1551   -0.1401   -1.3610 C   0  0  0  0  0  0  0  0  0  0  0  0
   -7.3393   -1.0676   -1.1514 C   0  0  0  0  0  0  0  0  0  0  0  0
   -8.2313   -0.6538   -0.1182 N   0  0  0  0  0  0  0  0  0  0  0  0
   -7.7171    0.2697    0.8374 C   0  0  0  0  0  0  0  0  0  0  0  0
   -6.2435    0.0720    1.1091 C   0  0  0  0  0  0  0  0  0  0  0  0
   -1.5092    2.1710   -1.1129 H   0  0  0  0  0  0  0  0  0  0  0  0
    0.4647   -1.5922    0.3773 H   0  0  0  0  0  0  0  0  0  0  0  0
    5.2940    0.1216    2.8124 H   0  0  0  0  0  0  0  0  0  0  0  0
    7.2780   -1.3690    3.1381 H   0  0  0  0  0  0  0  0  0  0  0  0
    8.4387   -2.2376    1.1285 H   0  0  0  0  0  0  0  0  0  0  0  0
    7.9345   -1.8521   -3.4775 H   0  0  0  0  0  0  0  0  0  0  0  0
    5.9716   -0.3768   -3.7649 H   0  0  0  0  0  0  0  0  0  0  0  0
    4.7705    0.5224   -1.7544 H   0  0  0  0  0  0  0  0  0  0  0  0
    5.1568    2.9493    0.4961 H   0  0  0  0  0  0  0  0  0  0  0  0
    0.2404    2.6801    0.0949 H   0  0  0  0  0  0  0  0  0  0  0  0
   -1.3858   -1.2905    1.3048 H   0  0  0  0  0  0  0  0  0  0  0  0
   -3.8289   -1.5164    1.1694 H   0  0  0  0  0  0  0  0  0  0  0  0
   -5.5115   -0.6453   -2.1271 H   0  0  0  0  0  0  0  0  0  0  0  0
   -6.5071    0.8173   -1.8018 H   0  0  0  0  0  0  0  0  0  0  0  0
   -7.8793   -1.1237   -2.1211 H   0  0  0  0  0  0  0  0  0  0  0  0
   -6.9130   -2.0814   -0.9894 H   0  0  0  0  0  0  0  0  0  0  0  0
   -9.1475   -0.4193   -0.5074 H   0  0  0  0  0  0  0  0  0  0  0  0
   -8.2453    0.1397    1.8064 H   0  0  0  0  0  0  0  0  0  0  0  0
   -7.8633    1.2978    0.4363 H   0  0  0  0  0  0  0  0  0  0  0  0
   -5.8981    0.9077    1.7596 H   0  0  0  0  0  0  0  0  0  0  0  0
   -6.0619   -0.8757    1.6465 H   0  0  0  0  0  0  0  0  0  0  0  0
  1  2  1  0
  2  3  2  0
  3  4  1  0
  4  5  1  0
  5  6  1  0
  6  7  2  0
  7  8  1  0
  8  9  2  0
  9 10  1  0
 10 11  2  0
 11 12  1  0
 12 13  2  0
 13 14  1  0
 14 15  2  0
 15 16  1  0
 16 17  2  0
 17 18  1  0
 18 19  2  0
  9 20  1  0
 20 21  2  0
 21 22  1  0
 22 23  1  0
  4 24  2  0
 24 25  1  0
 25 26  2  0
 26 27  1  0
 27 28  1  0
 28 29  1  0
 29 30  1  0
 30 31  1  0
 31 32  1  0
 26  2  1  0
 32 27  1  0
 23  5  2  0
 22  8  1  0
 19 10  1  0
 19 14  1  0
  3 33  1  0
  6 34  1  0
 11 35  1  0
 12 36  1  0
 13 37  1  0
 16 38  1  0
 17 39  1  0
 18 40  1  0
 20 41  1  0
 23 42  1  0
 24 43  1  0
 25 44  1  0
 28 45  1  0
 28 46  1  0
 29 47  1  0
 29 48  1  0
 30 49  1  0
 31 50  1  0
 31 51  1  0
 32 52  1  0
 32 53  1  0
M  END
$$$$
