@<TRIPOS>MOLECULE
*****
 53 58 0 0 0
SMALL
GASTEIGER

@<TRIPOS>ATOM
      1 CL         -4.3502    2.3756   -1.5924 Cl      1  UNL1       -0.0816
      2 C          -3.4088    1.2196   -0.6788 C.ar    1  UNL1        0.0625
      3 C          -2.0485    1.3583   -0.6128 C.ar    1  UNL1       -0.0338
      4 C          -1.2848    0.4592    0.1022 C.ar    1  UNL1       -0.0135
      5 C           0.1604    0.5358    0.2205 C.ar    1  UNL1        0.0185
      6 C           0.9296   -0.5981    0.3558 C.ar    1  UNL1        0.0391
      7 N           2.2607   -0.5648    0.4670 N.ar    1  UNL1       -0.2350
      8 C           2.8716    0.6355    0.4449 C.ar    1  UNL1        0.1632
      9 C           4.2123    0.9376    0.5403 C.ar    1  UNL1        0.0466
     10 C           5.3716    0.0669    0.6930 C.ar    1  UNL1       -0.0037
     11 C           5.8434   -0.2895    1.9570 C.ar    1  UNL1       -0.0532
     12 C           6.9412   -1.1144    2.1362 C.ar    1  UNL1       -0.0591
     13 C           7.5822   -1.5941    1.0168 C.ar    1  UNL1       -0.0357
     14 C           7.1561   -1.2719   -0.2710 C.ar    1  UNL1        0.0715
     15 N           7.7965   -1.7514   -1.3511 N.ar    1  UNL1       -0.2550
     16 C           7.3994   -1.4512   -2.5979 C.ar    1  UNL1        0.0283
     17 C           6.3054   -0.6292   -2.7547 C.ar    1  UNL1       -0.0430
     18 C           5.6322   -0.1252   -1.6680 C.ar    1  UNL1       -0.0506
     19 C           6.0572   -0.4463   -0.3871 C.ar    1  UNL1        0.0082
     20 C           4.2804    2.3113    0.4614 C.ar    1  UNL1        0.0597
     21 N           3.0211    2.7721    0.3259 N.ar    1  UNL1       -0.1727
     22 N           2.1463    1.7582    0.3140 N.ar    1  UNL1       -0.2206
     23 C           0.7967    1.7565    0.1993 C.ar    1  UNL1        0.0406
     24 C          -1.9346   -0.5736    0.7416 C.ar    1  UNL1       -0.0521
     25 C          -3.3000   -0.7128    0.6753 C.ar    1  UNL1       -0.0387
     26 C          -4.0725    0.1881   -0.0420 C.ar    1  UNL1        0.0484
     27 N          -5.4768    0.0407   -0.1074 N.pl3   1  UNL1       -0.3263
     28 C          -6.1551   -0.1401   -1.3610 C.3     1  UNL1        0.0248
     29 C          -7.3393   -1.0676   -1.1514 C.3     1  UNL1        0.0117
     30 N          -8.2313   -0.6538   -0.1182 N.3     1  UNL1       -0.3130
     31 C          -7.7171    0.2697    0.8374 C.3     1  UNL1        0.0117
     32 C          -6.2435    0.0720    1.1091 C.3     1  UNL1        0.0248
     33 H          -1.5092    2.1710   -1.1129 H       1  UNL1        0.0639
     34 H           0.4647   -1.5922    0.3773 H       1  UNL1        0.0837
     35 H           5.2940    0.1216    2.8124 H       1  UNL1        0.0624
     36 H           7.2780   -1.3690    3.1381 H       1  UNL1        0.0618
     37 H           8.4387   -2.2376    1.1285 H       1  UNL1        0.0639
     38 H           7.9345   -1.8521   -3.4775 H       1  UNL1        0.0830
     39 H           5.9716   -0.3768   -3.7649 H       1  UNL1        0.0633
     40 H           4.7705    0.5224   -1.7544 H       1  UNL1        0.0625
     41 H           5.1568    2.9493    0.4961 H       1  UNL1        0.0855
     42 H           0.2404    2.6801    0.0949 H       1  UNL1        0.0837
     43 H          -1.3858   -1.2905    1.3048 H       1  UNL1        0.0624
     44 H          -3.8289   -1.5164    1.1694 H       1  UNL1        0.0637
     45 H          -5.5115   -0.6453   -2.1271 H       1  UNL1        0.0476
     46 H          -6.5071    0.8173   -1.8018 H       1  UNL1        0.0476
     47 H          -7.8793   -1.1237   -2.1211 H       1  UNL1        0.0439
     48 H          -6.9130   -2.0814   -0.9894 H       1  UNL1        0.0439
     49 H          -9.1475   -0.4193   -0.5074 H       1  UNL1        0.1220
     50 H          -8.2453    0.1397    1.8064 H       1  UNL1        0.0439
     51 H          -7.8633    1.2978    0.4363 H       1  UNL1        0.0439
     52 H          -5.8981    0.9077    1.7596 H       1  UNL1        0.0476
     53 H          -6.0619   -0.8757    1.6465 H       1  UNL1        0.0476
@<TRIPOS>BOND
     1     1     2    1
     2     2     3   ar
     3     3     4   ar
     4     4     5    1
     5     5     6   ar
     6     6     7   ar
     7     7     8   ar
     8     8     9   ar
     9     9    10    1
    10    10    11   ar
    11    11    12   ar
    12    12    13   ar
    13    13    14   ar
    14    14    15   ar
    15    15    16   ar
    16    16    17   ar
    17    17    18   ar
    18    18    19   ar
    19     9    20   ar
    20    20    21   ar
    21    21    22   ar
    22    22    23   ar
    23     4    24   ar
    24    24    25   ar
    25    25    26   ar
    26    26    27    1
    27    27    28    1
    28    28    29    1
    29    29    30    1
    30    30    31    1
    31    31    32    1
    32    26     2   ar
    33    32    27    1
    34    23     5   ar
    35    22     8   ar
    36    19    10   ar
    37    19    14   ar
    38     3    33    1
    39     6    34    1
    40    11    35    1
    41    12    36    1
    42    13    37    1
    43    16    38    1
    44    17    39    1
    45    18    40    1
    46    20    41    1
    47    23    42    1
    48    24    43    1
    49    25    44    1
    50    28    45    1
    51    28    46    1
    52    29    47    1
    53    29    48    1
    54    30    49    1
    55    31    50    1
    56    31    51    1
    57    32    52    1
    58    32    53    1
