@<TRIPOS>MOLECULE
*****
 6 4 0 0 0
SMALL
GASTEIGER

@<TRIPOS>ATOM
      1 MG          0.0000    0.0000    0.0000 Mg      1  UNL1        0.0000
      2 O          -1.3333   -0.9392   -0.2706 O.co2   2  UNL2       -1.0000
      3 S           0.0055    0.0415   -0.0070 S.3     2  UNL2        0.0000
      4 O           1.3963   -0.8903   -0.0006 O.co2   2  UNL2       -1.0000
      5 O          -0.1799    0.6817    1.3426 O.2     2  UNL2        0.0000
      6 O           0.1114    1.1063   -1.0644 O.2     2  UNL2        0.0000
@<TRIPOS>UNITY_ATOM_ATTR
1 1
charge 2
2 1
charge -1
4 1
charge -1
@<TRIPOS>BOND
     1     2     3    1
     2     3     4    1
     3     3     5    2
     4     3     6    2
