
     RDKit          3D

  6  4  0  0  0  0  0  0  0  0999 V2000
    0.0000    0.0000    0.0000 Mg  0  0  0  0  0 15  0  0  0  0  0  0
   -1.3333   -0.9392   -0.2706 O   0  0  0  0  0  1  0  0  0  0  0  0
    0.0055    0.0415   -0.0070 S   0  0  0  0  0  0  0  0  0  0  0  0
    1.3963   -0.8903   -0.0006 O   0  0  0  0  0  1  0  0  0  0  0  0
   -0.1799    0.6817    1.3426 O   0  0  0  0  0  0  0  0  0  0  0  0
    0.1114    1.1063   -1.0644 O   0  0  0  0  0  0  0  0  0  0  0  0
  2  3  1  0
  3  4  1  0
  3  5  2  0
  3  6  2  0
M  CHG  3   1   2   2  -1   4  -1
M  END
$$$$
