@<TRIPOS>MOLECULE
*****
 45 46 0 0 0
SMALL
GASTEIGER

@<TRIPOS>ATOM
      1 C           4.6560   -2.9296    1.8348 C.3     1  UNL1        0.0788
      2 O           4.1707   -1.7431    2.4541 O.3     1  UNL1       -0.4951
      3 C           3.3929   -0.8724    1.7043 C.ar    1  UNL1        0.1202
      4 C           2.9396    0.2626    2.3281 C.ar    1  UNL1       -0.0181
      5 C           2.1667    1.1445    1.6115 C.ar    1  UNL1       -0.0319
      6 C           1.8300    0.9355    0.2967 C.ar    1  UNL1        0.1057
      7 S           0.8335    2.0979   -0.5925 S.O2    1  UNL1        0.0616
      8 O           1.2161    2.0783   -2.0419 O.2     1  UNL1       -0.1528
      9 O           1.2273    3.4539   -0.0738 O.2     1  UNL1       -0.1528
     10 N          -0.7718    1.7109   -0.3892 N.3     1  UNL1       -0.1634
     11 C          -1.3106    1.7358    0.9034 C.3     1  UNL1        0.0991
     12 C          -1.8937    3.0320    1.3126 C.2     1  UNL1        0.2512
     13 O          -2.4070    3.1783    2.4486 O.2     1  UNL1       -0.2723
     14 N          -1.8897    4.1439    0.4355 N.am    1  UNL1       -0.1964
     15 O          -2.4294    5.3086    0.8413 O.3     1  UNL1       -0.2952
     16 C          -1.5523    1.3066   -1.4789 C.3     1  UNL1        0.0461
     17 C          -1.6005   -0.1764   -1.5787 C.ar    1  UNL1       -0.0309
     18 C          -0.6432   -0.8452   -2.3169 C.ar    1  UNL1       -0.0572
     19 C          -0.6025   -2.2112   -2.4741 C.ar    1  UNL1       -0.0607
     20 C          -1.5928   -2.9344   -1.8438 C.ar    1  UNL1       -0.0478
     21 C          -2.5635   -2.2954   -1.0993 C.ar    1  UNL1        0.0591
     22 C          -3.6044   -3.0805   -0.4393 C.2     1  UNL1        0.3368
     23 O          -3.5901   -4.3273   -0.5665 O.2     1  UNL1       -0.2451
     24 O          -4.5908   -2.4992    0.3108 O.3     1  UNL1       -0.4771
     25 C          -2.5827   -0.9187   -0.9563 C.ar    1  UNL1       -0.0433
     26 C           2.2981   -0.2136   -0.3090 C.ar    1  UNL1       -0.0319
     27 C           3.0799   -1.1215    0.3894 C.ar    1  UNL1       -0.0181
     28 H           5.2666   -2.6713    0.9402 H       1  UNL1        0.0660
     29 H           3.7922   -3.5475    1.5291 H       1  UNL1        0.0660
     30 H           5.2913   -3.5130    2.5191 H       1  UNL1        0.0660
     31 H           3.1994    0.4478    3.3828 H       1  UNL1        0.0655
     32 H           1.8057    2.0395    2.0909 H       1  UNL1        0.0638
     33 H          -2.0487    0.9344    1.0454 H       1  UNL1        0.0540
     34 H          -0.4781    1.4819    1.6256 H       1  UNL1        0.0540
     35 H          -1.4755    4.0968   -0.5367 H       1  UNL1        0.1822
     36 H          -1.7753    5.8891    1.3022 H       1  UNL1        0.2414
     37 H          -1.0608    1.6991   -2.4203 H       1  UNL1        0.0493
     38 H          -2.5761    1.7399   -1.5200 H       1  UNL1        0.0493
     39 H           0.1207   -0.2754   -2.8065 H       1  UNL1        0.0621
     40 H           0.1783   -2.6417   -3.0651 H       1  UNL1        0.0618
     41 H          -1.5634   -4.0100   -1.9656 H       1  UNL1        0.0626
     42 H          -4.9925   -3.0516    1.0673 H       1  UNL1        0.2954
     43 H          -3.3465   -0.4332   -0.3789 H       1  UNL1        0.0629
     44 H           2.0355   -0.3775   -1.3421 H       1  UNL1        0.0638
     45 H           3.4417   -2.0276   -0.1087 H       1  UNL1        0.0655
@<TRIPOS>BOND
     1     1     2    1
     2     2     3    1
     3     3     4   ar
     4     4     5   ar
     5     5     6   ar
     6     6     7    1
     7     7     8    2
     8     7     9    2
     9     7    10    1
    10    10    11    1
    11    11    12    1
    12    12    13    2
    13    12    14   am
    14    14    15    1
    15    10    16    1
    16    16    17    1
    17    17    18   ar
    18    18    19   ar
    19    19    20   ar
    20    20    21   ar
    21    21    22    1
    22    22    23    2
    23    22    24    1
    24    21    25   ar
    25     6    26   ar
    26    26    27   ar
    27    27     3   ar
    28    25    17   ar
    29     1    28    1
    30     1    29    1
    31     1    30    1
    32     4    31    1
    33     5    32    1
    34    11    33    1
    35    11    34    1
    36    14    35    1
    37    15    36    1
    38    16    37    1
    39    16    38    1
    40    18    39    1
    41    19    40    1
    42    20    41    1
    43    24    42    1
    44    25    43    1
    45    26    44    1
    46    27    45    1
