
     RDKit          3D

 45 46  0  0  0  0  0  0  0  0999 V2000
    4.6560   -2.9296    1.8348 C   0  0  0  0  0  0  0  0  0  0  0  0
    4.1707   -1.7431    2.4541 O   0  0  0  0  0  0  0  0  0  0  0  0
    3.3929   -0.8724    1.7043 C   0  0  0  0  0  0  0  0  0  0  0  0
    2.9396    0.2626    2.3281 C   0  0  0  0  0  0  0  0  0  0  0  0
    2.1667    1.1445    1.6115 C   0  0  0  0  0  0  0  0  0  0  0  0
    1.8300    0.9355    0.2967 C   0  0  0  0  0  0  0  0  0  0  0  0
    0.8335    2.0979   -0.5925 S   0  0  0  0  0  6  0  0  0  0  0  0
    1.2161    2.0783   -2.0419 O   0  0  0  0  0  0  0  0  0  0  0  0
    1.2273    3.4539   -0.0738 O   0  0  0  0  0  0  0  0  0  0  0  0
   -0.7718    1.7109   -0.3892 N   0  0  0  0  0  0  0  0  0  0  0  0
   -1.3106    1.7358    0.9034 C   0  0  0  0  0  0  0  0  0  0  0  0
   -1.8937    3.0320    1.3126 C   0  0  0  0  0  0  0  0  0  0  0  0
   -2.4070    3.1783    2.4486 O   0  0  0  0  0  0  0  0  0  0  0  0
   -1.8897    4.1439    0.4355 N   0  0  0  0  0  0  0  0  0  0  0  0
   -2.4294    5.3086    0.8413 O   0  0  0  0  0  0  0  0  0  0  0  0
   -1.5523    1.3066   -1.4789 C   0  0  0  0  0  0  0  0  0  0  0  0
   -1.6005   -0.1764   -1.5787 C   0  0  0  0  0  0  0  0  0  0  0  0
   -0.6432   -0.8452   -2.3169 C   0  0  0  0  0  0  0  0  0  0  0  0
   -0.6025   -2.2112   -2.4741 C   0  0  0  0  0  0  0  0  0  0  0  0
   -1.5928   -2.9344   -1.8438 C   0  0  0  0  0  0  0  0  0  0  0  0
   -2.5635   -2.2954   -1.0993 C   0  0  0  0  0  0  0  0  0  0  0  0
   -3.6044   -3.0805   -0.4393 C   0  0  0  0  0  0  0  0  0  0  0  0
   -3.5901   -4.3273   -0.5665 O   0  0  0  0  0  0  0  0  0  0  0  0
   -4.5908   -2.4992    0.3108 O   0  0  0  0  0  0  0  0  0  0  0  0
   -2.5827   -0.9187   -0.9563 C   0  0  0  0  0  0  0  0  0  0  0  0
    2.2981   -0.2136   -0.3090 C   0  0  0  0  0  0  0  0  0  0  0  0
    3.0799   -1.1215    0.3894 C   0  0  0  0  0  0  0  0  0  0  0  0
    5.2666   -2.6713    0.9402 H   0  0  0  0  0  0  0  0  0  0  0  0
    3.7922   -3.5475    1.5291 H   0  0  0  0  0  0  0  0  0  0  0  0
    5.2913   -3.5130    2.5191 H   0  0  0  0  0  0  0  0  0  0  0  0
    3.1994    0.4478    3.3828 H   0  0  0  0  0  0  0  0  0  0  0  0
    1.8057    2.0395    2.0909 H   0  0  0  0  0  0  0  0  0  0  0  0
   -2.0487    0.9344    1.0454 H   0  0  0  0  0  0  0  0  0  0  0  0
   -0.4781    1.4819    1.6256 H   0  0  0  0  0  0  0  0  0  0  0  0
   -1.4755    4.0968   -0.5367 H   0  0  0  0  0  0  0  0  0  0  0  0
   -1.7753    5.8891    1.3022 H   0  0  0  0  0  0  0  0  0  0  0  0
   -1.0608    1.6991   -2.4203 H   0  0  0  0  0  0  0  0  0  0  0  0
   -2.5761    1.7399   -1.5200 H   0  0  0  0  0  0  0  0  0  0  0  0
    0.1207   -0.2754   -2.8065 H   0  0  0  0  0  0  0  0  0  0  0  0
    0.1783   -2.6417   -3.0651 H   0  0  0  0  0  0  0  0  0  0  0  0
   -1.5634   -4.0100   -1.9656 H   0  0  0  0  0  0  0  0  0  0  0  0
   -4.9925   -3.0516    1.0673 H   0  0  0  0  0  0  0  0  0  0  0  0
   -3.3465   -0.4332   -0.3789 H   0  0  0  0  0  0  0  0  0  0  0  0
    2.0355   -0.3775   -1.3421 H   0  0  0  0  0  0  0  0  0  0  0  0
    3.4417   -2.0276   -0.1087 H   0  0  0  0  0  0  0  0  0  0  0  0
  1  2  1  0
  2  3  1  0
  3  4  2  0
  4  5  1  0
  5  6  2  0
  6  7  1  0
  7  8  2  0
  7  9  2  0
  7 10  1  0
 10 11  1  0
 11 12  1  0
 12 13  2  0
 12 14  1  0
 14 15  1  0
 10 16  1  0
 16 17  1  0
 17 18  2  0
 18 19  1  0
 19 20  2  0
 20 21  1  0
 21 22  1  0
 22 23  2  0
 22 24  1  0
 21 25  2  0
  6 26  1  0
 26 27  2  0
 27  3  1  0
 25 17  1  0
  1 28  1  0
  1 29  1  0
  1 30  1  0
  4 31  1  0
  5 32  1  0
 11 33  1  0
 11 34  1  0
 14 35  1  0
 15 36  1  0
 16 37  1  0
 16 38  1  0
 18 39  1  0
 19 40  1  0
 20 41  1  0
 24 42  1  0
 25 43  1  0
 26 44  1  0
 27 45  1  0
M  END
$$$$
