
     RDKit          3D

 82 86  0  0  0  0  0  0  0  0999 V2000
   13.8585   -1.6484   -1.3626 C   0  0  0  0  0  0  0  0  0  0  0  0
   12.7551   -2.5105   -1.4362 O   0  0  0  0  0  0  0  0  0  0  0  0
   11.4943   -2.1406   -0.9877 C   0  0  0  0  0  0  0  0  0  0  0  0
   10.4218   -3.0269   -1.0784 C   0  0  0  0  0  0  0  0  0  0  0  0
    9.1754   -2.6945   -0.6478 C   0  0  0  0  0  0  0  0  0  0  0  0
    8.9206   -1.4596   -0.1005 C   0  0  0  0  0  0  0  0  0  0  0  0
    7.7350   -1.1223    0.3178 O   0  0  0  0  0  0  0  0  0  0  0  0
    7.4145    0.0336    0.8500 C   0  0  0  0  0  0  0  0  0  0  0  0
    6.0378    0.2824    1.2804 C   0  0  0  0  0  0  0  0  0  0  0  0
    5.1600   -0.6294    1.1435 O   0  0  0  0  0  0  0  0  0  0  0  0
    5.6236    1.5031    1.8499 N   0  0  0  0  0  0  0  0  0  0  0  0
    4.2508    1.7409    2.2721 C   0  0  0  0  0  0  0  0  0  0  0  0
    3.2588    1.6375    1.1524 C   0  0  0  0  0  0  0  0  0  0  0  0
    1.8744    1.8974    1.6530 C   0  0  0  0  0  0  0  0  0  0  0  0
    0.8184    1.8126    0.6023 C   0  0  0  0  0  0  0  0  0  0  0  0
    0.7402    0.4705   -0.0423 C   0  0  0  0  0  0  0  0  0  0  0  0
   -0.3249    0.3845   -1.0998 C   0  0  0  0  0  0  0  0  0  0  0  0
   -1.6872    0.6656   -0.5593 C   0  0  0  0  0  0  0  0  0  0  0  0
   -2.7255    0.5562   -1.6646 C   0  0  0  0  0  0  0  0  0  0  0  0
   -4.0812    0.8715   -1.0160 C   0  0  0  0  0  0  0  0  0  0  0  0
   -5.1155    0.7601   -2.1008 C   0  0  0  0  0  0  0  0  0  0  0  0
   -6.4600    1.0123   -1.7160 N   0  0  0  0  0  0  0  0  0  0  0  0
   -7.3715    0.3806   -0.8787 C   0  0  0  0  0  0  0  0  0  0  0  0
   -7.1408   -0.8395   -0.2905 C   0  0  0  0  0  0  0  0  0  0  0  0
   -8.0905   -1.3381    0.6150 C   0  0  0  0  0  0  0  0  0  0  0  0
   -9.2008   -0.6451    0.8994 N   0  0  0  0  0  0  0  0  0  0  0  0
   -9.4640    0.5412    0.3477 C   0  0  0  0  0  0  0  0  0  0  0  0
  -10.6386    1.1740    0.7123 C   0  0  0  0  0  0  0  0  0  0  0  0
  -10.9452    2.4006    0.1693 C   0  0  0  0  0  0  0  0  0  0  0  0
  -12.4393    3.2120    0.6311 Cl  0  0  0  0  0  0  0  0  0  0  0  0
  -10.0626    2.9535   -0.7231 C   0  0  0  0  0  0  0  0  0  0  0  0
   -8.8745    2.3030   -1.0857 C   0  0  0  0  0  0  0  0  0  0  0  0
   -8.5634    1.0766   -0.5458 C   0  0  0  0  0  0  0  0  0  0  0  0
   -7.8694   -2.6422    1.3063 C   0  0  0  0  0  0  0  0  0  0  0  0
   -7.0895   -3.6259    0.5216 C   0  0  0  0  0  0  0  0  0  0  0  0
   -6.6883   -3.1058   -0.8330 C   0  0  0  0  0  0  0  0  0  0  0  0
   -5.9966   -1.7345   -0.5688 C   0  0  0  0  0  0  0  0  0  0  0  0
    8.4093    0.9708    0.9790 C   0  0  0  0  0  0  0  0  0  0  0  0
    9.7023    0.6728    0.5503 C   0  0  0  0  0  0  0  0  0  0  0  0
   10.6069    1.5365    0.6722 O   0  0  0  0  0  0  0  0  0  0  0  0
    9.9588   -0.5480    0.0081 C   0  0  0  0  0  0  0  0  0  0  0  0
   11.2224   -0.9109   -0.4387 C   0  0  0  0  0  0  0  0  0  0  0  0
   14.8002   -2.2529   -1.3101 H   0  0  0  0  0  0  0  0  0  0  0  0
   13.9013   -1.0188   -2.2838 H   0  0  0  0  0  0  0  0  0  0  0  0
   13.8689   -0.9860   -0.4854 H   0  0  0  0  0  0  0  0  0  0  0  0
   10.5955   -4.0212   -1.5110 H   0  0  0  0  0  0  0  0  0  0  0  0
    8.3428   -3.4023   -0.7262 H   0  0  0  0  0  0  0  0  0  0  0  0
    6.3479    2.2626    1.9670 H   0  0  0  0  0  0  0  0  0  0  0  0
    4.1990    2.7135    2.7638 H   0  0  0  0  0  0  0  0  0  0  0  0
    3.9641    0.9807    3.0549 H   0  0  0  0  0  0  0  0  0  0  0  0
    3.5327    2.4076    0.3771 H   0  0  0  0  0  0  0  0  0  0  0  0
    3.3337    0.6674    0.6431 H   0  0  0  0  0  0  0  0  0  0  0  0
    1.6576    1.1839    2.4849 H   0  0  0  0  0  0  0  0  0  0  0  0
    1.8349    2.9119    2.1203 H   0  0  0  0  0  0  0  0  0  0  0  0
   -0.1546    2.0749    1.0632 H   0  0  0  0  0  0  0  0  0  0  0  0
    1.0473    2.5964   -0.1768 H   0  0  0  0  0  0  0  0  0  0  0  0
    1.7158    0.1319   -0.4350 H   0  0  0  0  0  0  0  0  0  0  0  0
    0.4607   -0.2606    0.7730 H   0  0  0  0  0  0  0  0  0  0  0  0
   -0.0631    1.1552   -1.8785 H   0  0  0  0  0  0  0  0  0  0  0  0
   -0.2915   -0.5868   -1.6112 H   0  0  0  0  0  0  0  0  0  0  0  0
   -1.9302   -0.0600    0.2265 H   0  0  0  0  0  0  0  0  0  0  0  0
   -1.7554    1.6758   -0.1062 H   0  0  0  0  0  0  0  0  0  0  0  0
   -2.7044   -0.4613   -2.0881 H   0  0  0  0  0  0  0  0  0  0  0  0
   -2.5097    1.2702   -2.4849 H   0  0  0  0  0  0  0  0  0  0  0  0
   -3.9884    1.9489   -0.7031 H   0  0  0  0  0  0  0  0  0  0  0  0
   -4.2020    0.3037   -0.1218 H   0  0  0  0  0  0  0  0  0  0  0  0
   -4.9487   -0.0462   -2.8421 H   0  0  0  0  0  0  0  0  0  0  0  0
   -4.7546    1.6550   -2.7932 H   0  0  0  0  0  0  0  0  0  0  0  0
   -6.8417    1.8862   -2.2196 H   0  0  0  0  0  0  0  0  0  0  0  0
  -11.3396    0.7563    1.4084 H   0  0  0  0  0  0  0  0  0  0  0  0
  -10.2923    3.9057   -1.1511 H   0  0  0  0  0  0  0  0  0  0  0  0
   -8.2524    2.8071   -1.7803 H   0  0  0  0  0  0  0  0  0  0  0  0
   -8.8748   -3.0553    1.5931 H   0  0  0  0  0  0  0  0  0  0  0  0
   -7.3907   -2.3748    2.2876 H   0  0  0  0  0  0  0  0  0  0  0  0
   -7.6676   -4.5707    0.4417 H   0  0  0  0  0  0  0  0  0  0  0  0
   -6.1681   -3.9152    1.1121 H   0  0  0  0  0  0  0  0  0  0  0  0
   -7.5871   -2.9692   -1.4384 H   0  0  0  0  0  0  0  0  0  0  0  0
   -5.9301   -3.7785   -1.2862 H   0  0  0  0  0  0  0  0  0  0  0  0
   -5.3863   -1.9518    0.3533 H   0  0  0  0  0  0  0  0  0  0  0  0
   -5.4230   -1.5802   -1.4506 H   0  0  0  0  0  0  0  0  0  0  0  0
    8.2298    1.9362    1.4024 H   0  0  0  0  0  0  0  0  0  0  0  0
   12.0146   -0.1667   -0.3379 H   0  0  0  0  0  0  0  0  0  0  0  0
  1  2  1  0
  2  3  1  0
  3  4  2  0
  4  5  1  0
  5  6  2  0
  6  7  1  0
  7  8  1  0
  8  9  1  0
  9 10  2  0
  9 11  1  0
 11 12  1  0
 12 13  1  0
 13 14  1  0
 14 15  1  0
 15 16  1  0
 16 17  1  0
 17 18  1  0
 18 19  1  0
 19 20  1  0
 20 21  1  0
 21 22  1  0
 22 23  1  0
 23 24  2  0
 24 25  1  0
 25 26  2  0
 26 27  1  0
 27 28  2  0
 28 29  1  0
 29 30  1  0
 29 31  2  0
 31 32  1  0
 32 33  2  0
 25 34  1  0
 34 35  1  0
 35 36  1  0
 36 37  1  0
  8 38  2  0
 38 39  1  0
 39 40  2  0
 39 41  1  0
 41 42  2  0
 42  3  1  0
 41  6  1  0
 33 23  1  0
 37 24  1  0
 33 27  1  0
  1 43  1  0
  1 44  1  0
  1 45  1  0
  4 46  1  0
  5 47  1  0
 11 48  1  0
 12 49  1  0
 12 50  1  0
 13 51  1  0
 13 52  1  0
 14 53  1  0
 14 54  1  0
 15 55  1  0
 15 56  1  0
 16 57  1  0
 16 58  1  0
 17 59  1  0
 17 60  1  0
 18 61  1  0
 18 62  1  0
 19 63  1  0
 19 64  1  0
 20 65  1  0
 20 66  1  0
 21 67  1  0
 21 68  1  0
 22 69  1  0
 28 70  1  0
 31 71  1  0
 32 72  1  0
 34 73  1  0
 34 74  1  0
 35 75  1  0
 35 76  1  0
 36 77  1  0
 36 78  1  0
 37 79  1  0
 37 80  1  0
 38 81  1  0
 42 82  1  0
M  END
$$$$
