@<TRIPOS>MOLECULE
*****
 82 86 0 0 0
SMALL
GASTEIGER

@<TRIPOS>ATOM
      1 C          13.8585   -1.6484   -1.3626 C.3     1  UNL1        0.0788
      2 O          12.7551   -2.5105   -1.4362 O.3     1  UNL1       -0.4951
      3 C          11.4943   -2.1406   -0.9877 C.ar    1  UNL1        0.1210
      4 C          10.4218   -3.0269   -1.0784 C.ar    1  UNL1       -0.0164
      5 C           9.1754   -2.6945   -0.6478 C.ar    1  UNL1       -0.0152
      6 C           8.9206   -1.4596   -0.1005 C.ar    1  UNL1        0.1397
      7 O           7.7350   -1.1223    0.3178 O.2     1  UNL1       -0.4500
      8 C           7.4145    0.0336    0.8500 C.ar    1  UNL1        0.1934
      9 C           6.0378    0.2824    1.2804 C.2     1  UNL1        0.2795
     10 O           5.1600   -0.6294    1.1435 O.2     1  UNL1       -0.2668
     11 N           5.6236    1.5031    1.8499 N.am    1  UNL1       -0.3088
     12 C           4.2508    1.7409    2.2721 C.3     1  UNL1        0.0120
     13 C           3.2588    1.6375    1.1524 C.3     1  UNL1       -0.0374
     14 C           1.8744    1.8974    1.6530 C.3     1  UNL1       -0.0516
     15 C           0.8184    1.8126    0.6023 C.3     1  UNL1       -0.0530
     16 C           0.7402    0.4705   -0.0423 C.3     1  UNL1       -0.0531
     17 C          -0.3249    0.3845   -1.0998 C.3     1  UNL1       -0.0531
     18 C          -1.6872    0.6656   -0.5593 C.3     1  UNL1       -0.0530
     19 C          -2.7255    0.5562   -1.6646 C.3     1  UNL1       -0.0516
     20 C          -4.0812    0.8715   -1.0160 C.3     1  UNL1       -0.0375
     21 C          -5.1155    0.7601   -2.1008 C.3     1  UNL1        0.0091
     22 N          -6.4600    1.0123   -1.7160 N.pl3   1  UNL1       -0.3431
     23 C          -7.3715    0.3806   -0.8787 C.ar    1  UNL1        0.0413
     24 C          -7.1408   -0.8395   -0.2905 C.ar    1  UNL1       -0.0047
     25 C          -8.0905   -1.3381    0.6150 C.ar    1  UNL1        0.0469
     26 N          -9.2008   -0.6451    0.8994 N.ar    1  UNL1       -0.2512
     27 C          -9.4640    0.5412    0.3477 C.ar    1  UNL1        0.0744
     28 C         -10.6386    1.1740    0.7123 C.ar    1  UNL1       -0.0173
     29 C         -10.9452    2.4006    0.1693 C.ar    1  UNL1        0.0430
     30 CL        -12.4393    3.2120    0.6311 Cl      1  UNL1       -0.0835
     31 C         -10.0626    2.9535   -0.7231 C.ar    1  UNL1       -0.0426
     32 C          -8.8745    2.3030   -1.0857 C.ar    1  UNL1       -0.0494
     33 C          -8.5634    1.0766   -0.5458 C.ar    1  UNL1        0.0216
     34 C          -7.8694   -2.6422    1.3063 C.3     1  UNL1       -0.0101
     35 C          -7.0895   -3.6259    0.5216 C.3     1  UNL1       -0.0473
     36 C          -6.6883   -3.1058   -0.8330 C.3     1  UNL1       -0.0486
     37 C          -5.9966   -1.7345   -0.5688 C.3     1  UNL1       -0.0242
     38 C           8.4093    0.9708    0.9790 C.ar    1  UNL1        0.0333
     39 C           9.7023    0.6728    0.5503 C.ar    1  UNL1        0.1933
     40 O          10.6069    1.5365    0.6722 O.2     1  UNL1       -0.2870
     41 C           9.9588   -0.5480    0.0081 C.ar    1  UNL1        0.0674
     42 C          11.2224   -0.9109   -0.4387 C.ar    1  UNL1       -0.0056
     43 H          14.8002   -2.2529   -1.3101 H       1  UNL1        0.0660
     44 H          13.9013   -1.0188   -2.2838 H       1  UNL1        0.0660
     45 H          13.8689   -0.9860   -0.4854 H       1  UNL1        0.0660
     46 H          10.5955   -4.0212   -1.5110 H       1  UNL1        0.0655
     47 H           8.3428   -3.4023   -0.7262 H       1  UNL1        0.0656
     48 H           6.3479    2.2626    1.9670 H       1  UNL1        0.1491
     49 H           4.1990    2.7135    2.7638 H       1  UNL1        0.0462
     50 H           3.9641    0.9807    3.0549 H       1  UNL1        0.0462
     51 H           3.5327    2.4076    0.3771 H       1  UNL1        0.0280
     52 H           3.3337    0.6674    0.6431 H       1  UNL1        0.0280
     53 H           1.6576    1.1839    2.4849 H       1  UNL1        0.0266
     54 H           1.8349    2.9119    2.1203 H       1  UNL1        0.0266
     55 H          -0.1546    2.0749    1.0632 H       1  UNL1        0.0265
     56 H           1.0473    2.5964   -0.1768 H       1  UNL1        0.0265
     57 H           1.7158    0.1319   -0.4350 H       1  UNL1        0.0265
     58 H           0.4607   -0.2606    0.7730 H       1  UNL1        0.0265
     59 H          -0.0631    1.1552   -1.8785 H       1  UNL1        0.0265
     60 H          -0.2915   -0.5868   -1.6112 H       1  UNL1        0.0265
     61 H          -1.9302   -0.0600    0.2265 H       1  UNL1        0.0265
     62 H          -1.7554    1.6758   -0.1062 H       1  UNL1        0.0265
     63 H          -2.7044   -0.4613   -2.0881 H       1  UNL1        0.0266
     64 H          -2.5097    1.2702   -2.4849 H       1  UNL1        0.0266
     65 H          -3.9884    1.9489   -0.7031 H       1  UNL1        0.0280
     66 H          -4.2020    0.3037   -0.1218 H       1  UNL1        0.0280
     67 H          -4.9487   -0.0462   -2.8421 H       1  UNL1        0.0461
     68 H          -4.7546    1.6550   -2.7932 H       1  UNL1        0.0461
     69 H          -6.8417    1.8862   -2.2196 H       1  UNL1        0.1461
     70 H         -11.3396    0.7563    1.4084 H       1  UNL1        0.0653
     71 H         -10.2923    3.9057   -1.1511 H       1  UNL1        0.0632
     72 H          -8.2524    2.8071   -1.7803 H       1  UNL1        0.0625
     73 H          -8.8748   -3.0553    1.5931 H       1  UNL1        0.0328
     74 H          -7.3907   -2.3748    2.2876 H       1  UNL1        0.0328
     75 H          -7.6676   -4.5707    0.4417 H       1  UNL1        0.0269
     76 H          -6.1681   -3.9152    1.1121 H       1  UNL1        0.0269
     77 H          -7.5871   -2.9692   -1.4384 H       1  UNL1        0.0269
     78 H          -5.9301   -3.7785   -1.2862 H       1  UNL1        0.0269
     79 H          -5.3863   -1.9518    0.3533 H       1  UNL1        0.0314
     80 H          -5.4230   -1.5802   -1.4506 H       1  UNL1        0.0314
     81 H           8.2298    1.9362    1.4024 H       1  UNL1        0.0695
     82 H          12.0146   -0.1667   -0.3379 H       1  UNL1        0.0662
@<TRIPOS>BOND
     1     1     2    1
     2     2     3    1
     3     3     4   ar
     4     4     5   ar
     5     5     6   ar
     6     6     7   ar
     7     7     8   ar
     8     8     9    1
     9     9    10    2
    10     9    11   am
    11    11    12    1
    12    12    13    1
    13    13    14    1
    14    14    15    1
    15    15    16    1
    16    16    17    1
    17    17    18    1
    18    18    19    1
    19    19    20    1
    20    20    21    1
    21    21    22    1
    22    22    23    1
    23    23    24   ar
    24    24    25   ar
    25    25    26   ar
    26    26    27   ar
    27    27    28   ar
    28    28    29   ar
    29    29    30    1
    30    29    31   ar
    31    31    32   ar
    32    32    33   ar
    33    25    34    1
    34    34    35    1
    35    35    36    1
    36    36    37    1
    37     8    38   ar
    38    38    39   ar
    39    39    40    2
    40    39    41   ar
    41    41    42   ar
    42    42     3   ar
    43    41     6   ar
    44    33    23   ar
    45    37    24    1
    46    33    27   ar
    47     1    43    1
    48     1    44    1
    49     1    45    1
    50     4    46    1
    51     5    47    1
    52    11    48    1
    53    12    49    1
    54    12    50    1
    55    13    51    1
    56    13    52    1
    57    14    53    1
    58    14    54    1
    59    15    55    1
    60    15    56    1
    61    16    57    1
    62    16    58    1
    63    17    59    1
    64    17    60    1
    65    18    61    1
    66    18    62    1
    67    19    63    1
    68    19    64    1
    69    20    65    1
    70    20    66    1
    71    21    67    1
    72    21    68    1
    73    22    69    1
    74    28    70    1
    75    31    71    1
    76    32    72    1
    77    34    73    1
    78    34    74    1
    79    35    75    1
    80    35    76    1
    81    36    77    1
    82    36    78    1
    83    37    79    1
    84    37    80    1
    85    38    81    1
    86    42    82    1
