@<TRIPOS>MOLECULE
*****
 41 43 0 0 0
SMALL
GASTEIGER

@<TRIPOS>ATOM
      1 C          -3.3297    0.0144    1.6768 C.3     1  UNL1       -0.0355
      2 C          -3.4285    0.6973    0.3712 C.ar    1  UNL1        0.0031
      3 C          -4.3782    1.6406    0.0474 C.ar    1  UNL1        0.1205
      4 O          -5.2822    1.9205    1.0856 O.3     1  UNL1       -0.5065
      5 C          -4.4204    2.2454   -1.1959 C.ar    1  UNL1       -0.0199
      6 C          -3.4637    1.8589   -2.1002 C.ar    1  UNL1       -0.0576
      7 C          -2.4894    0.9042   -1.7957 C.ar    1  UNL1       -0.0491
      8 C          -2.4681    0.3070   -0.5312 C.ar    1  UNL1        0.0434
      9 C          -1.3879   -0.6476   -0.4210 C.2     1  UNL1        0.2486
     10 O          -1.1024   -1.4689   -1.3595 O.2     1  UNL1       -0.2698
     11 N          -0.5501   -0.7774    0.7055 N.am    1  UNL1       -0.2810
     12 C           0.5230   -1.7020    0.8499 C.ar    1  UNL1        0.0414
     13 C           1.7628   -1.2178    0.4276 C.ar    1  UNL1        0.0041
     14 C           1.9075    0.0729   -0.0874 C.ar    1  UNL1       -0.0374
     15 C           3.1117    0.5913   -0.5147 C.ar    1  UNL1        0.0654
     16 C           4.2299   -0.1974   -0.4317 C.ar    1  UNL1       -0.0463
     17 C           4.0941   -1.4744    0.0768 C.ar    1  UNL1       -0.0532
     18 C           2.8890   -2.0075    0.5098 C.ar    1  UNL1       -0.0161
     19 C           2.7992   -3.3002    1.0155 C.ar    1  UNL1       -0.0539
     20 C           1.5603   -3.7780    1.4353 C.ar    1  UNL1       -0.0594
     21 C           0.4342   -2.9846    1.3523 C.ar    1  UNL1       -0.0399
     22 C           3.1247    1.9560   -1.0300 C.2     1  UNL1        0.3081
     23 N           4.3441    2.6974   -0.8445 N.pl3   1  UNL1       -0.2466
     24 N           2.1602    2.5306   -1.6211 N.2     1  UNL1       -0.0994
     25 H          -4.3605    0.0333    2.1443 H       1  UNL1        0.0279
     26 H          -2.7473    0.7045    2.3490 H       1  UNL1        0.0279
     27 H          -2.9253   -0.9956    1.6195 H       1  UNL1        0.0279
     28 H          -6.1382    1.3949    1.1901 H       1  UNL1        0.2921
     29 H          -5.1954    2.9761   -1.3756 H       1  UNL1        0.0654
     30 H          -3.5093    2.3430   -3.0722 H       1  UNL1        0.0619
     31 H          -1.8045    0.7117   -2.6269 H       1  UNL1        0.0625
     32 H          -0.6793   -0.1743    1.5259 H       1  UNL1        0.1552
     33 H           1.0278    0.6907   -0.1527 H       1  UNL1        0.0633
     34 H           5.1826    0.1945   -0.7638 H       1  UNL1        0.0626
     35 H           4.9692   -2.1381    0.1608 H       1  UNL1        0.0624
     36 H           3.7116   -3.8760    1.0556 H       1  UNL1        0.0624
     37 H           1.4948   -4.7835    1.8285 H       1  UNL1        0.0618
     38 H          -0.5376   -3.3104    1.6628 H       1  UNL1        0.0636
     39 H           5.0195    3.2064   -0.2127 H       1  UNL1        0.2884
     40 H           4.6063    3.0314    0.1171 H       1  UNL1        0.2884
     41 H           1.2455    2.1106   -1.8133 H       1  UNL1        0.3633
@<TRIPOS>BOND
     1     1     2    1
     2     2     3   ar
     3     3     4    1
     4     3     5   ar
     5     5     6   ar
     6     6     7   ar
     7     7     8   ar
     8     8     9    1
     9     9    10    2
    10     9    11   am
    11    11    12    1
    12    12    13   ar
    13    13    14   ar
    14    14    15   ar
    15    15    16   ar
    16    16    17   ar
    17    17    18   ar
    18    18    19   ar
    19    19    20   ar
    20    20    21   ar
    21    15    22    1
    22    22    23    1
    23    22    24    2
    24     8     2   ar
    25    21    12   ar
    26    18    13   ar
    27     1    25    1
    28     1    26    1
    29     1    27    1
    30     4    28    1
    31     5    29    1
    32     6    30    1
    33     7    31    1
    34    11    32    1
    35    14    33    1
    36    16    34    1
    37    17    35    1
    38    19    36    1
    39    20    37    1
    40    21    38    1
    41    23    39    1
    42    23    40    1
    43    24    41    1
