@<TRIPOS>MOLECULE
*****
 51 54 0 0 0
SMALL
GASTEIGER

@<TRIPOS>ATOM
      1 C          -6.2404    3.4340   -1.5190 C.3     1  UNL1       -0.0382
      2 C          -6.4715    2.0769   -0.9719 C.ar    1  UNL1       -0.0306
      3 C          -7.7425    1.6107   -0.7270 C.ar    1  UNL1        0.0306
      4 N          -7.8741    0.3744   -0.2324 N.ar    1  UNL1       -0.2612
      5 C          -6.7980   -0.4388    0.0375 C.ar    1  UNL1        0.0488
      6 C          -5.5321   -0.0192   -0.1888 C.ar    1  UNL1        0.0522
      7 N          -4.3822   -0.7943    0.0624 N.am    1  UNL1       -0.2802
      8 C          -4.3775   -2.0952    0.5761 C.2     1  UNL1        0.2484
      9 O          -5.4541   -2.6981    0.8658 O.2     1  UNL1       -0.2699
     10 C          -3.0944   -2.7932    0.7905 C.ar    1  UNL1        0.0390
     11 C          -3.1435   -4.1006    1.3095 C.ar    1  UNL1       -0.0495
     12 C          -1.9759   -4.7666    1.5168 C.ar    1  UNL1       -0.0590
     13 C          -0.7548   -4.1776    1.2255 C.ar    1  UNL1       -0.0362
     14 C          -0.6919   -2.9097    0.7215 C.ar    1  UNL1        0.0661
     15 N           0.5448   -2.2850    0.4153 N.ar    1  UNL1       -0.2380
     16 C           0.9678   -1.0799    0.8207 C.ar    1  UNL1        0.0525
     17 C           2.2298   -0.8756    0.2854 C.ar    1  UNL1        0.0729
     18 N           3.0015    0.2963    0.4967 N.am    1  UNL1       -0.2665
     19 C           4.2996    0.4799   -0.0674 C.2     1  UNL1        0.3082
     20 O           4.7922   -0.4209   -0.7808 O.2     1  UNL1       -0.2521
     21 N           5.0569    1.6582    0.1544 N.am    1  UNL1       -0.2679
     22 C           6.3376    1.9544   -0.3430 C.ar    1  UNL1        0.0531
     23 C           7.0944    1.1527   -1.1395 C.ar    1  UNL1       -0.0390
     24 C           8.3565    1.5651   -1.5677 C.ar    1  UNL1       -0.0599
     25 C           8.8788    2.7799   -1.2077 C.ar    1  UNL1       -0.0603
     26 C           8.1324    3.5899   -0.4123 C.ar    1  UNL1       -0.0416
     27 C           6.8855    3.1855    0.0123 C.ar    1  UNL1        0.0622
     28 CL          6.0017    4.2990    1.0335 Cl      1  UNL1       -0.0816
     29 C           2.5199   -2.0066   -0.4436 C.ar    1  UNL1        0.0710
     30 N           1.4884   -2.8443   -0.3511 N.ar    1  UNL1       -0.1729
     31 C          -1.8924   -2.2266    0.5090 C.ar    1  UNL1       -0.0241
     32 C          -5.3951    1.2772   -0.7074 C.ar    1  UNL1       -0.0346
     33 H          -5.3301    3.9098   -1.1126 H       1  UNL1        0.0278
     34 H          -6.1982    3.4593   -2.6193 H       1  UNL1        0.0278
     35 H          -7.1090    4.0581   -1.2028 H       1  UNL1        0.0278
     36 H          -8.6017    2.2287   -0.9300 H       1  UNL1        0.0832
     37 H          -7.0537   -1.4092    0.4330 H       1  UNL1        0.0848
     38 H          -3.4389   -0.3271   -0.1672 H       1  UNL1        0.1552
     39 H          -4.0876   -4.5460    1.5307 H       1  UNL1        0.0625
     40 H          -1.9583   -5.7744    1.9141 H       1  UNL1        0.0618
     41 H           0.1600   -4.7468    1.4066 H       1  UNL1        0.0639
     42 H           0.3922   -0.4103    1.4571 H       1  UNL1        0.0850
     43 H           2.6153    1.0583    1.0846 H       1  UNL1        0.1565
     44 H           4.5443    2.3703    0.7808 H       1  UNL1        0.1564
     45 H           6.7427    0.1628   -1.4702 H       1  UNL1        0.0637
     46 H           8.9056    0.8979   -2.1896 H       1  UNL1        0.0618
     47 H           9.8720    3.1144   -1.5396 H       1  UNL1        0.0618
     48 H           8.5613    4.5504   -0.1359 H       1  UNL1        0.0633
     49 H           3.4298   -2.2156   -1.0128 H       1  UNL1        0.0867
     50 H          -1.8210   -1.2281    0.1110 H       1  UNL1        0.0646
     51 H          -4.3920    1.6455   -0.9009 H       1  UNL1        0.0640
@<TRIPOS>BOND
     1     1     2    1
     2     2     3   ar
     3     3     4   ar
     4     4     5   ar
     5     5     6   ar
     6     6     7    1
     7     7     8   am
     8     8     9    2
     9     8    10    1
    10    10    11   ar
    11    11    12   ar
    12    12    13   ar
    13    13    14   ar
    14    14    15    1
    15    15    16   ar
    16    16    17   ar
    17    17    18    1
    18    18    19   am
    19    19    20    2
    20    19    21   am
    21    21    22    1
    22    22    23   ar
    23    23    24   ar
    24    24    25   ar
    25    25    26   ar
    26    26    27   ar
    27    27    28    1
    28    17    29   ar
    29    29    30   ar
    30    14    31   ar
    31     6    32   ar
    32    32     2   ar
    33    31    10   ar
    34    30    15   ar
    35    27    22   ar
    36     1    33    1
    37     1    34    1
    38     1    35    1
    39     3    36    1
    40     5    37    1
    41     7    38    1
    42    11    39    1
    43    12    40    1
    44    13    41    1
    45    16    42    1
    46    18    43    1
    47    21    44    1
    48    23    45    1
    49    24    46    1
    50    25    47    1
    51    26    48    1
    52    29    49    1
    53    31    50    1
    54    32    51    1
