@<TRIPOS>MOLECULE
*****
 68 72 0 0 0
SMALL
GASTEIGER

@<TRIPOS>ATOM
      1 O           3.2474   -3.1941   -0.2457 O.2     1  UNL1       -0.2706
      2 C           3.5461   -1.9436   -0.4344 C.2     1  UNL1        0.2394
      3 C           4.5858   -1.4427    0.4033 C.2     1  UNL1        0.0009
      4 C           5.1320   -0.2601    0.4711 C.2     1  UNL1       -0.0495
      5 C           6.2037    0.0927    1.4002 C.ar    1  UNL1       -0.0195
      6 C           6.7390   -0.7911    2.2973 C.ar    1  UNL1       -0.0191
      7 C           7.7681   -0.4028    3.1691 C.ar    1  UNL1        0.1267
      8 F           8.2745   -1.2872    4.0369 F       1  UNL1       -0.2054
      9 C           8.2682    0.8688    3.1492 C.ar    1  UNL1        0.0088
     10 C           7.7363    1.7700    2.2481 C.ar    1  UNL1        0.1267
     11 F           8.2201    3.0501    2.2087 F       1  UNL1       -0.2054
     12 C           6.7329    1.3846    1.4012 C.ar    1  UNL1       -0.0191
     13 N           2.8041   -1.3137   -1.4172 N.am    1  UNL1       -0.2980
     14 C           1.7947   -2.0766   -2.1667 C.3     1  UNL1        0.0153
     15 C           0.4468   -1.4524   -2.1745 C.3     1  UNL1       -0.0328
     16 C           0.5080    0.0547   -2.4099 C.3     1  UNL1       -0.0204
     17 C           0.0812    0.6985   -1.1363 C.3     1  UNL1        0.0364
     18 C           0.0913    2.2076   -1.1972 C.3     1  UNL1        0.0600
     19 O          -0.2067    2.6609    0.1023 O.3     1  UNL1       -0.3935
     20 N          -1.1675    0.1543   -0.7324 N.3     1  UNL1       -0.2969
     21 C          -2.2784    0.2882   -1.5707 C.3     1  UNL1       -0.0002
     22 C          -3.5855    0.5619   -0.8354 C.3     1  UNL1       -0.0332
     23 C          -3.8050   -0.4450    0.2448 C.3     1  UNL1       -0.0115
     24 C          -4.8644    0.0548    1.1767 C.ar    1  UNL1       -0.0176
     25 C          -4.5848    0.8188    2.2928 C.ar    1  UNL1        0.0076
     26 N          -5.7500    1.0923    2.9020 N.ar    1  UNL1       -0.3456
     27 C          -6.7805    0.5397    2.2327 C.ar    1  UNL1        0.1383
     28 N          -8.1135    0.4986    2.3937 N.ar    1  UNL1       -0.2375
     29 C          -8.9313   -0.1567    1.5338 C.ar    1  UNL1        0.0299
     30 C          -8.3836   -0.8027    0.4602 C.ar    1  UNL1       -0.0429
     31 C          -7.0175   -0.7786    0.2682 C.ar    1  UNL1       -0.0494
     32 C          -6.2166   -0.1100    1.1504 C.ar    1  UNL1        0.0221
     33 C          -2.5697   -0.8581    0.9816 C.3     1  UNL1       -0.0332
     34 C          -1.3668   -0.0186    0.6560 C.3     1  UNL1       -0.0002
     35 C           1.8897    0.3503   -2.8723 C.3     1  UNL1       -0.0328
     36 C           2.9396    0.0742   -1.7735 C.3     1  UNL1        0.0153
     37 H           5.0374   -2.1631    1.1451 H       1  UNL1        0.0670
     38 H           4.8107    0.5441   -0.1837 H       1  UNL1        0.0625
     39 H           6.4076   -1.8152    2.3850 H       1  UNL1        0.0652
     40 H           9.0549    1.2093    3.7984 H       1  UNL1        0.0675
     41 H           6.3090    2.0832    0.6902 H       1  UNL1        0.0652
     42 H           2.1716   -2.2891   -3.1891 H       1  UNL1        0.0465
     43 H           1.7012   -3.0555   -1.6510 H       1  UNL1        0.0465
     44 H          -0.1194   -1.9218   -3.0287 H       1  UNL1        0.0284
     45 H          -0.1055   -1.7232   -1.2627 H       1  UNL1        0.0284
     46 H          -0.1733    0.3109   -3.2576 H       1  UNL1        0.0318
     47 H           0.8142    0.4125   -0.3497 H       1  UNL1        0.0488
     48 H           1.0740    2.5820   -1.4472 H       1  UNL1        0.0573
     49 H          -0.6581    2.6253   -1.8680 H       1  UNL1        0.0573
     50 H           0.5619    2.5376    0.7094 H       1  UNL1        0.2095
     51 H          -2.4463   -0.6833   -2.1136 H       1  UNL1        0.0427
     52 H          -2.1852    1.0686   -2.3461 H       1  UNL1        0.0427
     53 H          -4.4042    0.4594   -1.5907 H       1  UNL1        0.0283
     54 H          -3.6416    1.5909   -0.4603 H       1  UNL1        0.0283
     55 H          -4.2506   -1.3660   -0.2287 H       1  UNL1        0.0350
     56 H          -3.6214    1.1418    2.6239 H       1  UNL1        0.0810
     57 H          -5.8685    1.6461    3.7672 H       1  UNL1        0.1668
     58 H         -10.0153   -0.1627    1.7052 H       1  UNL1        0.0830
     59 H          -9.0220   -1.3342   -0.2389 H       1  UNL1        0.0633
     60 H          -6.5748   -1.2885   -0.5817 H       1  UNL1        0.0625
     61 H          -2.3429   -1.9492    0.8379 H       1  UNL1        0.0283
     62 H          -2.7702   -0.7390    2.0656 H       1  UNL1        0.0283
     63 H          -0.4725   -0.5714    1.0702 H       1  UNL1        0.0427
     64 H          -1.4470    0.9245    1.2475 H       1  UNL1        0.0427
     65 H           2.1444   -0.3413   -3.6977 H       1  UNL1        0.0284
     66 H           2.0227    1.3666   -3.2862 H       1  UNL1        0.0284
     67 H           3.9086    0.2775   -2.2617 H       1  UNL1        0.0465
     68 H           2.7134    0.7358   -0.9086 H       1  UNL1        0.0465
@<TRIPOS>BOND
     1     1     2    2
     2     2     3    1
     3     3     4    2
     4     4     5    1
     5     5     6   ar
     6     6     7   ar
     7     7     8    1
     8     7     9   ar
     9     9    10   ar
    10    10    11    1
    11    10    12   ar
    12     2    13   am
    13    13    14    1
    14    14    15    1
    15    15    16    1
    16    16    17    1
    17    17    18    1
    18    18    19    1
    19    17    20    1
    20    20    21    1
    21    21    22    1
    22    22    23    1
    23    23    24    1
    24    24    25   ar
    25    25    26   ar
    26    26    27   ar
    27    27    28   ar
    28    28    29   ar
    29    29    30   ar
    30    30    31   ar
    31    31    32   ar
    32    23    33    1
    33    33    34    1
    34    16    35    1
    35    35    36    1
    36    12     5   ar
    37    36    13    1
    38    34    20    1
    39    32    24   ar
    40    32    27   ar
    41     3    37    1
    42     4    38    1
    43     6    39    1
    44     9    40    1
    45    12    41    1
    46    14    42    1
    47    14    43    1
    48    15    44    1
    49    15    45    1
    50    16    46    1
    51    17    47    1
    52    18    48    1
    53    18    49    1
    54    19    50    1
    55    21    51    1
    56    21    52    1
    57    22    53    1
    58    22    54    1
    59    23    55    1
    60    25    56    1
    61    26    57    1
    62    29    58    1
    63    30    59    1
    64    31    60    1
    65    33    61    1
    66    33    62    1
    67    34    63    1
    68    34    64    1
    69    35    65    1
    70    35    66    1
    71    36    67    1
    72    36    68    1
