@<TRIPOS>MOLECULE
*****
 47 49 0 0 0
SMALL
GASTEIGER

@<TRIPOS>ATOM
      1 N          -5.5891   -2.6234    0.9608 N.pl3   1  UNL1       -0.3134
      2 C          -4.8525   -1.4185    0.7844 C.2     1  UNL1        0.2766
      3 N          -3.9519   -1.2692   -0.1118 N.2     1  UNL1       -0.2228
      4 C          -3.2014   -0.0495   -0.3014 C.3     1  UNL1        0.1258
      5 C          -3.9449    0.9314   -1.1650 C.3     1  UNL1        0.1196
      6 F          -5.1747    1.3008   -0.6651 F       1  UNL1       -0.2462
      7 C          -1.9612   -0.4374   -1.0240 C.ar    1  UNL1        0.0196
      8 C          -0.7080   -0.1797   -0.5969 C.ar    1  UNL1       -0.0322
      9 C           0.4615   -0.5162   -1.3067 C.ar    1  UNL1        0.0342
     10 N           1.7175   -0.1916   -0.7497 N.am    1  UNL1       -0.2802
     11 C           2.9873   -0.4384   -1.2993 C.2     1  UNL1        0.2680
     12 O           3.0823   -1.0066   -2.4048 O.2     1  UNL1       -0.2681
     13 C           4.2166   -0.0428   -0.6028 C.ar    1  UNL1        0.1439
     14 N           4.1710    0.5678    0.5820 N.ar    1  UNL1       -0.2483
     15 C           5.3126    0.9112    1.1823 C.ar    1  UNL1        0.0402
     16 C           6.5595    0.6721    0.6487 C.ar    1  UNL1        0.0743
     17 C           7.8125    1.0745    1.3569 C.3     1  UNL1        0.4189
     18 F           8.7407    1.5827    0.4870 F       1  UNL1       -0.1658
     19 F           8.3194   -0.0685    1.9511 F       1  UNL1       -0.1658
     20 F           7.4412    2.0189    2.3069 F       1  UNL1       -0.1658
     21 C           6.6123    0.0360   -0.5859 C.ar    1  UNL1       -0.0280
     22 C           5.4273   -0.3016   -1.1725 C.ar    1  UNL1        0.0719
     23 CL          5.5057   -1.1103   -2.7427 Cl      1  UNL1       -0.0812
     24 C           0.2924   -1.1469   -2.5102 C.ar    1  UNL1       -0.0377
     25 C          -1.0012   -1.4318   -2.9875 C.ar    1  UNL1       -0.0243
     26 C          -2.1017   -1.0740   -2.2390 C.ar    1  UNL1        0.1291
     27 F          -3.3175   -1.4143   -2.7736 F       1  UNL1       -0.2051
     28 C          -2.8538    0.5092    1.0653 C.3     1  UNL1        0.0251
     29 C          -3.9345    0.4367    2.0763 C.3     1  UNL1        0.1998
     30 C          -4.3597    1.7286    2.6995 C.3     1  UNL1        0.4266
     31 F          -3.2832    2.3403    3.3683 F       1  UNL1       -0.1669
     32 F          -5.2704    1.4605    3.7338 F       1  UNL1       -0.1669
     33 F          -4.8502    2.6755    1.8661 F       1  UNL1       -0.1669
     34 O          -5.0730   -0.3008    1.6004 O.2     1  UNL1       -0.4534
     35 H          -6.5117   -2.5790    1.4648 H       1  UNL1        0.1466
     36 H          -5.2419   -3.5232    0.6102 H       1  UNL1        0.1466
     37 H          -4.1380    0.5153   -2.1651 H       1  UNL1        0.0643
     38 H          -3.2963    1.8238   -1.3526 H       1  UNL1        0.0643
     39 H          -0.5621    0.3220    0.3336 H       1  UNL1        0.0640
     40 H           1.7148    0.3013    0.2050 H       1  UNL1        0.1552
     41 H           5.2770    1.4108    2.1516 H       1  UNL1        0.0835
     42 H           7.5830   -0.1567   -1.0139 H       1  UNL1        0.0639
     43 H           1.1402   -1.4342   -3.1085 H       1  UNL1        0.0637
     44 H          -1.0640   -1.9280   -3.9385 H       1  UNL1        0.0647
     45 H          -2.4922    1.5319    0.9659 H       1  UNL1        0.0331
     46 H          -2.0479   -0.2003    1.4435 H       1  UNL1        0.0331
     47 H          -3.5918   -0.1935    2.9733 H       1  UNL1        0.0826
@<TRIPOS>BOND
     1     1     2    1
     2     2     3    2
     3     3     4    1
     4     4     5    1
     5     5     6    1
     6     4     7    1
     7     7     8   ar
     8     8     9   ar
     9     9    10    1
    10    10    11   am
    11    11    12    2
    12    11    13    1
    13    13    14   ar
    14    14    15   ar
    15    15    16   ar
    16    16    17    1
    17    17    18    1
    18    17    19    1
    19    17    20    1
    20    16    21   ar
    21    21    22   ar
    22    22    23    1
    23     9    24   ar
    24    24    25   ar
    25    25    26   ar
    26    26    27    1
    27     4    28    1
    28    28    29    1
    29    29    30    1
    30    30    31    1
    31    30    32    1
    32    30    33    1
    33    29    34    1
    34    34     2    1
    35    26     7   ar
    36    22    13   ar
    37     1    35    1
    38     1    36    1
    39     5    37    1
    40     5    38    1
    41     8    39    1
    42    10    40    1
    43    15    41    1
    44    21    42    1
    45    24    43    1
    46    25    44    1
    47    28    45    1
    48    28    46    1
    49    29    47    1
