
     RDKit          3D

 47 49  0  0  0  0  0  0  0  0999 V2000
   -5.5891   -2.6234    0.9608 N   0  0  0  0  0  0  0  0  0  0  0  0
   -4.8525   -1.4185    0.7844 C   0  0  0  0  0  0  0  0  0  0  0  0
   -3.9519   -1.2692   -0.1118 N   0  0  0  0  0  0  0  0  0  0  0  0
   -3.2014   -0.0495   -0.3014 C   0  0  2  0  0  0  0  0  0  0  0  0
   -3.9449    0.9314   -1.1650 C   0  0  0  0  0  0  0  0  0  0  0  0
   -5.1747    1.3008   -0.6651 F   0  0  0  0  0  0  0  0  0  0  0  0
   -1.9612   -0.4374   -1.0240 C   0  0  0  0  0  0  0  0  0  0  0  0
   -0.7080   -0.1797   -0.5969 C   0  0  0  0  0  0  0  0  0  0  0  0
    0.4615   -0.5162   -1.3067 C   0  0  0  0  0  0  0  0  0  0  0  0
    1.7175   -0.1916   -0.7497 N   0  0  0  0  0  0  0  0  0  0  0  0
    2.9873   -0.4384   -1.2993 C   0  0  0  0  0  0  0  0  0  0  0  0
    3.0823   -1.0066   -2.4048 O   0  0  0  0  0  0  0  0  0  0  0  0
    4.2166   -0.0428   -0.6028 C   0  0  0  0  0  0  0  0  0  0  0  0
    4.1710    0.5678    0.5820 N   0  0  0  0  0  0  0  0  0  0  0  0
    5.3126    0.9112    1.1823 C   0  0  0  0  0  0  0  0  0  0  0  0
    6.5595    0.6721    0.6487 C   0  0  0  0  0  0  0  0  0  0  0  0
    7.8125    1.0745    1.3569 C   0  0  0  0  0  0  0  0  0  0  0  0
    8.7407    1.5827    0.4870 F   0  0  0  0  0  0  0  0  0  0  0  0
    8.3194   -0.0685    1.9511 F   0  0  0  0  0  0  0  0  0  0  0  0
    7.4412    2.0189    2.3069 F   0  0  0  0  0  0  0  0  0  0  0  0
    6.6123    0.0360   -0.5859 C   0  0  0  0  0  0  0  0  0  0  0  0
    5.4273   -0.3016   -1.1725 C   0  0  0  0  0  0  0  0  0  0  0  0
    5.5057   -1.1103   -2.7427 Cl  0  0  0  0  0  0  0  0  0  0  0  0
    0.2924   -1.1469   -2.5102 C   0  0  0  0  0  0  0  0  0  0  0  0
   -1.0012   -1.4318   -2.9875 C   0  0  0  0  0  0  0  0  0  0  0  0
   -2.1017   -1.0740   -2.2390 C   0  0  0  0  0  0  0  0  0  0  0  0
   -3.3175   -1.4143   -2.7736 F   0  0  0  0  0  0  0  0  0  0  0  0
   -2.8538    0.5092    1.0653 C   0  0  0  0  0  0  0  0  0  0  0  0
   -3.9345    0.4367    2.0763 C   0  0  1  0  0  0  0  0  0  0  0  0
   -4.3597    1.7286    2.6995 C   0  0  0  0  0  0  0  0  0  0  0  0
   -3.2832    2.3403    3.3683 F   0  0  0  0  0  0  0  0  0  0  0  0
   -5.2704    1.4605    3.7338 F   0  0  0  0  0  0  0  0  0  0  0  0
   -4.8502    2.6755    1.8661 F   0  0  0  0  0  0  0  0  0  0  0  0
   -5.0730   -0.3008    1.6004 O   0  0  0  0  0  0  0  0  0  0  0  0
   -6.5117   -2.5790    1.4648 H   0  0  0  0  0  0  0  0  0  0  0  0
   -5.2419   -3.5232    0.6102 H   0  0  0  0  0  0  0  0  0  0  0  0
   -4.1380    0.5153   -2.1651 H   0  0  0  0  0  0  0  0  0  0  0  0
   -3.2963    1.8238   -1.3526 H   0  0  0  0  0  0  0  0  0  0  0  0
   -0.5621    0.3220    0.3336 H   0  0  0  0  0  0  0  0  0  0  0  0
    1.7148    0.3013    0.2050 H   0  0  0  0  0  0  0  0  0  0  0  0
    5.2770    1.4108    2.1516 H   0  0  0  0  0  0  0  0  0  0  0  0
    7.5830   -0.1567   -1.0139 H   0  0  0  0  0  0  0  0  0  0  0  0
    1.1402   -1.4342   -3.1085 H   0  0  0  0  0  0  0  0  0  0  0  0
   -1.0640   -1.9280   -3.9385 H   0  0  0  0  0  0  0  0  0  0  0  0
   -2.4922    1.5319    0.9659 H   0  0  0  0  0  0  0  0  0  0  0  0
   -2.0479   -0.2003    1.4435 H   0  0  0  0  0  0  0  0  0  0  0  0
   -3.5918   -0.1935    2.9733 H   0  0  0  0  0  0  0  0  0  0  0  0
  1  2  1  0
  2  3  2  0
  3  4  1  0
  4  5  1  6
  5  6  1  0
  4  7  1  0
  7  8  2  0
  8  9  1  0
  9 10  1  0
 10 11  1  0
 11 12  2  0
 11 13  1  0
 13 14  2  0
 14 15  1  0
 15 16  2  0
 16 17  1  0
 17 18  1  0
 17 19  1  0
 17 20  1  0
 16 21  1  0
 21 22  2  0
 22 23  1  0
  9 24  2  0
 24 25  1  0
 25 26  2  0
 26 27  1  0
  4 28  1  0
 28 29  1  0
 29 30  1  0
 30 31  1  0
 30 32  1  0
 30 33  1  0
 29 34  1  0
 34  2  1  0
 26  7  1  0
 22 13  1  0
  1 35  1  0
  1 36  1  0
  5 37  1  0
  5 38  1  0
  8 39  1  0
 10 40  1  0
 15 41  1  0
 21 42  1  0
 24 43  1  0
 25 44  1  0
 28 45  1  0
 28 46  1  0
 29 47  1  1
M  END
$$$$
