
     RDKit          3D

 54 58  0  0  0  0  0  0  0  0999 V2000
    7.1825   -0.1290    0.8301 C   0  0  0  0  0  0  0  0  0  0  0  0
    5.8716   -0.2669   -0.3627 S   0  0  0  0  0  6  0  0  0  0  0  0
    6.3626    0.3335   -1.6494 O   0  0  0  0  0  0  0  0  0  0  0  0
    5.6026   -1.7381   -0.5606 O   0  0  0  0  0  0  0  0  0  0  0  0
    4.4484    0.4980    0.0976 N   0  0  0  0  0  0  0  0  0  0  0  0
    3.8187    0.0248    1.2786 C   0  0  0  0  0  0  0  0  0  0  0  0
    2.7285   -0.9068    0.7917 C   0  0  0  0  0  0  0  0  0  0  0  0
    2.8093   -2.1879    1.2191 C   0  0  0  0  0  0  0  0  0  0  0  0
    1.8773   -3.1143    0.7496 C   0  0  0  0  0  0  0  0  0  0  0  0
    1.9923   -4.7495    1.3076 Cl  0  0  0  0  0  0  0  0  0  0  0  0
    0.8832   -2.7085   -0.1496 C   0  0  0  0  0  0  0  0  0  0  0  0
    0.7919   -1.3956   -0.5953 C   0  0  0  0  0  0  0  0  0  0  0  0
    1.7311   -0.5428   -0.0927 C   0  0  0  0  0  0  0  0  0  0  0  0
    1.5157    0.7856   -0.5625 N   0  0  0  0  0  0  0  0  0  0  0  0
    2.5016    1.6997   -0.8342 C   0  0  0  0  0  0  0  0  0  0  0  0
    1.8191    2.7740   -1.2553 N   0  0  0  0  0  0  0  0  0  0  0  0
    0.5321    2.5359   -1.2384 N   0  0  0  0  0  0  0  0  0  0  0  0
    0.3023    1.2579   -0.7921 C   0  0  0  0  0  0  0  0  0  0  0  0
   -0.9924    0.7467   -0.5945 C   0  0  0  0  0  0  0  0  0  0  0  0
   -1.7599    0.9316   -1.9247 C   0  0  0  0  0  0  0  0  0  0  0  0
   -3.0677    0.1969   -1.7872 C   0  0  0  0  0  0  0  0  0  0  0  0
   -3.7164    0.6453   -0.5900 N   0  0  0  0  0  0  0  0  0  0  0  0
   -4.9261   -0.0056   -0.2038 C   0  0  0  0  0  0  0  0  0  0  0  0
   -5.7657    0.5126    0.7471 C   0  0  0  0  0  0  0  0  0  0  0  0
   -6.9092   -0.1775    1.0753 C   0  0  0  0  0  0  0  0  0  0  0  0
   -7.2129   -1.3720    0.4614 C   0  0  0  0  0  0  0  0  0  0  0  0
   -6.3564   -1.8731   -0.4901 C   0  0  0  0  0  0  0  0  0  0  0  0
   -5.2541   -1.1890   -0.7932 N   0  0  0  0  0  0  0  0  0  0  0  0
   -3.1909    1.7025    0.2059 C   0  0  0  0  0  0  0  0  0  0  0  0
   -1.7216    1.7921    0.3304 C   0  0  0  0  0  0  0  0  0  0  0  0
    3.9662    1.5463   -0.6559 C   0  0  0  0  0  0  0  0  0  0  0  0
    8.1411   -0.2165    0.2773 H   0  0  0  0  0  0  0  0  0  0  0  0
    7.2008    0.8666    1.3173 H   0  0  0  0  0  0  0  0  0  0  0  0
    7.1690   -0.9578    1.5702 H   0  0  0  0  0  0  0  0  0  0  0  0
    4.4824   -0.5457    1.9240 H   0  0  0  0  0  0  0  0  0  0  0  0
    3.3019    0.8198    1.8536 H   0  0  0  0  0  0  0  0  0  0  0  0
    3.5822   -2.4868    1.9112 H   0  0  0  0  0  0  0  0  0  0  0  0
    0.1769   -3.4751   -0.4883 H   0  0  0  0  0  0  0  0  0  0  0  0
    0.0831   -1.1343   -1.3225 H   0  0  0  0  0  0  0  0  0  0  0  0
   -1.3440   -0.1349   -0.1816 H   0  0  0  0  0  0  0  0  0  0  0  0
   -1.1311    0.4816   -2.7413 H   0  0  0  0  0  0  0  0  0  0  0  0
   -1.8808    1.9873   -2.1629 H   0  0  0  0  0  0  0  0  0  0  0  0
   -2.8307   -0.8947   -1.6915 H   0  0  0  0  0  0  0  0  0  0  0  0
   -3.6999    0.3555   -2.7002 H   0  0  0  0  0  0  0  0  0  0  0  0
   -5.5490    1.4659    1.2446 H   0  0  0  0  0  0  0  0  0  0  0  0
   -7.5617    0.2456    1.8290 H   0  0  0  0  0  0  0  0  0  0  0  0
   -8.1169   -1.8790    0.7476 H   0  0  0  0  0  0  0  0  0  0  0  0
   -6.6044   -2.8035   -0.9604 H   0  0  0  0  0  0  0  0  0  0  0  0
   -3.6124    2.6992   -0.0799 H   0  0  0  0  0  0  0  0  0  0  0  0
   -3.5868    1.5417    1.2488 H   0  0  0  0  0  0  0  0  0  0  0  0
   -1.4037    1.6483    1.3589 H   0  0  0  0  0  0  0  0  0  0  0  0
   -1.3820    2.8032    0.0273 H   0  0  0  0  0  0  0  0  0  0  0  0
    4.3438    2.5661   -0.3783 H   0  0  0  0  0  0  0  0  0  0  0  0
    4.3587    1.4207   -1.7162 H   0  0  0  0  0  0  0  0  0  0  0  0
  1  2  1  0
  2  3  2  0
  2  4  2  0
  2  5  1  0
  5  6  1  0
  6  7  1  0
  7  8  2  0
  8  9  1  0
  9 10  1  0
  9 11  2  0
 11 12  1  0
 12 13  2  0
 13 14  1  0
 14 15  1  0
 15 16  2  0
 16 17  1  0
 17 18  2  0
 18 19  1  0
 19 20  1  0
 20 21  1  0
 21 22  1  0
 22 23  1  0
 23 24  2  0
 24 25  1  0
 25 26  2  0
 26 27  1  0
 27 28  2  0
 22 29  1  0
 29 30  1  0
 15 31  1  0
 31  5  1  0
 13  7  1  0
 18 14  1  0
 30 19  1  0
 28 23  1  0
  1 32  1  0
  1 33  1  0
  1 34  1  0
  6 35  1  0
  6 36  1  0
  8 37  1  0
 11 38  1  0
 12 39  1  0
 19 40  1  0
 20 41  1  0
 20 42  1  0
 21 43  1  0
 21 44  1  0
 24 45  1  0
 25 46  1  0
 26 47  1  0
 27 48  1  0
 29 49  1  0
 29 50  1  0
 30 51  1  0
 30 52  1  0
 31 53  1  0
 31 54  1  0
M  END
$$$$
