@<TRIPOS>MOLECULE
*****
 54 58 0 0 0
SMALL
GASTEIGER

@<TRIPOS>ATOM
      1 C           7.1825   -0.1290    0.8301 C.3     1  UNL1        0.0707
      2 S           5.8716   -0.2669   -0.3627 S.O2    1  UNL1        0.0296
      3 O           6.3626    0.3335   -1.6494 O.2     1  UNL1       -0.1583
      4 O           5.6026   -1.7381   -0.5606 O.2     1  UNL1       -0.1583
      5 N           4.4484    0.4980    0.0976 N.3     1  UNL1       -0.1697
      6 C           3.8187    0.0248    1.2786 C.3     1  UNL1        0.0476
      7 C           2.7285   -0.9068    0.7917 C.ar    1  UNL1       -0.0064
      8 C           2.8093   -2.1879    1.2191 C.ar    1  UNL1       -0.0370
      9 C           1.8773   -3.1143    0.7496 C.ar    1  UNL1        0.0414
     10 CL          1.9923   -4.7495    1.3076 Cl      1  UNL1       -0.0835
     11 C           0.8832   -2.7085   -0.1496 C.ar    1  UNL1       -0.0414
     12 C           0.7919   -1.3956   -0.5953 C.ar    1  UNL1       -0.0361
     13 C           1.7311   -0.5428   -0.0927 C.ar    1  UNL1        0.0540
     14 N           1.5157    0.7856   -0.5625 N.ar    1  UNL1       -0.2814
     15 C           2.5016    1.6997   -0.8342 C.ar    1  UNL1        0.1538
     16 N           1.8191    2.7740   -1.2553 N.ar    1  UNL1       -0.1326
     17 N           0.5321    2.5359   -1.2384 N.ar    1  UNL1       -0.1337
     18 C           0.3023    1.2579   -0.7921 C.ar    1  UNL1        0.1412
     19 C          -0.9924    0.7467   -0.5945 C.3     1  UNL1        0.0223
     20 C          -1.7599    0.9316   -1.9247 C.3     1  UNL1       -0.0274
     21 C          -3.0677    0.1969   -1.7872 C.3     1  UNL1        0.0141
     22 N          -3.7164    0.6453   -0.5900 N.pl3   1  UNL1       -0.3151
     23 C          -4.9261   -0.0056   -0.2038 C.ar    1  UNL1        0.1212
     24 C          -5.7657    0.5126    0.7471 C.ar    1  UNL1       -0.0217
     25 C          -6.9092   -0.1775    1.0753 C.ar    1  UNL1       -0.0571
     26 C          -7.2129   -1.3720    0.4614 C.ar    1  UNL1       -0.0435
     27 C          -6.3564   -1.8731   -0.4901 C.ar    1  UNL1        0.0297
     28 N          -5.2541   -1.1890   -0.7932 N.ar    1  UNL1       -0.2403
     29 C          -3.1909    1.7025    0.2059 C.3     1  UNL1        0.0141
     30 C          -1.7216    1.7921    0.3304 C.3     1  UNL1       -0.0274
     31 C           3.9662    1.5463   -0.6559 C.3     1  UNL1        0.0807
     32 H           8.1411   -0.2165    0.2773 H       1  UNL1        0.0479
     33 H           7.2008    0.8666    1.3173 H       1  UNL1        0.0479
     34 H           7.1690   -0.9578    1.5702 H       1  UNL1        0.0479
     35 H           4.4824   -0.5457    1.9240 H       1  UNL1        0.0494
     36 H           3.3019    0.8198    1.8536 H       1  UNL1        0.0494
     37 H           3.5822   -2.4868    1.9112 H       1  UNL1        0.0636
     38 H           0.1769   -3.4751   -0.4883 H       1  UNL1        0.0633
     39 H           0.0831   -1.1343   -1.3225 H       1  UNL1        0.0639
     40 H          -1.3440   -0.1349   -0.1816 H       1  UNL1        0.0381
     41 H          -1.1311    0.4816   -2.7413 H       1  UNL1        0.0287
     42 H          -1.8808    1.9873   -2.1629 H       1  UNL1        0.0287
     43 H          -2.8307   -0.8947   -1.6915 H       1  UNL1        0.0464
     44 H          -3.6999    0.3555   -2.7002 H       1  UNL1        0.0464
     45 H          -5.5490    1.4659    1.2446 H       1  UNL1        0.0652
     46 H          -7.5617    0.2456    1.8290 H       1  UNL1        0.0619
     47 H          -8.1169   -1.8790    0.7476 H       1  UNL1        0.0633
     48 H          -6.6044   -2.8035   -0.9604 H       1  UNL1        0.0830
     49 H          -3.6124    2.6992   -0.0799 H       1  UNL1        0.0464
     50 H          -3.5868    1.5417    1.2488 H       1  UNL1        0.0464
     51 H          -1.4037    1.6483    1.3589 H       1  UNL1        0.0287
     52 H          -1.3820    2.8032    0.0273 H       1  UNL1        0.0287
     53 H           4.3438    2.5661   -0.3783 H       1  UNL1        0.0525
     54 H           4.3587    1.4207   -1.7162 H       1  UNL1        0.0525
@<TRIPOS>BOND
     1     1     2    1
     2     2     3    2
     3     2     4    2
     4     2     5    1
     5     5     6    1
     6     6     7    1
     7     7     8   ar
     8     8     9   ar
     9     9    10    1
    10     9    11   ar
    11    11    12   ar
    12    12    13   ar
    13    13    14    1
    14    14    15   ar
    15    15    16   ar
    16    16    17   ar
    17    17    18   ar
    18    18    19    1
    19    19    20    1
    20    20    21    1
    21    21    22    1
    22    22    23    1
    23    23    24   ar
    24    24    25   ar
    25    25    26   ar
    26    26    27   ar
    27    27    28   ar
    28    22    29    1
    29    29    30    1
    30    15    31    1
    31    31     5    1
    32    13     7   ar
    33    18    14   ar
    34    30    19    1
    35    28    23   ar
    36     1    32    1
    37     1    33    1
    38     1    34    1
    39     6    35    1
    40     6    36    1
    41     8    37    1
    42    11    38    1
    43    12    39    1
    44    19    40    1
    45    20    41    1
    46    20    42    1
    47    21    43    1
    48    21    44    1
    49    24    45    1
    50    25    46    1
    51    26    47    1
    52    27    48    1
    53    29    49    1
    54    29    50    1
    55    30    51    1
    56    30    52    1
    57    31    53    1
    58    31    54    1
