@<TRIPOS>MOLECULE
*****
 49 51 0 0 0
SMALL
GASTEIGER

@<TRIPOS>ATOM
      1 C          -3.5282   -2.9543    1.2269 C.3     1  UNL1        0.0788
      2 O          -3.5836   -1.5625    1.4041 O.3     1  UNL1       -0.4945
      3 C          -2.7176   -0.7736    0.6220 C.ar    1  UNL1        0.1281
      4 C          -1.8529   -1.3586   -0.2799 C.ar    1  UNL1       -0.0150
      5 C          -0.9877   -0.6371   -1.0670 C.ar    1  UNL1       -0.0293
      6 C          -0.0448   -1.2355   -2.0474 C.3     1  UNL1        0.0432
      7 C          -0.4122   -0.7622   -3.4535 C.3     1  UNL1       -0.0474
      8 C           1.3444   -0.9208   -1.7360 C.1     1  UNL1       -0.0890
      9 C           2.5011   -0.6503   -1.4895 C.1     1  UNL1       -0.0605
     10 C           3.8673   -0.3115   -1.2144 C.ar    1  UNL1        0.0855
     11 C           4.8757   -0.5156   -2.1508 C.ar    1  UNL1        0.0605
     12 C           4.4749   -1.1066   -3.4653 C.3     1  UNL1       -0.0209
     13 N           6.1494   -0.1913   -1.8729 N.ar    1  UNL1       -0.2186
     14 C           6.4116    0.3361   -0.6599 C.ar    1  UNL1        0.2145
     15 N           7.7584    0.6913   -0.3364 N.pl3   1  UNL1       -0.3274
     16 N           5.4716    0.5514    0.2758 N.ar    1  UNL1       -0.1989
     17 C           4.1854    0.2307    0.0121 C.ar    1  UNL1        0.1370
     18 N           3.1422    0.4280    0.9454 N.pl3   1  UNL1       -0.3420
     19 C          -0.9894    0.7337   -0.9441 C.ar    1  UNL1       -0.0566
     20 C          -1.8591    1.3225   -0.0369 C.ar    1  UNL1       -0.0502
     21 C          -2.7289    0.6112    0.7556 C.ar    1  UNL1        0.0238
     22 C          -3.6129    1.2675    1.6827 C.ar    1  UNL1       -0.0144
     23 C          -4.3216    2.4006    1.2725 C.ar    1  UNL1       -0.0539
     24 C          -5.1729    3.0438    2.1426 C.ar    1  UNL1       -0.0612
     25 C          -5.3070    2.5483    3.4127 C.ar    1  UNL1       -0.0617
     26 C          -4.6057    1.4270    3.8188 C.ar    1  UNL1       -0.0612
     27 C          -3.7454    0.7644    2.9634 C.ar    1  UNL1       -0.0539
     28 H          -3.7182   -3.1423    0.1372 H       1  UNL1        0.0660
     29 H          -2.5036   -3.3457    1.4382 H       1  UNL1        0.0660
     30 H          -4.2368   -3.5016    1.8624 H       1  UNL1        0.0660
     31 H          -1.8265   -2.4410   -0.4017 H       1  UNL1        0.0657
     32 H          -0.1332   -2.3512   -2.0660 H       1  UNL1        0.0479
     33 H          -0.3190   -1.5705   -4.1924 H       1  UNL1        0.0245
     34 H           0.3052    0.0465   -3.7096 H       1  UNL1        0.0245
     35 H          -1.4478   -0.3581   -3.4787 H       1  UNL1        0.0245
     36 H           4.5932   -2.2084   -3.4797 H       1  UNL1        0.0293
     37 H           3.4237   -0.8515   -3.6799 H       1  UNL1        0.0293
     38 H           5.1184   -0.7005   -4.2492 H       1  UNL1        0.0293
     39 H           8.4198   -0.0444   -0.0353 H       1  UNL1        0.1452
     40 H           8.0528    1.6936   -0.4101 H       1  UNL1        0.1452
     41 H           2.3350   -0.2294    0.9491 H       1  UNL1        0.1437
     42 H           3.1378    1.2135    1.6452 H       1  UNL1        0.1437
     43 H          -0.3167    1.3278   -1.5530 H       1  UNL1        0.0621
     44 H          -1.7974    2.4184   -0.0005 H       1  UNL1        0.0625
     45 H          -4.2111    2.7828    0.2759 H       1  UNL1        0.0624
     46 H          -5.7118    3.9197    1.8027 H       1  UNL1        0.0618
     47 H          -5.9864    3.0627    4.1052 H       1  UNL1        0.0618
     48 H          -4.7010    1.0180    4.8295 H       1  UNL1        0.0618
     49 H          -3.1883   -0.1151    3.2645 H       1  UNL1        0.0624
@<TRIPOS>BOND
     1     1     2    1
     2     2     3    1
     3     3     4   ar
     4     4     5   ar
     5     5     6    1
     6     6     7    1
     7     6     8    1
     8     8     9    3
     9     9    10    1
    10    10    11   ar
    11    11    12    1
    12    11    13   ar
    13    13    14   ar
    14    14    15    1
    15    14    16   ar
    16    16    17   ar
    17    17    18    1
    18     5    19   ar
    19    19    20   ar
    20    20    21   ar
    21    21    22    1
    22    22    23   ar
    23    23    24   ar
    24    24    25   ar
    25    25    26   ar
    26    26    27   ar
    27    21     3   ar
    28    27    22   ar
    29    17    10   ar
    30     1    28    1
    31     1    29    1
    32     1    30    1
    33     4    31    1
    34     6    32    1
    35     7    33    1
    36     7    34    1
    37     7    35    1
    38    12    36    1
    39    12    37    1
    40    12    38    1
    41    15    39    1
    42    15    40    1
    43    18    41    1
    44    18    42    1
    45    19    43    1
    46    20    44    1
    47    23    45    1
    48    24    46    1
    49    25    47    1
    50    26    48    1
    51    27    49    1
