@<TRIPOS>MOLECULE
*****
 32 31 0 0 0
SMALL
GASTEIGER

@<TRIPOS>ATOM
      1 C          -3.2912    1.0097    1.2844 C.3     1  UNL1       -0.0254
      2 C          -2.6603   -0.1967    0.5901 C.3     1  UNL1        0.1052
      3 C          -3.5751   -0.5375   -0.5696 C.3     1  UNL1       -0.0254
      4 C          -2.7131   -1.3093    1.6072 C.3     1  UNL1       -0.0254
      5 O          -1.3782    0.1741    0.2116 O.3     1  UNL1       -0.4578
      6 C          -0.4576   -0.6385   -0.4545 C.2     1  UNL1        0.3246
      7 O          -0.8801   -1.7874   -0.7050 O.2     1  UNL1       -0.2491
      8 C           0.9026   -0.2082   -0.8426 C.3     1  UNL1        0.1039
      9 N           1.0606    1.1508   -0.4108 N.3     1  UNL1       -0.3184
     10 C           1.9926   -1.1161   -0.3417 C.3     1  UNL1       -0.0191
     11 C           3.3505   -0.6155   -0.7752 C.3     1  UNL1        0.0257
     12 C           3.5640    0.7485   -0.2222 C.2     1  UNL1        0.2105
     13 N           4.8505    1.1789   -0.6535 N.am    1  UNL1       -0.3293
     14 O           3.6095    1.8836    0.3036 O.2     1  UNL1       -0.2760
     15 H          -4.0958    0.6745    1.9946 H       1  UNL1        0.0268
     16 H          -3.7027    1.7329    0.5543 H       1  UNL1        0.0268
     17 H          -2.4908    1.4759    1.8912 H       1  UNL1        0.0268
     18 H          -4.3832   -1.2063   -0.1516 H       1  UNL1        0.0268
     19 H          -3.0542   -1.0234   -1.4059 H       1  UNL1        0.0268
     20 H          -4.1365    0.3692   -0.9091 H       1  UNL1        0.0268
     21 H          -2.5613   -0.9301    2.6335 H       1  UNL1        0.0268
     22 H          -2.0295   -2.1366    1.4318 H       1  UNL1        0.0268
     23 H          -3.7438   -1.7291    1.5799 H       1  UNL1        0.0268
     24 H           0.9259   -0.2478   -1.9575 H       1  UNL1        0.0574
     25 H           1.1802    1.8528   -1.1533 H       1  UNL1        0.1190
     26 H           0.4990    1.4221    0.4060 H       1  UNL1        0.1190
     27 H           1.8370   -2.1187   -0.7920 H       1  UNL1        0.0290
     28 H           2.0223   -1.2035    0.7510 H       1  UNL1        0.0290
     29 H           4.1361   -1.2685   -0.3435 H       1  UNL1        0.0359
     30 H           3.4923   -0.6318   -1.8758 H       1  UNL1        0.0359
     31 H           5.8789    1.3552   -0.7942 H       1  UNL1        0.1449
     32 H           5.8513    1.4254   -0.8814 H       1  UNL1        0.1449
@<TRIPOS>BOND
     1     1     2    1
     2     2     3    1
     3     2     4    1
     4     2     5    1
     5     5     6    1
     6     6     7    2
     7     6     8    1
     8     8     9    1
     9     8    10    1
    10    10    11    1
    11    11    12    1
    12    12    13   am
    13    12    14    2
    14     1    15    1
    15     1    16    1
    16     1    17    1
    17     3    18    1
    18     3    19    1
    19     3    20    1
    20     4    21    1
    21     4    22    1
    22     4    23    1
    23     8    24    1
    24     9    25    1
    25     9    26    1
    26    10    27    1
    27    10    28    1
    28    11    29    1
    29    11    30    1
    30    13    31    1
    31    13    32    1
