@<TRIPOS>MOLECULE
*****
 86 89 0 0 0
SMALL
GASTEIGER

@<TRIPOS>ATOM
      1 C           2.1661   -3.1213    1.2314 C.3     1  UNL1       -0.0493
      2 C           2.3559   -1.6490    1.3653 C.3     1  UNL1        0.0121
      3 N           2.9716   -1.0420    0.2111 N.am    1  UNL1       -0.2983
      4 C           4.3879   -0.9437    0.1451 C.2     1  UNL1        0.2201
      5 O           5.0608   -1.3924    1.1034 O.2     1  UNL1       -0.2752
      6 C           5.0946   -0.3367   -1.0025 C.3     1  UNL1        0.0493
      7 C           6.5466   -0.3961   -0.7545 C.ar    1  UNL1       -0.0385
      8 C           7.1592    0.6493   -0.1109 C.ar    1  UNL1       -0.0563
      9 C           8.5214    0.5991    0.1263 C.ar    1  UNL1       -0.0366
     10 C           9.3111   -0.4826   -0.2654 C.ar    1  UNL1        0.0879
     11 S          11.0319   -0.4999    0.0570 S.O2    1  UNL1       -0.0059
     12 C          11.8671    0.2406   -1.3313 C.3     1  UNL1        0.0596
     13 O          11.4783   -1.9163    0.1762 O.2     1  UNL1       -0.1696
     14 O          11.3382    0.2967    1.3124 O.2     1  UNL1       -0.1696
     15 C           8.6575   -1.5072   -0.9064 C.ar    1  UNL1       -0.0366
     16 C           7.2892   -1.4714   -1.1521 C.ar    1  UNL1       -0.0563
     17 C           2.1938   -0.5291   -0.8817 C.3     1  UNL1        0.0283
     18 C           1.3226   -1.5385   -1.5557 C.3     1  UNL1       -0.0214
     19 C          -0.1106   -1.5315   -1.0789 C.3     1  UNL1        0.0006
     20 N          -0.7324   -0.2493   -1.4015 N.3     1  UNL1       -0.3022
     21 C          -1.7230    0.0468   -0.4078 C.3     1  UNL1       -0.0006
     22 C          -2.5037    1.3054   -0.6278 C.3     1  UNL1       -0.0331
     23 C          -3.5122    1.4973    0.4915 C.3     1  UNL1       -0.0116
     24 C          -4.2635    2.7445    0.2345 C.ar    1  UNL1       -0.0386
     25 C          -5.0112    2.9499   -0.8964 C.ar    1  UNL1       -0.0228
     26 C          -5.6898    4.1300   -1.0791 C.ar    1  UNL1        0.1264
     27 F          -6.4461    4.3493   -2.2092 F       1  UNL1       -0.2054
     28 C          -5.6514    5.1470   -0.1490 C.ar    1  UNL1        0.0088
     29 C          -4.8964    4.9270    0.9819 C.ar    1  UNL1        0.1264
     30 F          -4.8284    5.9027    1.9299 F       1  UNL1       -0.2054
     31 C          -4.2131    3.7498    1.1754 C.ar    1  UNL1       -0.0228
     32 C          -4.3568    0.2872    0.7757 C.3     1  UNL1       -0.0318
     33 C          -5.3075    0.6040    1.8867 C.3     1  UNL1       -0.0351
     34 C          -6.6867    0.0996    1.7999 C.3     1  UNL1        0.0204
     35 N          -7.0708   -0.6879    0.7003 N.3     1  UNL1       -0.1814
     36 S          -7.2138   -2.3549    0.9709 S.O2    1  UNL1        0.0290
     37 C          -8.4194   -2.7978    2.1588 C.3     1  UNL1        0.0707
     38 O          -7.6188   -3.0002   -0.3487 O.2     1  UNL1       -0.1583
     39 O          -5.8836   -2.9141    1.3312 O.2     1  UNL1       -0.1583
     40 C          -6.4076   -0.3444   -0.5277 C.3     1  UNL1        0.0204
     41 C          -4.9056   -0.3912   -0.3952 C.3     1  UNL1       -0.0351
     42 C           0.2705    0.7545   -1.5833 C.3     1  UNL1        0.0006
     43 C           1.3292    0.6733   -0.4740 C.3     1  UNL1       -0.0214
     44 H           1.1279   -3.4466    1.0184 H       1  UNL1        0.0245
     45 H           2.4321   -3.6100    2.1899 H       1  UNL1        0.0245
     46 H           2.8728   -3.5616    0.4665 H       1  UNL1        0.0245
     47 H           2.9563   -1.4652    2.2994 H       1  UNL1        0.0462
     48 H           1.3758   -1.1304    1.5857 H       1  UNL1        0.0462
     49 H           4.8199    0.7483   -1.1351 H       1  UNL1        0.0407
     50 H           4.7965   -0.8393   -1.9421 H       1  UNL1        0.0407
     51 H           6.6158    1.5318    0.2280 H       1  UNL1        0.0621
     52 H           9.0255    1.4192    0.6355 H       1  UNL1        0.0637
     53 H          11.9860    1.3351   -1.2002 H       1  UNL1        0.0468
     54 H          12.8239   -0.2799   -1.5371 H       1  UNL1        0.0468
     55 H          11.2249    0.0904   -2.2316 H       1  UNL1        0.0468
     56 H           9.2590   -2.3639   -1.2213 H       1  UNL1        0.0637
     57 H           6.8537   -2.3376   -1.6715 H       1  UNL1        0.0621
     58 H           2.8555   -0.0949   -1.6905 H       1  UNL1        0.0501
     59 H           1.2731   -1.4107   -2.6777 H       1  UNL1        0.0295
     60 H           1.7354   -2.5863   -1.4534 H       1  UNL1        0.0295
     61 H          -0.2514   -1.8113   -0.0369 H       1  UNL1        0.0427
     62 H          -0.6544   -2.2890   -1.6936 H       1  UNL1        0.0427
     63 H          -1.2127    0.1777    0.5918 H       1  UNL1        0.0427
     64 H          -2.4170   -0.8032   -0.3538 H       1  UNL1        0.0427
     65 H          -3.0263    1.2904   -1.6002 H       1  UNL1        0.0283
     66 H          -1.8352    2.2073   -0.6897 H       1  UNL1        0.0283
     67 H          -2.9078    1.6803    1.4505 H       1  UNL1        0.0352
     68 H          -5.0858    2.1986   -1.6672 H       1  UNL1        0.0649
     69 H          -6.1959    6.0927   -0.2964 H       1  UNL1        0.0675
     70 H          -3.6419    3.6606    2.0968 H       1  UNL1        0.0649
     71 H          -3.6076   -0.4391    1.2384 H       1  UNL1        0.0307
     72 H          -4.8855    0.2961    2.8893 H       1  UNL1        0.0281
     73 H          -5.3507    1.7308    2.0036 H       1  UNL1        0.0281
     74 H          -7.4347    0.9537    1.8426 H       1  UNL1        0.0444
     75 H          -6.9715   -0.4831    2.7320 H       1  UNL1        0.0444
     76 H          -8.2077   -3.8330    2.4981 H       1  UNL1        0.0479
     77 H          -8.5301   -2.0858    2.9836 H       1  UNL1        0.0479
     78 H          -9.4115   -2.8465    1.6437 H       1  UNL1        0.0479
     79 H          -6.7571    0.6577   -0.8371 H       1  UNL1        0.0444
     80 H          -6.7513   -1.0569   -1.3054 H       1  UNL1        0.0444
     81 H          -4.4696   -0.0483   -1.3388 H       1  UNL1        0.0281
     82 H          -4.6768   -1.5081   -0.3951 H       1  UNL1        0.0281
     83 H           0.8070    0.5605   -2.5561 H       1  UNL1        0.0427
     84 H          -0.1793    1.7425   -1.6743 H       1  UNL1        0.0427
     85 H           1.9156    1.5939   -0.5276 H       1  UNL1        0.0295
     86 H           0.8040    0.5065    0.4686 H       1  UNL1        0.0295
@<TRIPOS>BOND
     1     1     2    1
     2     2     3    1
     3     3     4   am
     4     4     5    2
     5     4     6    1
     6     6     7    1
     7     7     8   ar
     8     8     9   ar
     9     9    10   ar
    10    10    11    1
    11    11    12    1
    12    11    13    2
    13    11    14    2
    14    10    15   ar
    15    15    16   ar
    16     3    17    1
    17    17    18    1
    18    18    19    1
    19    19    20    1
    20    20    21    1
    21    21    22    1
    22    22    23    1
    23    23    24    1
    24    24    25   ar
    25    25    26   ar
    26    26    27    1
    27    26    28   ar
    28    28    29   ar
    29    29    30    1
    30    29    31   ar
    31    23    32    1
    32    32    33    1
    33    33    34    1
    34    34    35    1
    35    35    36    1
    36    36    37    1
    37    36    38    2
    38    36    39    2
    39    35    40    1
    40    40    41    1
    41    20    42    1
    42    42    43    1
    43    16     7   ar
    44    43    17    1
    45    31    24   ar
    46    41    32    1
    47     1    44    1
    48     1    45    1
    49     1    46    1
    50     2    47    1
    51     2    48    1
    52     6    49    1
    53     6    50    1
    54     8    51    1
    55     9    52    1
    56    12    53    1
    57    12    54    1
    58    12    55    1
    59    15    56    1
    60    16    57    1
    61    17    58    1
    62    18    59    1
    63    18    60    1
    64    19    61    1
    65    19    62    1
    66    21    63    1
    67    21    64    1
    68    22    65    1
    69    22    66    1
    70    23    67    1
    71    25    68    1
    72    28    69    1
    73    31    70    1
    74    32    71    1
    75    33    72    1
    76    33    73    1
    77    34    74    1
    78    34    75    1
    79    37    76    1
    80    37    77    1
    81    37    78    1
    82    40    79    1
    83    40    80    1
    84    41    81    1
    85    41    82    1
    86    42    83    1
    87    42    84    1
    88    43    85    1
    89    43    86    1
