@<TRIPOS>MOLECULE
*****
 44 47 0 0 0
SMALL
GASTEIGER

@<TRIPOS>ATOM
      1 N           6.1689    2.9234   -0.2489 N.am    1  UNL1       -0.3253
      2 C           4.9688    2.1728   -0.1270 C.2     1  UNL1        0.2437
      3 O           3.8894    2.7960   -0.1428 O.2     1  UNL1       -0.2703
      4 C           5.0650    0.7348    0.0078 C.ar    1  UNL1        0.0641
      5 C           6.2755    0.0837    0.0208 C.ar    1  UNL1       -0.0475
      6 C           6.3270   -1.2909    0.1514 C.ar    1  UNL1       -0.0603
      7 C           5.1525   -2.0142    0.2696 C.ar    1  UNL1       -0.0510
      8 C           3.9474   -1.3394    0.2540 C.ar    1  UNL1        0.0209
      9 C           2.6152   -1.7541    0.3489 C.ar    1  UNL1        0.0390
     10 N           1.8121   -0.6949    0.2797 N.ar    1  UNL1       -0.2387
     11 C           0.3694   -0.6968    0.3393 C.ar    1  UNL1        0.0654
     12 C          -0.3250   -1.7566    0.8597 C.ar    1  UNL1       -0.0360
     13 C          -1.7025   -1.7084    0.8933 C.ar    1  UNL1       -0.0563
     14 C          -2.4383   -0.6312    0.4229 C.ar    1  UNL1       -0.0429
     15 C          -3.9446   -0.6042    0.4801 C.3     1  UNL1       -0.0033
     16 C          -4.5887   -0.8968   -0.8246 C.3     1  UNL1       -0.0439
     17 C          -4.9252    0.3437   -1.5750 C.3     1  UNL1       -0.0399
     18 C          -5.7736    1.2144   -0.6620 C.3     1  UNL1       -0.0041
     19 N          -5.0111    1.6249    0.4775 N.3     1  UNL1       -0.3154
     20 C          -4.4149    0.5826    1.2249 C.3     1  UNL1        0.0027
     21 C          -1.6988    0.4138   -0.0922 C.ar    1  UNL1       -0.0563
     22 C          -0.3174    0.3810   -0.1332 C.ar    1  UNL1       -0.0360
     23 N           2.5668    0.3704    0.1458 N.ar    1  UNL1       -0.1656
     24 C           3.8764    0.0309    0.1247 C.ar    1  UNL1        0.1052
     25 H           6.2890    3.5399   -1.0758 H       1  UNL1        0.1453
     26 H           6.9425    2.8739    0.4751 H       1  UNL1        0.1453
     27 H           7.1987    0.6769   -0.0744 H       1  UNL1        0.0626
     28 H           7.2723   -1.8099    0.1626 H       1  UNL1        0.0618
     29 H           5.1350   -3.0880    0.3740 H       1  UNL1        0.0625
     30 H           2.3157   -2.7835    0.4606 H       1  UNL1        0.0837
     31 H           0.2119   -2.6150    1.2365 H       1  UNL1        0.0639
     32 H          -2.2760   -2.5534    1.3088 H       1  UNL1        0.0621
     33 H          -4.1911   -1.5013    1.1364 H       1  UNL1        0.0361
     34 H          -3.9152   -1.5822   -1.3865 H       1  UNL1        0.0272
     35 H          -5.5334   -1.4858   -0.6245 H       1  UNL1        0.0272
     36 H          -5.5066    0.1179   -2.5009 H       1  UNL1        0.0278
     37 H          -4.0240    0.8585   -1.9121 H       1  UNL1        0.0278
     38 H          -6.6379    0.6290   -0.3080 H       1  UNL1        0.0424
     39 H          -6.1219    2.1115   -1.1917 H       1  UNL1        0.0424
     40 H          -4.4278    2.4697    0.3318 H       1  UNL1        0.1220
     41 H          -5.1301    0.3189    2.0591 H       1  UNL1        0.0430
     42 H          -3.5320    1.0222    1.7765 H       1  UNL1        0.0430
     43 H          -2.1926    1.2928   -0.4754 H       1  UNL1        0.0621
     44 H           0.2292    1.2229   -0.5464 H       1  UNL1        0.0639
@<TRIPOS>BOND
     1     1     2   am
     2     2     3    2
     3     2     4    1
     4     4     5   ar
     5     5     6   ar
     6     6     7   ar
     7     7     8   ar
     8     8     9   ar
     9     9    10   ar
    10    10    11    1
    11    11    12   ar
    12    12    13   ar
    13    13    14   ar
    14    14    15    1
    15    15    16    1
    16    16    17    1
    17    17    18    1
    18    18    19    1
    19    19    20    1
    20    14    21   ar
    21    21    22   ar
    22    10    23   ar
    23    23    24   ar
    24    24     4   ar
    25    24     8   ar
    26    22    11   ar
    27    20    15    1
    28     1    25    1
    29     1    26    1
    30     5    27    1
    31     6    28    1
    32     7    29    1
    33     9    30    1
    34    12    31    1
    35    13    32    1
    36    15    33    1
    37    16    34    1
    38    16    35    1
    39    17    36    1
    40    17    37    1
    41    18    38    1
    42    18    39    1
    43    19    40    1
    44    20    41    1
    45    20    42    1
    46    21    43    1
    47    22    44    1
