@<TRIPOS>MOLECULE
*****
 50 53 0 0 0
SMALL
GASTEIGER

@<TRIPOS>ATOM
      1 C          -2.4517   -2.6575   -1.8257 C.3     1  UNL1       -0.0239
      2 C          -2.6188   -1.4987   -0.9174 C.ar    1  UNL1        0.0209
      3 C          -1.6182   -0.5655   -0.6009 C.ar    1  UNL1       -0.0133
      4 C          -0.2873   -0.6665   -1.1655 C.3     1  UNL1        0.0188
      5 C           0.6944    0.3430   -0.8729 C.ar    1  UNL1        0.0662
      6 C           0.8219    1.4957   -1.6544 C.ar    1  UNL1       -0.0332
      7 C           1.7538    2.4512   -1.3967 C.ar    1  UNL1        0.0061
      8 C           2.6108    2.2604   -0.3052 C.ar    1  UNL1        0.2676
      9 O           3.4842    3.1583   -0.0556 O.2     1  UNL1       -0.2662
     10 N           2.4928    1.1604    0.4414 N.ar    1  UNL1       -0.2248
     11 C           3.3910    0.9093    1.5568 C.3     1  UNL1        0.0730
     12 C           4.5310    0.0404    1.2584 C.ar    1  UNL1        0.0093
     13 C           4.3700   -1.3004    1.6460 C.ar    1  UNL1       -0.0514
     14 C           5.3532   -2.2193    1.4056 C.ar    1  UNL1       -0.0260
     15 C           6.5309   -1.8745    0.7797 C.ar    1  UNL1        0.1261
     16 F           7.5096   -2.7962    0.5404 F       1  UNL1       -0.2054
     17 C           6.6786   -0.5672    0.4064 C.ar    1  UNL1        0.0091
     18 C           5.6988    0.3680    0.6420 C.ar    1  UNL1        0.1310
     19 F           5.9192    1.6690    0.2605 F       1  UNL1       -0.2050
     20 N           1.5526    0.2454    0.1438 N.ar    1  UNL1       -0.1726
     21 C          -2.1909    0.3290    0.2656 C.ar    1  UNL1        0.0064
     22 C          -1.6957    1.4353    0.8966 C.ar    1  UNL1       -0.0170
     23 C          -2.5275    2.1741    1.7447 C.ar    1  UNL1        0.1241
     24 F          -2.0434    3.2704    2.3732 F       1  UNL1       -0.2055
     25 C          -3.8377    1.7783    1.9356 C.ar    1  UNL1       -0.0245
     26 C          -4.3539    0.6643    1.3075 C.ar    1  UNL1       -0.0349
     27 C          -3.5218   -0.0554    0.4729 C.ar    1  UNL1        0.0502
     28 N          -3.7267   -1.1632   -0.2640 N.ar    1  UNL1       -0.3330
     29 C          -4.9894   -1.8756   -0.3239 C.3     1  UNL1        0.1204
     30 C          -5.7915   -1.3120   -1.4292 C.2     1  UNL1        0.3247
     31 O          -6.9318   -1.7942   -1.6498 O.2     1  UNL1       -0.2490
     32 O          -5.2920   -0.2797   -2.1960 O.3     1  UNL1       -0.4794
     33 H          -3.4493   -2.9440   -2.2625 H       1  UNL1        0.0292
     34 H          -2.1018   -3.5183   -1.2037 H       1  UNL1        0.0292
     35 H          -1.7697   -2.4315   -2.6564 H       1  UNL1        0.0292
     36 H           0.1183   -1.6985   -0.9010 H       1  UNL1        0.0378
     37 H          -0.4344   -0.7735   -2.2904 H       1  UNL1        0.0378
     38 H           0.1392    1.6018   -2.4859 H       1  UNL1        0.0638
     39 H           1.8944    3.3562   -1.9661 H       1  UNL1        0.0673
     40 H           2.8171    0.5432    2.4391 H       1  UNL1        0.0560
     41 H           3.8241    1.8907    1.9175 H       1  UNL1        0.0560
     42 H           3.4668   -1.6159    2.1383 H       1  UNL1        0.0623
     43 H           5.2060   -3.2507    1.7147 H       1  UNL1        0.0646
     44 H           7.6148   -0.2617   -0.0976 H       1  UNL1        0.0675
     45 H          -0.6723    1.7289    0.7366 H       1  UNL1        0.0653
     46 H          -4.5219    2.3174    2.5848 H       1  UNL1        0.0647
     47 H          -5.3747    0.3274    1.4363 H       1  UNL1        0.0639
     48 H          -4.8143   -2.9730   -0.4509 H       1  UNL1        0.0607
     49 H          -5.5265   -1.7814    0.6521 H       1  UNL1        0.0607
     50 H          -5.9305    0.3098   -2.7248 H       1  UNL1        0.2951
@<TRIPOS>BOND
     1     1     2    1
     2     2     3   ar
     3     3     4    1
     4     4     5    1
     5     5     6   ar
     6     6     7   ar
     7     7     8   ar
     8     8     9    2
     9     8    10   ar
    10    10    11    1
    11    11    12    1
    12    12    13   ar
    13    13    14   ar
    14    14    15   ar
    15    15    16    1
    16    15    17   ar
    17    17    18   ar
    18    18    19    1
    19    10    20   ar
    20     3    21   ar
    21    21    22   ar
    22    22    23   ar
    23    23    24    1
    24    23    25   ar
    25    25    26   ar
    26    26    27   ar
    27    27    28   ar
    28    28    29    1
    29    29    30    1
    30    30    31    2
    31    30    32    1
    32    28     2   ar
    33    20     5   ar
    34    27    21   ar
    35    18    12   ar
    36     1    33    1
    37     1    34    1
    38     1    35    1
    39     4    36    1
    40     4    37    1
    41     6    38    1
    42     7    39    1
    43    11    40    1
    44    11    41    1
    45    13    42    1
    46    14    43    1
    47    17    44    1
    48    22    45    1
    49    25    46    1
    50    26    47    1
    51    29    48    1
    52    29    49    1
    53    32    50    1
