@<TRIPOS>MOLECULE
*****
 29 30 0 0 0
SMALL
GASTEIGER

@<TRIPOS>ATOM
      1 O          -6.1538   -0.0867    0.1450 O.3     1  UNL1       -0.5068
      2 C          -4.7639   -0.0196    0.1651 C.ar    1  UNL1        0.1169
      3 C          -3.9984   -0.8456   -0.6356 C.ar    1  UNL1       -0.0196
      4 C          -2.6230   -0.7258   -0.5655 C.ar    1  UNL1       -0.0511
      5 C          -1.9847    0.1555    0.2438 C.ar    1  UNL1       -0.0248
      6 C          -0.5410    0.2949    0.3301 C.2     1  UNL1       -0.0540
      7 C           0.3458   -0.4034   -0.3543 C.2     1  UNL1       -0.0538
      8 C           1.7997   -0.3053   -0.3070 C.ar    1  UNL1       -0.0181
      9 C           2.6202   -1.0959   -1.0765 C.ar    1  UNL1       -0.0128
     10 C           3.9883   -0.9800   -1.0098 C.ar    1  UNL1        0.1209
     11 O           4.6949   -1.8418   -1.8426 O.3     1  UNL1       -0.5066
     12 C           4.6167   -0.0765   -0.1791 C.ar    1  UNL1        0.0213
     13 C           3.8102    0.7117    0.5876 C.ar    1  UNL1        0.1209
     14 O           4.4514    1.6287    1.4307 O.3     1  UNL1       -0.5066
     15 C           2.4429    0.5899    0.5154 C.ar    1  UNL1       -0.0128
     16 C          -2.7892    0.9543    1.0201 C.ar    1  UNL1       -0.0511
     17 C          -4.1581    0.8912    1.0032 C.ar    1  UNL1       -0.0196
     18 H          -6.7103    0.6608   -0.2201 H       1  UNL1        0.2921
     19 H          -4.4803   -1.5706   -1.3027 H       1  UNL1        0.0654
     20 H          -2.0767   -1.3837   -1.2014 H       1  UNL1        0.0625
     21 H          -0.1050    1.0209    0.9996 H       1  UNL1        0.0624
     22 H          -0.0673   -1.1523   -1.0460 H       1  UNL1        0.0624
     23 H           2.1296   -1.8141   -1.7371 H       1  UNL1        0.0660
     24 H           5.1149   -1.4719   -2.6840 H       1  UNL1        0.2921
     25 H           5.6907   -0.0761   -0.2120 H       1  UNL1        0.0691
     26 H           3.8996    2.4393    1.6880 H       1  UNL1        0.2921
     27 H           1.9042    1.2605    1.1631 H       1  UNL1        0.0660
     28 H          -2.3103    1.6822    1.6899 H       1  UNL1        0.0625
     29 H          -4.7471    1.5595    1.6500 H       1  UNL1        0.0654
@<TRIPOS>BOND
     1     1     2    1
     2     2     3   ar
     3     3     4   ar
     4     4     5   ar
     5     5     6    1
     6     6     7    2
     7     7     8    1
     8     8     9   ar
     9     9    10   ar
    10    10    11    1
    11    10    12   ar
    12    12    13   ar
    13    13    14    1
    14    13    15   ar
    15     5    16   ar
    16    16    17   ar
    17    17     2   ar
    18    15     8   ar
    19     1    18    1
    20     3    19    1
    21     4    20    1
    22     6    21    1
    23     7    22    1
    24     9    23    1
    25    11    24    1
    26    12    25    1
    27    14    26    1
    28    15    27    1
    29    16    28    1
    30    17    29    1
