@<TRIPOS>MOLECULE
*****
 39 41 0 0 0
SMALL
GASTEIGER

@<TRIPOS>ATOM
      1 O           3.6831   -1.7430    1.2837 O.2     1  UNL1       -0.2702
      2 C           3.2196   -1.2296    0.2173 C.2     1  UNL1        0.2442
      3 N           4.1157   -1.0818   -0.8649 N.am    1  UNL1       -0.3092
      4 C           5.5083   -1.4709   -0.8354 C.3     1  UNL1        0.0351
      5 C           6.2003   -0.6858    0.2475 C.3     1  UNL1        0.0597
      6 O           6.1126    0.6814    0.0103 O.3     1  UNL1       -0.3935
      7 C           1.8062   -0.8219    0.1579 C.ar    1  UNL1        0.0394
      8 C           1.0065   -1.0057    1.2672 C.ar    1  UNL1       -0.0489
      9 C          -0.3304   -0.6454    1.2809 C.ar    1  UNL1       -0.0506
     10 C          -0.8814   -0.0923    0.1710 C.ar    1  UNL1        0.0180
     11 C          -2.2785    0.3094    0.1161 C.ar    1  UNL1       -0.0040
     12 C          -3.2980   -0.5234   -0.2915 C.ar    1  UNL1       -0.0416
     13 C          -4.6194   -0.1465   -0.3444 C.ar    1  UNL1        0.0574
     14 C          -5.6546   -1.0974   -0.7926 C.3     1  UNL1        0.4175
     15 F          -6.8011   -0.4316   -1.2009 F       1  UNL1       -0.1659
     16 F          -5.9673   -1.9522    0.2491 F       1  UNL1       -0.1659
     17 F          -5.1415   -1.8150   -1.8552 F       1  UNL1       -0.1659
     18 C          -4.9585    1.1354    0.0288 C.ar    1  UNL1       -0.0246
     19 C          -3.9625    2.0022    0.4444 C.ar    1  UNL1        0.0668
     20 N          -3.9700    3.2954    0.8655 N.ar    1  UNL1       -0.2769
     21 N          -2.7350    3.6702    1.1523 N.ar    1  UNL1       -0.1812
     22 C          -1.8713    2.6643    0.9390 C.ar    1  UNL1        0.0575
     23 C          -2.6507    1.5972    0.4869 C.ar    1  UNL1        0.0273
     24 C          -0.1204    0.1094   -0.9582 C.ar    1  UNL1        0.1318
     25 F          -0.6469    0.6645   -2.0919 F       1  UNL1       -0.2048
     26 C           1.2293   -0.2623   -0.9501 C.ar    1  UNL1       -0.0137
     27 H           3.7580   -0.6602   -1.7629 H       1  UNL1        0.1491
     28 H           5.5635   -2.5728   -0.6455 H       1  UNL1        0.0485
     29 H           6.0117   -1.2247   -1.7904 H       1  UNL1        0.0485
     30 H           5.8335   -0.8949    1.2658 H       1  UNL1        0.0573
     31 H           7.2938   -0.9775    0.2744 H       1  UNL1        0.0573
     32 H           6.9671    1.0681   -0.3190 H       1  UNL1        0.2095
     33 H           1.3977   -1.4406    2.1713 H       1  UNL1        0.0625
     34 H          -0.9566   -0.7926    2.1582 H       1  UNL1        0.0625
     35 H          -3.0592   -1.5327   -0.5891 H       1  UNL1        0.0629
     36 H          -5.9810    1.5005    0.0119 H       1  UNL1        0.0644
     37 H          -4.8462    3.8601    0.9332 H       1  UNL1        0.1889
     38 H          -0.7924    2.6417    1.0753 H       1  UNL1        0.0854
     39 H           1.8159   -0.0989   -1.8425 H       1  UNL1        0.0654
@<TRIPOS>BOND
     1     1     2    2
     2     2     3   am
     3     3     4    1
     4     4     5    1
     5     5     6    1
     6     2     7    1
     7     7     8   ar
     8     8     9   ar
     9     9    10   ar
    10    10    11    1
    11    11    12   ar
    12    12    13   ar
    13    13    14    1
    14    14    15    1
    15    14    16    1
    16    14    17    1
    17    13    18   ar
    18    18    19   ar
    19    19    20   ar
    20    20    21   ar
    21    21    22   ar
    22    22    23   ar
    23    10    24   ar
    24    24    25    1
    25    24    26   ar
    26    26     7   ar
    27    23    11   ar
    28    23    19   ar
    29     3    27    1
    30     4    28    1
    31     4    29    1
    32     5    30    1
    33     5    31    1
    34     6    32    1
    35     8    33    1
    36     9    34    1
    37    12    35    1
    38    18    36    1
    39    20    37    1
    40    22    38    1
    41    26    39    1
