@<TRIPOS>MOLECULE
*****
 60 63 0 0 0
SMALL
GASTEIGER

@<TRIPOS>ATOM
      1 C          -8.6169    1.4623    0.0789 C.3     1  UNL1       -0.0307
      2 C          -7.1732    1.7992    0.2541 C.3     1  UNL1        0.0868
      3 O          -6.3487    0.6858    0.5394 O.3     1  UNL1       -0.4911
      4 C          -6.1914   -0.4007   -0.2745 C.ar    1  UNL1        0.1341
      5 C          -6.7634   -0.6585   -1.4976 C.ar    1  UNL1       -0.0188
      6 C          -6.5249   -1.8005   -2.2300 C.ar    1  UNL1       -0.0582
      7 C          -5.6689   -2.7296   -1.7066 C.ar    1  UNL1       -0.0605
      8 C          -5.0660   -2.5046   -0.4639 C.ar    1  UNL1       -0.0445
      9 C          -5.3231   -1.3356    0.2635 C.ar    1  UNL1        0.0545
     10 S          -4.4148   -1.3476    1.7906 S.3     1  UNL1       -0.0791
     11 C          -2.7958   -0.6137    1.6469 C.ar    1  UNL1        0.0899
     12 C          -2.4721    0.7066    1.8762 C.ar    1  UNL1        0.2873
     13 C          -1.1815    1.1692    1.7347 C.ar    1  UNL1        0.0244
     14 C          -0.1421    0.3351    1.3559 C.ar    1  UNL1       -0.0113
     15 C          -0.4467   -0.9903    1.1223 C.ar    1  UNL1       -0.0526
     16 C          -1.7593   -1.4475    1.2690 C.ar    1  UNL1       -0.0409
     17 C           1.1877    0.9213    1.2357 C.ar    1  UNL1       -0.0130
     18 C           2.0910    0.4478    0.3368 C.ar    1  UNL1       -0.0140
     19 C           3.3538    0.9767    0.1990 C.ar    1  UNL1        0.1219
     20 N           3.6538    2.0035    1.0130 N.ar    1  UNL1       -0.2403
     21 C           2.7802    2.4919    1.9109 C.ar    1  UNL1        0.0303
     22 C           1.5093    1.9879    2.0763 C.ar    1  UNL1       -0.0357
     23 N           4.3622    0.5510   -0.7072 N.pl3   1  UNL1       -0.3122
     24 C           5.6769    1.1981   -0.7508 C.3     1  UNL1        0.0293
     25 C           6.6441    0.1660   -0.1984 C.3     1  UNL1        0.0305
     26 N           6.6149   -0.9566   -1.1151 N.am    1  UNL1       -0.2987
     27 C           5.3838   -1.4978   -1.6433 C.3     1  UNL1        0.0305
     28 C           4.2473   -0.5234   -1.6679 C.3     1  UNL1        0.0293
     29 C           7.8524   -1.5688   -1.5255 C.2     1  UNL1        0.2126
     30 C           9.1483   -1.0374   -0.9977 C.3     1  UNL1        0.0124
     31 O           7.8650   -2.5484   -2.3247 O.2     1  UNL1       -0.2759
     32 N          -3.5357    1.5638    2.2712 N.pl3   1  UNL1        0.0808
     33 O          -3.5073    2.8843    1.9048 O.co2   1  UNL1       -0.5760
     34 O          -4.4728    1.1115    2.9456 O.2     1  UNL1        0.0415
     35 H          -9.2094    2.1145    0.7746 H       1  UNL1        0.0262
     36 H          -8.9742    1.6912   -0.9245 H       1  UNL1        0.0262
     37 H          -8.8393    0.4247    0.4113 H       1  UNL1        0.0262
     38 H          -6.7984    2.2308   -0.6985 H       1  UNL1        0.0694
     39 H          -7.0297    2.5888    1.0147 H       1  UNL1        0.0694
     40 H          -7.4294    0.1134   -1.8573 H       1  UNL1        0.0654
     41 H          -7.0042   -1.9417   -3.1809 H       1  UNL1        0.0619
     42 H          -5.5097   -3.6083   -2.3105 H       1  UNL1        0.0618
     43 H          -4.4164   -3.3387   -0.1957 H       1  UNL1        0.0630
     44 H          -1.0055    2.2131    1.9312 H       1  UNL1        0.0692
     45 H           0.3686   -1.6377    0.8271 H       1  UNL1        0.0624
     46 H          -1.8918   -2.5024    1.0628 H       1  UNL1        0.0631
     47 H           1.8355   -0.3692   -0.3029 H       1  UNL1        0.0658
     48 H           3.0911    3.3229    2.5350 H       1  UNL1        0.0830
     49 H           0.8390    2.4148    2.8150 H       1  UNL1        0.0639
     50 H           5.6714    2.1289   -0.1442 H       1  UNL1        0.0480
     51 H           5.9154    1.3944   -1.8132 H       1  UNL1        0.0480
     52 H           7.6511    0.5762   -0.0631 H       1  UNL1        0.0480
     53 H           6.2277   -0.1953    0.7715 H       1  UNL1        0.0480
     54 H           5.6133   -1.8187   -2.6941 H       1  UNL1        0.0480
     55 H           5.0447   -2.3677   -1.0378 H       1  UNL1        0.0480
     56 H           3.2797   -1.0609   -1.5476 H       1  UNL1        0.0480
     57 H           4.2130   -0.0615   -2.6779 H       1  UNL1        0.0480
     58 H           9.4037   -0.0611   -1.4076 H       1  UNL1        0.0323
     59 H           9.9358   -1.7821   -1.1878 H       1  UNL1        0.0323
     60 H           9.0520   -0.9696    0.1246 H       1  UNL1        0.0323
@<TRIPOS>UNITY_ATOM_ATTR
32 1
charge 1
33 1
charge -1
@<TRIPOS>BOND
     1     1     2    1
     2     2     3    1
     3     3     4    1
     4     4     5   ar
     5     5     6   ar
     6     6     7   ar
     7     7     8   ar
     8     8     9   ar
     9     9    10    1
    10    10    11    1
    11    11    12   ar
    12    12    13   ar
    13    13    14   ar
    14    14    15   ar
    15    15    16   ar
    16    14    17    1
    17    17    18   ar
    18    18    19   ar
    19    19    20   ar
    20    20    21   ar
    21    21    22   ar
    22    19    23    1
    23    23    24    1
    24    24    25    1
    25    25    26    1
    26    26    27    1
    27    27    28    1
    28    26    29   am
    29    29    30    1
    30    29    31    2
    31    12    32    1
    32    32    33    1
    33    32    34    2
    34     9     4   ar
    35    16    11   ar
    36    22    17   ar
    37    28    23    1
    38     1    35    1
    39     1    36    1
    40     1    37    1
    41     2    38    1
    42     2    39    1
    43     5    40    1
    44     6    41    1
    45     7    42    1
    46     8    43    1
    47    13    44    1
    48    15    45    1
    49    16    46    1
    50    18    47    1
    51    21    48    1
    52    22    49    1
    53    24    50    1
    54    24    51    1
    55    25    52    1
    56    25    53    1
    57    27    54    1
    58    27    55    1
    59    28    56    1
    60    28    57    1
    61    30    58    1
    62    30    59    1
    63    30    60    1
