@<TRIPOS>MOLECULE
*****
 26 26 0 0 0
SMALL
GASTEIGER

@<TRIPOS>ATOM
      1 N           3.3398   -0.0153   -0.3979 N.3     1  UNL1       -0.3297
      2 C           2.2304    0.8874   -0.2574 C.3     1  UNL1       -0.0041
      3 C           1.1693    0.1247    0.5057 C.3     1  UNL1       -0.0287
      4 C          -0.0179    1.0208    0.6830 C.3     1  UNL1       -0.0483
      5 C          -0.9525    0.8492   -0.4828 C.3     1  UNL1       -0.0398
      6 C          -1.6011   -0.5163   -0.3844 C.3     1  UNL1        0.0563
      7 C          -0.6710   -1.4498    0.3254 C.3     1  UNL1       -0.0398
      8 C           0.7357   -1.1333   -0.1891 C.3     1  UNL1       -0.0483
      9 C          -2.8885   -0.3374    0.3377 C.2     1  UNL1        0.3078
     10 O          -3.8284    0.5122   -0.2293 O.3     1  UNL1       -0.4804
     11 O          -3.1335   -0.9366    1.4388 O.2     1  UNL1       -0.2507
     12 H           3.7503   -0.0482   -1.3377 H       1  UNL1        0.1182
     13 H           4.0094    0.0007    0.3821 H       1  UNL1        0.1182
     14 H           1.8832    1.2195   -1.2556 H       1  UNL1        0.0425
     15 H           2.4509    1.7957    0.3330 H       1  UNL1        0.0425
     16 H           1.6282   -0.1712    1.4753 H       1  UNL1        0.0313
     17 H           0.3223    2.0914    0.7550 H       1  UNL1        0.0269
     18 H          -0.4872    0.7618    1.6552 H       1  UNL1        0.0269
     19 H          -0.3277    0.8555   -1.4145 H       1  UNL1        0.0273
     20 H          -1.6977    1.6562   -0.5476 H       1  UNL1        0.0273
     21 H          -1.7765   -0.9579   -1.3946 H       1  UNL1        0.0413
     22 H          -0.8477   -2.5224    0.0520 H       1  UNL1        0.0273
     23 H          -0.6519   -1.3015    1.4219 H       1  UNL1        0.0273
     24 H           1.4207   -1.9816    0.0364 H       1  UNL1        0.0269
     25 H           0.7044   -1.0414   -1.2844 H       1  UNL1        0.0269
     26 H          -4.7631    0.6378    0.1805 H       1  UNL1        0.2951
@<TRIPOS>BOND
     1     1     2    1
     2     2     3    1
     3     3     4    1
     4     4     5    1
     5     5     6    1
     6     6     7    1
     7     7     8    1
     8     6     9    1
     9     9    10    1
    10     9    11    2
    11     8     3    1
    12     1    12    1
    13     1    13    1
    14     2    14    1
    15     2    15    1
    16     3    16    1
    17     4    17    1
    18     4    18    1
    19     5    19    1
    20     5    20    1
    21     6    21    1
    22     7    22    1
    23     7    23    1
    24     8    24    1
    25     8    25    1
    26    10    26    1
