
     RDKit          3D

 35 36  0  0  0  0  0  0  0  0999 V2000
   -4.6790    2.1894    0.1673 C   0  0  0  0  0  0  0  0  0  0  0  0
   -4.5769    0.7509    0.5620 C   0  0  0  0  0  0  0  0  0  0  0  0
   -3.2401    0.2902    0.7055 O   0  0  0  0  0  0  0  0  0  0  0  0
   -2.3278    0.3108   -0.3317 C   0  0  0  0  0  0  0  0  0  0  0  0
   -2.7549    0.7706   -1.4372 O   0  0  0  0  0  0  0  0  0  0  0  0
   -0.9458   -0.1474   -0.2446 C   0  0  0  0  0  0  0  0  0  0  0  0
    0.2811    0.4027    0.0714 C   0  0  0  0  0  0  0  0  0  0  0  0
    0.3369    1.8418    0.4388 C   0  0  0  0  0  0  0  0  0  0  0  0
    1.2008   -0.5743   -0.0386 N   0  0  0  0  0  0  0  0  0  0  0  0
    0.6374   -1.7064   -0.4032 N   0  0  0  0  0  4  0  0  0  0  0  0
   -0.6751   -1.4875   -0.5397 C   0  0  0  0  0  0  0  0  0  0  0  0
   -1.6026   -2.5982   -0.9520 C   0  0  0  0  0  0  0  0  0  0  0  0
    2.5741   -0.3151    0.2261 C   0  0  0  0  0  0  0  0  0  0  0  0
    3.1802    0.1946    1.3521 C   0  0  0  0  0  0  0  0  0  0  0  0
    4.5494    0.3563    1.3691 C   0  0  0  0  0  0  0  0  0  0  0  0
    5.3278    0.0185    0.2818 C   0  0  0  0  0  0  0  0  0  0  0  0
    4.7374   -0.4926   -0.8521 C   0  0  0  0  0  0  0  0  0  0  0  0
    3.3651   -0.6576   -0.8766 C   0  0  0  0  0  0  0  0  0  0  0  0
   -5.0356    2.8414    0.9700 H   0  0  0  0  0  0  0  0  0  0  0  0
   -3.7512    2.5861   -0.2905 H   0  0  0  0  0  0  0  0  0  0  0  0
   -5.4538    2.2559   -0.6496 H   0  0  0  0  0  0  0  0  0  0  0  0
   -5.1925    0.0692   -0.0715 H   0  0  0  0  0  0  0  0  0  0  0  0
   -5.0162    0.6742    1.5968 H   0  0  0  0  0  0  0  0  0  0  0  0
    0.1558    2.4606   -0.4782 H   0  0  0  0  0  0  0  0  0  0  0  0
    1.3450    2.0824    0.8184 H   0  0  0  0  0  0  0  0  0  0  0  0
   -0.3855    2.0970    1.2428 H   0  0  0  0  0  0  0  0  0  0  0  0
    1.1810   -2.5846   -0.5433 H   0  0  0  0  0  0  0  0  0  0  0  0
   -2.5878   -2.1758   -1.2668 H   0  0  0  0  0  0  0  0  0  0  0  0
   -1.6774   -3.3663   -0.1818 H   0  0  0  0  0  0  0  0  0  0  0  0
   -1.2151   -3.0998   -1.8861 H   0  0  0  0  0  0  0  0  0  0  0  0
    2.4710    0.4213    2.1355 H   0  0  0  0  0  0  0  0  0  0  0  0
    4.9638    0.7627    2.2865 H   0  0  0  0  0  0  0  0  0  0  0  0
    6.4045    0.1542    0.3172 H   0  0  0  0  0  0  0  0  0  0  0  0
    5.3920   -0.7421   -1.6780 H   0  0  0  0  0  0  0  0  0  0  0  0
    3.0135   -1.0669   -1.8197 H   0  0  0  0  0  0  0  0  0  0  0  0
  1  2  1  0
  2  3  1  0
  3  4  1  0
  4  5  2  0
  4  6  1  0
  6  7  2  0
  7  8  1  0
  7  9  1  0
  9 10  1  0
 10 11  2  0
 11 12  1  0
  9 13  1  0
 13 14  2  0
 14 15  1  0
 15 16  2  0
 16 17  1  0
 17 18  2  0
 11  6  1  0
 18 13  1  0
  1 19  1  0
  1 20  1  0
  1 21  1  0
  2 22  1  0
  2 23  1  0
  8 24  1  0
  8 25  1  0
  8 26  1  0
 10 27  1  0
 12 28  1  0
 12 29  1  0
 12 30  1  0
 14 31  1  0
 15 32  1  0
 16 33  1  0
 17 34  1  0
 18 35  1  0
M  CHG  1  10   1
M  END
$$$$
