@<TRIPOS>MOLECULE
*****
 35 36 0 0 0
SMALL
GASTEIGER

@<TRIPOS>ATOM
      1 C          -4.6790    2.1894    0.1673 C.3     1  UNL1       -0.0306
      2 C          -4.5769    0.7509    0.5620 C.3     1  UNL1        0.0900
      3 O          -3.2401    0.2902    0.7055 O.3     1  UNL1       -0.4612
      4 C          -2.3278    0.3108   -0.3317 C.2     1  UNL1        0.3472
      5 O          -2.7549    0.7706   -1.4372 O.2     1  UNL1       -0.2447
      6 C          -0.9458   -0.1474   -0.2446 C.ar    1  UNL1        0.1518
      7 C           0.2811    0.4027    0.0714 C.ar    1  UNL1        0.0998
      8 C           0.3369    1.8418    0.4388 C.3     1  UNL1       -0.0176
      9 N           1.2008   -0.5743   -0.0386 N.ar    1  UNL1       -0.1238
     10 N           0.6374   -1.7064   -0.4032 N.ar    1  UNL1       -0.1209
     11 C          -0.6751   -1.4875   -0.5397 C.ar    1  UNL1        0.2192
     12 C          -1.6026   -2.5982   -0.9520 C.3     1  UNL1        0.0238
     13 C           2.5741   -0.3151    0.2261 C.ar    1  UNL1        0.1051
     14 C           3.1802    0.1946    1.3521 C.ar    1  UNL1       -0.0325
     15 C           4.5494    0.3563    1.3691 C.ar    1  UNL1       -0.0596
     16 C           5.3278    0.0185    0.2818 C.ar    1  UNL1       -0.0616
     17 C           4.7374   -0.4926   -0.8521 C.ar    1  UNL1       -0.0596
     18 C           3.3651   -0.6576   -0.8766 C.ar    1  UNL1       -0.0325
     19 H          -5.0356    2.8414    0.9700 H       1  UNL1        0.0262
     20 H          -3.7512    2.5861   -0.2905 H       1  UNL1        0.0262
     21 H          -5.4538    2.2559   -0.6496 H       1  UNL1        0.0262
     22 H          -5.1925    0.0692   -0.0715 H       1  UNL1        0.0695
     23 H          -5.0162    0.6742    1.5968 H       1  UNL1        0.0695
     24 H           0.1558    2.4606   -0.4782 H       1  UNL1        0.0294
     25 H           1.3450    2.0824    0.8184 H       1  UNL1        0.0294
     26 H          -0.3855    2.0970    1.2428 H       1  UNL1        0.0294
     27 H           1.1810   -2.5846   -0.5433 H       1  UNL1        0.4874
     28 H          -2.5878   -2.1758   -1.2668 H       1  UNL1        0.0337
     29 H          -1.6774   -3.3663   -0.1818 H       1  UNL1        0.0337
     30 H          -1.2151   -3.0998   -1.8861 H       1  UNL1        0.0337
     31 H           2.4710    0.4213    2.1355 H       1  UNL1        0.0640
     32 H           4.9638    0.7627    2.2865 H       1  UNL1        0.0618
     33 H           6.4045    0.1542    0.3172 H       1  UNL1        0.0618
     34 H           5.3920   -0.7421   -1.6780 H       1  UNL1        0.0618
     35 H           3.0135   -1.0669   -1.8197 H       1  UNL1        0.0640
@<TRIPOS>UNITY_ATOM_ATTR
10 1
charge 1
@<TRIPOS>BOND
     1     1     2    1
     2     2     3    1
     3     3     4    1
     4     4     5    2
     5     4     6    1
     6     6     7   ar
     7     7     8    1
     8     7     9   ar
     9     9    10   ar
    10    10    11   ar
    11    11    12    1
    12     9    13    1
    13    13    14   ar
    14    14    15   ar
    15    15    16   ar
    16    16    17   ar
    17    17    18   ar
    18    11     6   ar
    19    18    13   ar
    20     1    19    1
    21     1    20    1
    22     1    21    1
    23     2    22    1
    24     2    23    1
    25     8    24    1
    26     8    25    1
    27     8    26    1
    28    10    27    1
    29    12    28    1
    30    12    29    1
    31    12    30    1
    32    14    31    1
    33    15    32    1
    34    16    33    1
    35    17    34    1
    36    18    35    1
