@<TRIPOS>MOLECULE
*****
 49 52 0 0 0
SMALL
GASTEIGER

@<TRIPOS>ATOM
      1 C           2.0452   -0.4844    1.1986 C.3     1  UNL1       -0.0165
      2 C           1.9364   -0.1582   -0.2702 C.3     1  UNL1        0.1799
      3 C           1.9139    1.3641   -0.4359 C.3     1  UNL1       -0.0165
      4 O           2.9619   -0.7479   -1.0048 O.3     1  UNL1       -0.4770
      5 C           4.2680   -0.4135   -0.6955 C.ar    1  UNL1        0.1221
      6 C           5.0169   -1.1084    0.2356 C.ar    1  UNL1       -0.0185
      7 C           6.3141   -0.7663    0.5343 C.ar    1  UNL1       -0.0399
      8 C           6.8899    0.3012   -0.1116 C.ar    1  UNL1        0.0412
      9 CL          8.5206    0.8369    0.1740 Cl      1  UNL1       -0.0835
     10 C           6.1426    1.0073   -1.0516 C.ar    1  UNL1       -0.0399
     11 C           4.8484    0.6587   -1.3433 C.ar    1  UNL1       -0.0185
     12 C           0.5813   -0.6163   -0.7452 C.2     1  UNL1        0.2566
     13 O           0.4443   -1.4237   -1.6825 O.2     1  UNL1       -0.2714
     14 N          -0.5882   -0.1169   -0.1097 N.am    1  UNL1       -0.3087
     15 C          -1.9112   -0.4955   -0.4933 C.3     1  UNL1        0.0294
     16 C          -2.5827   -1.1803    0.6905 C.3     1  UNL1       -0.0151
     17 C          -2.7930   -0.2244    1.8428 C.3     1  UNL1       -0.0218
     18 C          -3.7235    0.8705    1.3582 C.3     1  UNL1        0.0626
     19 C          -3.0034    1.6265    0.2787 C.3     1  UNL1       -0.0218
     20 C          -2.7756    0.6839   -0.8742 C.3     1  UNL1       -0.0151
     21 C          -4.1156    0.1516   -1.3120 C.3     1  UNL1        0.0058
     22 C          -4.7745   -0.5354   -0.1498 C.3     1  UNL1        0.1681
     23 O          -6.0327   -1.0173   -0.4889 O.3     1  UNL1       -0.3644
     24 C          -3.9137   -1.7275    0.2246 C.3     1  UNL1        0.0058
     25 O          -4.9166    0.3726    0.8735 O.3     1  UNL1       -0.3456
     26 H           1.1114   -0.2287    1.7388 H       1  UNL1        0.0273
     27 H           2.2341   -1.5483    1.3636 H       1  UNL1        0.0273
     28 H           2.8719    0.0860    1.6653 H       1  UNL1        0.0273
     29 H           1.6800    1.6036   -1.4946 H       1  UNL1        0.0273
     30 H           2.9044    1.8005   -0.2009 H       1  UNL1        0.0273
     31 H           1.2010    1.8063    0.2829 H       1  UNL1        0.0273
     32 H           4.5417   -1.9446    0.7306 H       1  UNL1        0.0654
     33 H           6.8831   -1.3153    1.2596 H       1  UNL1        0.0633
     34 H           6.5752    1.8539   -1.5748 H       1  UNL1        0.0633
     35 H           4.2712    1.2246   -2.0869 H       1  UNL1        0.0654
     36 H          -0.4480    0.5579    0.6724 H       1  UNL1        0.1491
     37 H          -1.9488   -1.2084   -1.3253 H       1  UNL1        0.0504
     38 H          -1.8914   -1.9816    1.0151 H       1  UNL1        0.0321
     39 H          -3.2567   -0.7832    2.6613 H       1  UNL1        0.0293
     40 H          -1.8436    0.2526    2.1279 H       1  UNL1        0.0293
     41 H          -3.9528    1.5152    2.2212 H       1  UNL1        0.0597
     42 H          -3.6390    2.4525   -0.1007 H       1  UNL1        0.0293
     43 H          -2.0539    2.0581    0.6515 H       1  UNL1        0.0293
     44 H          -2.3640    1.2621   -1.7206 H       1  UNL1        0.0321
     45 H          -4.0870   -0.4431   -2.2260 H       1  UNL1        0.0320
     46 H          -4.7466    1.0579   -1.5491 H       1  UNL1        0.0320
     47 H          -6.6706   -0.2732   -0.6405 H       1  UNL1        0.2128
     48 H          -4.3750   -2.3622    0.9827 H       1  UNL1        0.0320
     49 H          -3.7494   -2.2997   -0.7137 H       1  UNL1        0.0320
@<TRIPOS>BOND
     1     1     2    1
     2     2     3    1
     3     2     4    1
     4     4     5    1
     5     5     6   ar
     6     6     7   ar
     7     7     8   ar
     8     8     9    1
     9     8    10   ar
    10    10    11   ar
    11     2    12    1
    12    12    13    2
    13    12    14   am
    14    14    15    1
    15    15    16    1
    16    16    17    1
    17    17    18    1
    18    18    19    1
    19    19    20    1
    20    20    21    1
    21    21    22    1
    22    22    23    1
    23    22    24    1
    24    22    25    1
    25    11     5   ar
    26    20    15    1
    27    24    16    1
    28    25    18    1
    29     1    26    1
    30     1    27    1
    31     1    28    1
    32     3    29    1
    33     3    30    1
    34     3    31    1
    35     6    32    1
    36     7    33    1
    37    10    34    1
    38    11    35    1
    39    14    36    1
    40    15    37    1
    41    16    38    1
    42    17    39    1
    43    17    40    1
    44    18    41    1
    45    19    42    1
    46    19    43    1
    47    20    44    1
    48    21    45    1
    49    21    46    1
    50    23    47    1
    51    24    48    1
    52    24    49    1
