@<TRIPOS>MOLECULE
*****
 33 35 0 0 0
SMALL
GASTEIGER

@<TRIPOS>ATOM
      1 N           5.4042    0.0089   -0.2981 N.3     1  UNL1       -0.2035
      2 S           4.0495   -0.0137   -1.3896 S.O2    1  UNL1        0.0574
      3 O           3.9276    1.4019   -1.9372 O.2     1  UNL1       -0.1532
      4 O           4.2563   -1.0049   -2.4779 O.2     1  UNL1       -0.1532
      5 C           2.5929   -0.3297   -0.4733 C.ar    1  UNL1        0.1236
      6 C           2.4760   -1.5135    0.2608 C.ar    1  UNL1        0.0673
      7 CL          3.8489   -2.6289    0.2017 Cl      1  UNL1       -0.0815
      8 C           1.3442   -1.8309    1.0147 C.ar    1  UNL1       -0.0411
      9 C           0.2849   -0.9164    1.0291 C.ar    1  UNL1       -0.0524
     10 C           0.4158    0.2586    0.2927 C.ar    1  UNL1        0.0088
     11 C           1.5435    0.5473   -0.4425 C.ar    1  UNL1       -0.0261
     12 C          -0.7793    1.1254    0.4017 C.3     1  UNL1        0.1867
     13 O          -0.5565    2.3492   -0.2026 O.3     1  UNL1       -0.3639
     14 N          -1.0998    1.3458    1.7803 N.am    1  UNL1       -0.2761
     15 C          -2.3982    0.8764    2.1193 C.2     1  UNL1        0.2470
     16 O          -2.8070    1.0046    3.2874 O.2     1  UNL1       -0.2701
     17 C          -2.9246    0.3273    0.8762 C.ar    1  UNL1        0.0446
     18 C          -4.1747   -0.2545    0.7055 C.ar    1  UNL1       -0.0492
     19 C          -4.5275   -0.7321   -0.5475 C.ar    1  UNL1       -0.0610
     20 C          -3.6076   -0.6022   -1.5677 C.ar    1  UNL1       -0.0613
     21 C          -2.3594   -0.0210   -1.3973 C.ar    1  UNL1       -0.0532
     22 C          -1.9968    0.4602   -0.1464 C.ar    1  UNL1        0.0189
     23 H           5.3444    0.8222    0.3521 H       1  UNL1        0.1442
     24 H           6.2586    0.1421   -0.8824 H       1  UNL1        0.1442
     25 H           1.3283   -2.7825    1.5651 H       1  UNL1        0.0633
     26 H          -0.5675   -1.1974    1.6211 H       1  UNL1        0.0622
     27 H           1.5719    1.4698   -0.9826 H       1  UNL1        0.0642
     28 H          -0.5357    2.3358   -1.1837 H       1  UNL1        0.2127
     29 H          -0.3084    1.8220    2.3029 H       1  UNL1        0.1524
     30 H          -4.8856   -0.3489    1.5155 H       1  UNL1        0.0625
     31 H          -5.4943   -1.1805   -0.6735 H       1  UNL1        0.0618
     32 H          -3.9430   -0.9987   -2.5383 H       1  UNL1        0.0618
     33 H          -1.6812    0.0581   -2.2147 H       1  UNL1        0.0622
@<TRIPOS>BOND
     1     1     2    1
     2     2     3    2
     3     2     4    2
     4     2     5    1
     5     5     6   ar
     6     6     7    1
     7     6     8   ar
     8     8     9   ar
     9     9    10   ar
    10    10    11   ar
    11    10    12    1
    12    12    13    1
    13    12    14    1
    14    14    15   am
    15    15    16    2
    16    15    17    1
    17    17    18   ar
    18    18    19   ar
    19    19    20   ar
    20    20    21   ar
    21    21    22   ar
    22    11     5   ar
    23    22    12    1
    24    22    17   ar
    25     1    23    1
    26     1    24    1
    27     8    25    1
    28     9    26    1
    29    11    27    1
    30    13    28    1
    31    14    29    1
    32    18    30    1
    33    19    31    1
    34    20    32    1
    35    21    33    1
