@<TRIPOS>MOLECULE
*****
 54 58 0 0 0
SMALL
GASTEIGER

@<TRIPOS>ATOM
      1 C          -8.1319    1.4239    0.5216 C.3     1  UNL1       -0.0567
      2 C          -6.7127    1.9437    0.7161 C.3     1  UNL1        0.0021
      3 C          -6.5677    3.2228   -0.0379 C.3     1  UNL1       -0.0567
      4 C          -5.7503    0.9381    0.2078 C.ar    1  UNL1        0.0816
      5 N          -4.9072    0.1373    0.5852 N.ar    1  UNL1       -0.2406
      6 C          -4.1602   -0.6634   -0.0746 C.ar    1  UNL1        0.1154
      7 C          -3.1411   -1.6353    0.4180 C.ar    1  UNL1        0.1832
      8 N          -3.4255   -2.7020    1.1746 N.ar    1  UNL1       -0.1275
      9 N          -2.3278   -3.3775    1.4472 N.ar    1  UNL1       -0.1320
     10 C          -1.2908   -2.7191    0.8398 C.ar    1  UNL1        0.1542
     11 N          -1.8249   -1.6616    0.2229 N.ar    1  UNL1       -0.3066
     12 C          -1.0118   -0.7088   -0.5231 C.3     1  UNL1        0.0423
     13 C           0.3636   -0.6081    0.0667 C.3     1  UNL1        0.0338
     14 N           0.9276   -1.8324    0.5094 N.am    1  UNL1       -0.2860
     15 C           2.3322   -1.9810    0.7034 C.2     1  UNL1        0.2472
     16 O           2.7265   -3.1342    1.1215 O.2     1  UNL1       -0.2700
     17 C           3.3682   -1.0147    0.4895 C.ar    1  UNL1        0.0370
     18 C           3.8955   -0.2836    1.5247 C.ar    1  UNL1       -0.0490
     19 C           4.9243    0.6124    1.3106 C.ar    1  UNL1       -0.0528
     20 C           5.4713    0.8200    0.0682 C.ar    1  UNL1       -0.0113
     21 C           6.5514    1.7642   -0.0852 C.ar    1  UNL1        0.0193
     22 C           7.3235    2.0798   -1.1603 C.ar    1  UNL1       -0.0469
     23 C           8.2922    2.9853   -1.0454 C.ar    1  UNL1       -0.0541
     24 C           8.4579    3.5794    0.2310 C.ar    1  UNL1       -0.0237
     25 S           7.2239    2.8098    1.1942 S.2     1  UNL1       -0.0967
     26 C           4.9450    0.0911   -0.9675 C.ar    1  UNL1       -0.0528
     27 C           3.9229   -0.8043   -0.7807 C.ar    1  UNL1       -0.0490
     28 C           0.1452   -3.0026    0.7652 C.3     1  UNL1        0.0834
     29 C           0.3504   -3.9127   -0.4686 C.3     1  UNL1       -0.0393
     30 C          -4.3830   -0.5764   -1.5298 C.ar    1  UNL1        0.0064
     31 S          -5.6291    0.6473   -1.6471 S.2     1  UNL1       -0.0796
     32 H          -8.8125    2.2560    0.2556 H       1  UNL1        0.0236
     33 H          -8.0922    0.6857   -0.2982 H       1  UNL1        0.0236
     34 H          -8.5148    0.9824    1.4586 H       1  UNL1        0.0236
     35 H          -6.5488    2.0171    1.7867 H       1  UNL1        0.0364
     36 H          -5.5489    3.6426    0.0889 H       1  UNL1        0.0236
     37 H          -7.3274    3.9732    0.2704 H       1  UNL1        0.0236
     38 H          -6.7820    3.0189   -1.1163 H       1  UNL1        0.0236
     39 H          -0.9939   -1.0497   -1.5730 H       1  UNL1        0.0508
     40 H          -1.4458    0.3111   -0.5165 H       1  UNL1        0.0508
     41 H           1.0421   -0.1299   -0.6604 H       1  UNL1        0.0482
     42 H           0.3623    0.0992    0.9503 H       1  UNL1        0.0482
     43 H           3.4608   -0.4456    2.5204 H       1  UNL1        0.0625
     44 H           5.2789    1.1429    2.1912 H       1  UNL1        0.0624
     45 H           7.0930    1.5279   -2.1280 H       1  UNL1        0.0629
     46 H           8.9488    3.2683   -1.9019 H       1  UNL1        0.0623
     47 H           9.2190    4.3600    0.5029 H       1  UNL1        0.0693
     48 H           5.3744    0.2535   -1.9557 H       1  UNL1        0.0624
     49 H           3.5367   -1.3517   -1.6101 H       1  UNL1        0.0625
     50 H           0.5075   -3.5514    1.6774 H       1  UNL1        0.0579
     51 H           1.3173   -3.6468   -0.9815 H       1  UNL1        0.0252
     52 H          -0.4479   -3.6975   -1.2203 H       1  UNL1        0.0252
     53 H           0.3007   -4.9685   -0.2148 H       1  UNL1        0.0252
     54 H          -3.8847   -1.1352   -2.2408 H       1  UNL1        0.0716
@<TRIPOS>BOND
     1     1     2    1
     2     2     3    1
     3     2     4    1
     4     4     5   ar
     5     5     6   ar
     6     6     7    1
     7     7     8   ar
     8     8     9   ar
     9     9    10   ar
    10    10    11   ar
    11    11    12    1
    12    12    13    1
    13    13    14    1
    14    14    15   am
    15    15    16    2
    16    15    17    1
    17    17    18   ar
    18    18    19   ar
    19    19    20   ar
    20    20    21    1
    21    21    22   ar
    22    22    23   ar
    23    23    24   ar
    24    24    25   ar
    25    20    26   ar
    26    26    27   ar
    27    14    28    1
    28    28    29    1
    29     6    30   ar
    30    30    31   ar
    31    31     4   ar
    32    11     7   ar
    33    27    17   ar
    34    28    10    1
    35    25    21   ar
    36     1    32    1
    37     1    33    1
    38     1    34    1
    39     2    35    1
    40     3    36    1
    41     3    37    1
    42     3    38    1
    43    12    39    1
    44    12    40    1
    45    13    41    1
    46    13    42    1
    47    18    43    1
    48    19    44    1
    49    22    45    1
    50    23    46    1
    51    24    47    1
    52    26    48    1
    53    27    49    1
    54    28    50    1
    55    29    51    1
    56    29    52    1
    57    29    53    1
    58    30    54    1
