@<TRIPOS>MOLECULE
*****
 56 59 0 0 0
SMALL
GASTEIGER

@<TRIPOS>ATOM
      1 C           9.1867    2.3414   -2.1432 C.2     1  UNL1       -0.0938
      2 C           9.0905    1.1208   -1.6668 C.2     1  UNL1       -0.0066
      3 C           7.8610    0.5992   -1.1183 C.2     1  UNL1        0.2405
      4 O           7.8623   -0.5986   -0.6785 O.2     1  UNL1       -0.2705
      5 N           6.6466    1.3214   -1.0311 N.am    1  UNL1       -0.2820
      6 C           5.4924    0.6797   -0.4603 C.ar    1  UNL1        0.0338
      7 C           5.2432    0.7627    0.8935 C.ar    1  UNL1       -0.0386
      8 C           4.1336    0.1502    1.4662 C.ar    1  UNL1       -0.0336
      9 C           3.2608   -0.5555    0.6724 C.ar    1  UNL1        0.1056
     10 S           1.8608   -1.3345    1.3603 S.O2    1  UNL1        0.0609
     11 O           1.5830   -2.5560    0.4997 O.2     1  UNL1       -0.1528
     12 O           2.1564   -1.8232    2.7542 O.2     1  UNL1       -0.1528
     13 N           0.5395   -0.2453    1.3431 N.3     1  UNL1       -0.1736
     14 C           0.1979    0.1372    0.0291 C.3     1  UNL1        0.0363
     15 C          -0.8244   -0.7419   -0.6619 C.3     1  UNL1        0.0291
     16 N          -1.8521   -1.1093    0.3320 N.am    1  UNL1       -0.2987
     17 C          -3.1995   -0.8460    0.0917 C.2     1  UNL1        0.2193
     18 O          -3.5146   -0.2827   -1.0105 O.2     1  UNL1       -0.2753
     19 C          -4.2750   -1.1693    1.0128 C.3     1  UNL1        0.0431
     20 C          -5.4816   -1.8224    0.3447 C.3     1  UNL1       -0.0338
     21 C          -5.5605   -0.4827    1.1121 C.3     1  UNL1       -0.0040
     22 C          -6.0302    0.6115    0.2717 C.ar    1  UNL1       -0.0435
     23 C          -5.2854    1.7328   -0.0089 C.ar    1  UNL1       -0.0583
     24 C          -5.8387    2.6939   -0.8312 C.ar    1  UNL1       -0.0615
     25 C          -7.0952    2.6000   -1.3902 C.ar    1  UNL1       -0.0617
     26 C          -7.8303    1.4786   -1.1042 C.ar    1  UNL1       -0.0615
     27 C          -7.2877    0.5088   -0.2824 C.ar    1  UNL1       -0.0583
     28 C          -1.3315   -1.7368    1.5169 C.3     1  UNL1        0.0291
     29 C          -0.4852   -0.6839    2.2153 C.3     1  UNL1        0.0363
     30 C           3.5019   -0.6429   -0.6773 C.ar    1  UNL1       -0.0336
     31 C           4.6186   -0.0268   -1.2553 C.ar    1  UNL1       -0.0386
     32 H           8.3361    2.9883   -2.1340 H       1  UNL1        0.0536
     33 H          10.1140    2.6869   -2.5393 H       1  UNL1        0.0536
     34 H           9.9703    0.4568   -1.6781 H       1  UNL1        0.0663
     35 H           6.6012    2.2951   -1.3757 H       1  UNL1        0.1551
     36 H           5.9437    1.3243    1.5041 H       1  UNL1        0.0637
     37 H           4.0126    0.2637    2.5298 H       1  UNL1        0.0638
     38 H          -0.2913    1.1551    0.0916 H       1  UNL1        0.0459
     39 H           1.0856    0.3119   -0.6225 H       1  UNL1        0.0459
     40 H          -0.2846   -1.6415   -1.0135 H       1  UNL1        0.0478
     41 H          -1.2469   -0.1893   -1.5000 H       1  UNL1        0.0478
     42 H          -3.9631   -1.7072    1.9489 H       1  UNL1        0.0400
     43 H          -5.5464   -1.8025   -0.7517 H       1  UNL1        0.0279
     44 H          -5.9302   -2.7028    0.8035 H       1  UNL1        0.0279
     45 H          -6.1589   -0.5899    2.0591 H       1  UNL1        0.0356
     46 H          -4.2765    1.8722    0.4158 H       1  UNL1        0.0620
     47 H          -5.2338    3.5869   -1.0494 H       1  UNL1        0.0618
     48 H          -7.5045    3.3751   -2.0353 H       1  UNL1        0.0618
     49 H          -8.8332    1.3721   -1.5319 H       1  UNL1        0.0618
     50 H          -7.9369   -0.3619   -0.0986 H       1  UNL1        0.0620
     51 H          -2.0715   -2.1334    2.2092 H       1  UNL1        0.0478
     52 H          -0.6177   -2.5615    1.1984 H       1  UNL1        0.0478
     53 H          -1.1326    0.2023    2.4463 H       1  UNL1        0.0459
     54 H          -0.0275   -1.0904    3.1419 H       1  UNL1        0.0459
     55 H           2.8307   -1.1885   -1.3032 H       1  UNL1        0.0638
     56 H           4.8181   -0.0882   -2.3109 H       1  UNL1        0.0637
@<TRIPOS>BOND
     1     1     2    2
     2     2     3    1
     3     3     4    2
     4     3     5   am
     5     5     6    1
     6     6     7   ar
     7     7     8   ar
     8     8     9   ar
     9     9    10    1
    10    10    11    2
    11    10    12    2
    12    10    13    1
    13    13    14    1
    14    14    15    1
    15    15    16    1
    16    16    17   am
    17    17    18    2
    18    17    19    1
    19    19    20    1
    20    20    21    1
    21    21    22    1
    22    22    23   ar
    23    23    24   ar
    24    24    25   ar
    25    25    26   ar
    26    26    27   ar
    27    16    28    1
    28    28    29    1
    29     9    30   ar
    30    30    31   ar
    31    31     6   ar
    32    29    13    1
    33    21    19    1
    34    27    22   ar
    35     1    32    1
    36     1    33    1
    37     2    34    1
    38     5    35    1
    39     7    36    1
    40     8    37    1
    41    14    38    1
    42    14    39    1
    43    15    40    1
    44    15    41    1
    45    19    42    1
    46    20    43    1
    47    20    44    1
    48    21    45    1
    49    23    46    1
    50    24    47    1
    51    25    48    1
    52    26    49    1
    53    27    50    1
    54    28    51    1
    55    28    52    1
    56    29    53    1
    57    29    54    1
    58    30    55    1
    59    31    56    1
