@<TRIPOS>MOLECULE
*****
 49 52 0 0 0
SMALL
GASTEIGER

@<TRIPOS>ATOM
      1 F          -7.9173   -2.0205   -0.5847 F       1  UNL1       -0.1659
      2 C          -6.6215   -2.3680   -0.2326 C.3     1  UNL1        0.4175
      3 F          -6.0649   -2.9682   -1.3615 F       1  UNL1       -0.1659
      4 F          -6.6155   -3.2607    0.8136 F       1  UNL1       -0.1659
      5 C          -5.8518   -1.1464    0.0543 C.ar    1  UNL1        0.0566
      6 C          -4.4730   -1.1452   -0.0025 C.ar    1  UNL1       -0.0290
      7 C          -3.7194   -0.0193    0.2593 C.ar    1  UNL1        0.0303
      8 C          -4.4140    1.1236    0.5856 C.ar    1  UNL1       -0.0406
      9 C          -5.8038    1.1577    0.6521 C.ar    1  UNL1       -0.0595
     10 C          -6.5467    0.0161    0.3857 C.ar    1  UNL1       -0.0500
     11 N          -2.3064    0.0568    0.2200 N.pl3   1  UNL1       -0.3274
     12 C          -1.5417    1.2416    0.4930 C.3     1  UNL1        0.0250
     13 C          -0.2498    1.2180   -0.3342 C.3     1  UNL1        0.0147
     14 N           0.6251    0.1574    0.1015 N.3     1  UNL1       -0.2977
     15 C           1.5356    0.5500    1.1264 C.3     1  UNL1        0.0172
     16 C           2.5948    1.5267    0.7056 C.3     1  UNL1        0.0409
     17 N           3.4574    1.0739   -0.3386 N.ar    1  UNL1       -0.2910
     18 C           3.2646    1.2375   -1.6600 C.ar    1  UNL1        0.3276
     19 O           2.3214    1.8030   -2.2715 O.2     1  UNL1       -0.2465
     20 N           4.2985    0.6722   -2.3399 N.ar    1  UNL1       -0.3060
     21 C           5.1493    0.1472   -1.4113 C.ar    1  UNL1        0.0670
     22 C           6.3421   -0.5311   -1.5586 C.ar    1  UNL1       -0.0362
     23 C           7.0673   -0.9909   -0.4722 C.ar    1  UNL1       -0.0597
     24 C           6.5407   -0.7400    0.7965 C.ar    1  UNL1       -0.0597
     25 C           5.3423   -0.0577    0.9214 C.ar    1  UNL1       -0.0360
     26 C           4.6209    0.3998   -0.1617 C.ar    1  UNL1        0.0697
     27 C          -0.1307   -0.9895    0.5612 C.3     1  UNL1        0.0147
     28 C          -1.4774   -1.1010   -0.1123 C.3     1  UNL1        0.0250
     29 H          -3.9338   -2.0531   -0.2614 H       1  UNL1        0.0641
     30 H          -3.9998    2.0831    0.8182 H       1  UNL1        0.0636
     31 H          -6.4003    2.0205    0.9015 H       1  UNL1        0.0618
     32 H          -7.6270   -0.0295    0.4185 H       1  UNL1        0.0623
     33 H          -2.1044    2.1208    0.0654 H       1  UNL1        0.0476
     34 H          -1.3376    1.4283    1.5506 H       1  UNL1        0.0476
     35 H          -0.5572    0.9787   -1.3891 H       1  UNL1        0.0442
     36 H           0.2151    2.1959   -0.2324 H       1  UNL1        0.0442
     37 H           1.9726   -0.3385    1.6235 H       1  UNL1        0.0444
     38 H           0.9384    1.0657    1.9225 H       1  UNL1        0.0444
     39 H           3.2331    1.7467    1.5932 H       1  UNL1        0.0506
     40 H           2.1322    2.4818    0.3882 H       1  UNL1        0.0506
     41 H           4.4960    0.6009   -3.3731 H       1  UNL1        0.1704
     42 H           6.7973   -0.7535   -2.5141 H       1  UNL1        0.0639
     43 H           8.0035   -1.5262   -0.5393 H       1  UNL1        0.0618
     44 H           7.0550   -1.0719    1.7128 H       1  UNL1        0.0618
     45 H           4.8763    0.1708    1.8929 H       1  UNL1        0.0639
     46 H          -0.2982   -0.9403    1.6543 H       1  UNL1        0.0442
     47 H           0.3992   -1.9422    0.3546 H       1  UNL1        0.0442
     48 H          -1.3667   -1.2242   -1.2021 H       1  UNL1        0.0476
     49 H          -1.9198   -2.0566    0.2604 H       1  UNL1        0.0476
@<TRIPOS>BOND
     1     1     2    1
     2     2     3    1
     3     2     4    1
     4     2     5    1
     5     5     6   ar
     6     6     7   ar
     7     7     8   ar
     8     8     9   ar
     9     9    10   ar
    10     7    11    1
    11    11    12    1
    12    12    13    1
    13    13    14    1
    14    14    15    1
    15    15    16    1
    16    16    17    1
    17    17    18   ar
    18    18    19    2
    19    18    20   ar
    20    20    21   ar
    21    21    22   ar
    22    22    23   ar
    23    23    24   ar
    24    24    25   ar
    25    25    26   ar
    26    14    27    1
    27    27    28    1
    28    10     5   ar
    29    28    11    1
    30    26    17   ar
    31    26    21   ar
    32     6    29    1
    33     8    30    1
    34     9    31    1
    35    10    32    1
    36    12    33    1
    37    12    34    1
    38    13    35    1
    39    13    36    1
    40    15    37    1
    41    15    38    1
    42    16    39    1
    43    16    40    1
    44    20    41    1
    45    22    42    1
    46    23    43    1
    47    24    44    1
    48    25    45    1
    49    27    46    1
    50    27    47    1
    51    28    48    1
    52    28    49    1
