@<TRIPOS>MOLECULE
*****
 48 50 0 0 0
SMALL
GASTEIGER

@<TRIPOS>ATOM
      1 C          10.3700   -0.5454   -0.1516 C.3     1  UNL1        0.0004
      2 N           9.0411    0.0460   -0.2095 N.am    1  UNL1       -0.3132
      3 C           7.8587   -0.7241   -0.0773 C.2     1  UNL1        0.2623
      4 O           8.0065   -1.9614    0.0952 O.2     1  UNL1       -0.2685
      5 C           6.5244   -0.1236   -0.1363 C.ar    1  UNL1        0.1288
      6 C           5.4029   -0.9088   -0.0032 C.ar    1  UNL1        0.0112
      7 C           4.1225   -0.3509   -0.0573 C.ar    1  UNL1        0.1321
      8 O           3.0191   -1.1710    0.0805 O.3     1  UNL1       -0.4559
      9 C           1.7527   -0.5983    0.0239 C.ar    1  UNL1        0.1286
     10 C           1.0625   -0.4604   -1.1639 C.ar    1  UNL1       -0.0176
     11 C          -0.1895    0.1127   -1.1743 C.ar    1  UNL1       -0.0370
     12 C          -0.7974    0.5655   -0.0210 C.ar    1  UNL1        0.0350
     13 N          -2.1109    1.1570   -0.0966 N.am    1  UNL1       -0.2692
     14 C          -3.2519    0.2922    0.0400 C.2     1  UNL1        0.3081
     15 O          -3.0251   -0.9053    0.2137 O.2     1  UNL1       -0.2522
     16 N          -4.5603    0.7926   -0.0224 N.am    1  UNL1       -0.2692
     17 C          -5.7529    0.0508    0.0966 C.ar    1  UNL1        0.0354
     18 C          -5.7945   -1.2970    0.2947 C.ar    1  UNL1       -0.0390
     19 C          -7.0198   -1.9719    0.4041 C.ar    1  UNL1       -0.0411
     20 C          -8.2138   -1.2953    0.3150 C.ar    1  UNL1        0.0527
     21 CL         -9.7427   -2.1092    0.4474 Cl      1  UNL1       -0.0830
     22 C          -8.1833    0.0654    0.1151 C.ar    1  UNL1        0.0748
     23 C          -9.4296    0.8673    0.0080 C.3     1  UNL1        0.4188
     24 F         -10.2008    0.4333   -1.0528 F       1  UNL1       -0.1658
     25 F          -9.1321    2.2014   -0.1309 F       1  UNL1       -0.1658
     26 F         -10.1069    0.7184    1.2139 F       1  UNL1       -0.1658
     27 C          -6.9601    0.7189    0.0088 C.ar    1  UNL1       -0.0274
     28 C          -0.1303    0.4374    1.1617 C.ar    1  UNL1       -0.0370
     29 C           1.1212   -0.1370    1.1617 C.ar    1  UNL1       -0.0176
     30 C           3.9972    1.0014   -0.2465 C.ar    1  UNL1       -0.0012
     31 C           5.1388    1.7658   -0.3771 C.ar    1  UNL1        0.0319
     32 N           6.3682    1.1971   -0.3204 N.ar    1  UNL1       -0.2501
     33 H          10.3368   -1.5416   -0.6165 H       1  UNL1        0.0426
     34 H          10.7449   -0.5643    0.8933 H       1  UNL1        0.0426
     35 H          11.0634    0.1159   -0.7145 H       1  UNL1        0.0426
     36 H           8.9448    1.0626   -0.3516 H       1  UNL1        0.1487
     37 H           5.5594   -1.9725    0.1445 H       1  UNL1        0.0677
     38 H           1.5375   -0.8177   -2.0893 H       1  UNL1        0.0655
     39 H          -0.7280    0.2161   -2.1293 H       1  UNL1        0.0637
     40 H          -2.2583    2.1770   -0.2450 H       1  UNL1        0.1564
     41 H          -4.6054    1.8572   -0.1781 H       1  UNL1        0.1564
     42 H          -4.9308   -1.9293    0.3801 H       1  UNL1        0.0636
     43 H          -7.0539   -3.0354    0.5604 H       1  UNL1        0.0633
     44 H          -6.9274    1.7866   -0.1481 H       1  UNL1        0.0642
     45 H          -0.5782    0.7792    2.0659 H       1  UNL1        0.0637
     46 H           1.6682   -0.2450    2.1119 H       1  UNL1        0.0655
     47 H           3.0024    1.4166   -0.2859 H       1  UNL1        0.0669
     48 H           5.0406    2.8312   -0.5261 H       1  UNL1        0.0831
@<TRIPOS>BOND
     1     1     2    1
     2     2     3   am
     3     3     4    2
     4     3     5    1
     5     5     6   ar
     6     6     7   ar
     7     7     8    1
     8     8     9    1
     9     9    10   ar
    10    10    11   ar
    11    11    12   ar
    12    12    13    1
    13    13    14   am
    14    14    15    2
    15    14    16   am
    16    16    17    1
    17    17    18   ar
    18    18    19   ar
    19    19    20   ar
    20    20    21    1
    21    20    22   ar
    22    22    23    1
    23    23    24    1
    24    23    25    1
    25    23    26    1
    26    22    27   ar
    27    12    28   ar
    28    28    29   ar
    29     7    30   ar
    30    30    31   ar
    31    31    32   ar
    32    32     5   ar
    33    29     9   ar
    34    27    17   ar
    35     1    33    1
    36     1    34    1
    37     1    35    1
    38     2    36    1
    39     6    37    1
    40    10    38    1
    41    11    39    1
    42    13    40    1
    43    16    41    1
    44    18    42    1
    45    19    43    1
    46    27    44    1
    47    28    45    1
    48    29    46    1
    49    30    47    1
    50    31    48    1
