
     RDKit          3D

 36 38  0  0  0  0  0  0  0  0999 V2000
   -6.3897   -0.8516    1.6398 C   0  0  0  0  0  0  0  0  0  0  0  0
   -5.5748    0.0292    0.7419 C   0  0  0  0  0  0  0  0  0  0  0  0
   -6.2000    0.8738   -0.1515 C   0  0  0  0  0  0  0  0  0  0  0  0
   -5.4260    1.6736   -0.9660 C   0  0  0  0  0  0  0  0  0  0  0  0
   -4.0532    1.5934   -0.8507 C   0  0  0  0  0  0  0  0  0  0  0  0
   -3.4150    0.7541    0.0376 C   0  0  0  0  0  0  0  0  0  0  0  0
   -1.9883    0.7095    0.1171 N   0  0  0  0  0  0  0  0  0  0  0  0
   -1.2850    0.0342   -0.6967 N   0  0  0  0  0  0  0  0  0  0  0  0
    0.1299    0.0343   -0.5599 C   0  0  0  0  0  0  0  0  0  0  0  0
    0.9298    1.1043   -0.8748 C   0  0  0  0  0  0  0  0  0  0  0  0
    2.3012    1.0674   -0.7286 C   0  0  0  0  0  0  0  0  0  0  0  0
    2.9324   -0.0564   -0.2554 C   0  0  0  0  0  0  0  0  0  0  0  0
    4.3734   -0.1496   -0.0817 C   0  0  0  0  0  0  0  0  0  0  0  0
    4.8969   -1.2323    0.3660 N   0  0  0  0  0  0  0  0  0  0  0  0
    6.2678   -1.4194    0.5672 N   0  0  0  0  0  0  0  0  0  0  0  0
    7.0920   -0.2900    0.2326 C   0  0  0  0  0  0  0  0  0  0  0  0
    8.2492   -0.1889    0.6693 O   0  0  0  0  0  0  0  0  0  0  0  0
    6.5245    0.7557   -0.6504 C   0  0  0  0  0  0  0  0  0  0  0  0
    5.1554    0.9445   -0.4071 O   0  0  0  0  0  0  0  0  0  0  0  0
    2.1405   -1.1374    0.0644 C   0  0  0  0  0  0  0  0  0  0  0  0
    0.7699   -1.1027   -0.0809 C   0  0  0  0  0  0  0  0  0  0  0  0
   -4.2077   -0.0410    0.8467 C   0  0  0  0  0  0  0  0  0  0  0  0
   -6.0458   -1.9136    1.5399 H   0  0  0  0  0  0  0  0  0  0  0  0
   -6.1346   -0.5509    2.6871 H   0  0  0  0  0  0  0  0  0  0  0  0
   -7.4574   -0.7438    1.4081 H   0  0  0  0  0  0  0  0  0  0  0  0
   -7.2851    0.8832   -0.1865 H   0  0  0  0  0  0  0  0  0  0  0  0
   -5.9005    2.3468   -1.6776 H   0  0  0  0  0  0  0  0  0  0  0  0
   -3.4228    2.2232   -1.4916 H   0  0  0  0  0  0  0  0  0  0  0  0
    0.4783    2.0112   -1.2511 H   0  0  0  0  0  0  0  0  0  0  0  0
    2.9046    1.9253   -0.9848 H   0  0  0  0  0  0  0  0  0  0  0  0
    6.6916   -2.2979    0.9304 H   0  0  0  0  0  0  0  0  0  0  0  0
    6.7546    0.5264   -1.7170 H   0  0  0  0  0  0  0  0  0  0  0  0
    7.0603    1.7143   -0.3996 H   0  0  0  0  0  0  0  0  0  0  0  0
    2.6353   -2.0239    0.4374 H   0  0  0  0  0  0  0  0  0  0  0  0
    0.2103   -1.9764    0.1853 H   0  0  0  0  0  0  0  0  0  0  0  0
   -3.7121   -0.6973    1.5412 H   0  0  0  0  0  0  0  0  0  0  0  0
  1  2  1  0
  2  3  2  0
  3  4  1  0
  4  5  2  0
  5  6  1  0
  6  7  1  0
  7  8  2  0
  8  9  1  0
  9 10  2  0
 10 11  1  0
 11 12  2  0
 12 13  1  0
 13 14  2  0
 14 15  1  0
 15 16  1  0
 16 17  2  0
 16 18  1  0
 18 19  1  0
 12 20  1  0
 20 21  2  0
  6 22  2  0
 22  2  1  0
 21  9  1  0
 19 13  1  0
  1 23  1  0
  1 24  1  0
  1 25  1  0
  3 26  1  0
  4 27  1  0
  5 28  1  0
 10 29  1  0
 11 30  1  0
 15 31  1  0
 18 32  1  0
 18 33  1  0
 20 34  1  0
 21 35  1  0
 22 36  1  0
M  END
$$$$
