@<TRIPOS>MOLECULE
*****
 36 38 0 0 0
SMALL
GASTEIGER

@<TRIPOS>ATOM
      1 C          -6.3897   -0.8516    1.6398 C.3     1  UNL1       -0.0396
      2 C          -5.5748    0.0292    0.7419 C.ar    1  UNL1       -0.0484
      3 C          -6.2000    0.8738   -0.1515 C.ar    1  UNL1       -0.0587
      4 C          -5.4260    1.6736   -0.9660 C.ar    1  UNL1       -0.0594
      5 C          -4.0532    1.5934   -0.8507 C.ar    1  UNL1       -0.0345
      6 C          -3.4150    0.7541    0.0376 C.ar    1  UNL1        0.0864
      7 N          -1.9883    0.7095    0.1171 N.2     1  UNL1       -0.1493
      8 N          -1.2850    0.0342   -0.6967 N.2     1  UNL1       -0.1493
      9 C           0.1299    0.0343   -0.5599 C.ar    1  UNL1        0.0862
     10 C           0.9298    1.1043   -0.8748 C.ar    1  UNL1       -0.0338
     11 C           2.3012    1.0674   -0.7286 C.ar    1  UNL1       -0.0474
     12 C           2.9324   -0.0564   -0.2554 C.ar    1  UNL1        0.0379
     13 C           4.3734   -0.1496   -0.0817 C.2     1  UNL1        0.2379
     14 N           4.8969   -1.2323    0.3660 N.2     1  UNL1       -0.1417
     15 N           6.2678   -1.4194    0.5672 N.am    1  UNL1       -0.2008
     16 C           7.0920   -0.2900    0.2326 C.2     1  UNL1        0.2700
     17 O           8.2492   -0.1889    0.6693 O.2     1  UNL1       -0.2703
     18 C           6.5245    0.7557   -0.6504 C.3     1  UNL1        0.1685
     19 O           5.1554    0.9445   -0.4071 O.2     1  UNL1       -0.4656
     20 C           2.1405   -1.1374    0.0644 C.ar    1  UNL1       -0.0474
     21 C           0.7699   -1.1027   -0.0809 C.ar    1  UNL1       -0.0338
     22 C          -4.2077   -0.0410    0.8467 C.ar    1  UNL1       -0.0316
     23 H          -6.0458   -1.9136    1.5399 H       1  UNL1        0.0278
     24 H          -6.1346   -0.5509    2.6871 H       1  UNL1        0.0278
     25 H          -7.4574   -0.7438    1.4081 H       1  UNL1        0.0278
     26 H          -7.2851    0.8832   -0.1865 H       1  UNL1        0.0620
     27 H          -5.9005    2.3468   -1.6776 H       1  UNL1        0.0618
     28 H          -3.4228    2.2232   -1.4916 H       1  UNL1        0.0639
     29 H           0.4783    2.0112   -1.2511 H       1  UNL1        0.0639
     30 H           2.9046    1.9253   -0.9848 H       1  UNL1        0.0626
     31 H           6.6916   -2.2979    0.9304 H       1  UNL1        0.1775
     32 H           6.7546    0.5264   -1.7170 H       1  UNL1        0.0796
     33 H           7.0603    1.7143   -0.3996 H       1  UNL1        0.0796
     34 H           2.6353   -2.0239    0.4374 H       1  UNL1        0.0626
     35 H           0.2103   -1.9764    0.1853 H       1  UNL1        0.0639
     36 H          -3.7121   -0.6973    1.5412 H       1  UNL1        0.0642
@<TRIPOS>BOND
     1     1     2    1
     2     2     3   ar
     3     3     4   ar
     4     4     5   ar
     5     5     6   ar
     6     6     7    1
     7     7     8    2
     8     8     9    1
     9     9    10   ar
    10    10    11   ar
    11    11    12   ar
    12    12    13    1
    13    13    14    2
    14    14    15    1
    15    15    16   am
    16    16    17    2
    17    16    18    1
    18    18    19    1
    19    12    20   ar
    20    20    21   ar
    21     6    22   ar
    22    22     2   ar
    23    21     9   ar
    24    19    13    1
    25     1    23    1
    26     1    24    1
    27     1    25    1
    28     3    26    1
    29     4    27    1
    30     5    28    1
    31    10    29    1
    32    11    30    1
    33    15    31    1
    34    18    32    1
    35    18    33    1
    36    20    34    1
    37    21    35    1
    38    22    36    1
