@<TRIPOS>MOLECULE
*****
 53 57 0 0 0
SMALL
GASTEIGER

@<TRIPOS>ATOM
      1 C          -2.7606   -2.0899    2.2769 C.3     1  UNL1       -0.0220
      2 C          -1.6667   -2.5929    1.4199 C.ar    1  UNL1        0.0471
      3 C          -0.7381   -1.8128    0.7385 C.ar    1  UNL1        0.0643
      4 C          -0.5167   -0.4617    0.6205 C.ar    1  UNL1        0.1324
      5 O          -1.3231    0.4117    1.2711 O.3     1  UNL1       -0.4880
      6 C          -1.2907    1.7993    1.2990 C.3     1  UNL1        0.1021
      7 C          -1.1802    2.3772    2.6799 C.3     1  UNL1       -0.0275
      8 C          -2.6137    2.3028    0.7042 C.3     1  UNL1        0.0195
      9 C          -2.7773    1.8220   -0.7152 C.3     1  UNL1        0.0182
     10 N          -4.2166    1.8308   -0.8843 N.am    1  UNL1       -0.3149
     11 C          -4.8198    1.4808    0.3630 C.2     1  UNL1        0.2135
     12 O          -5.9841    1.0935    0.5889 O.2     1  UNL1       -0.2758
     13 C          -3.7900    1.6593    1.4053 C.3     1  UNL1        0.0315
     14 C           0.5220   -0.0190   -0.1577 C.ar    1  UNL1       -0.0113
     15 C           1.3456   -0.9107   -0.8224 C.ar    1  UNL1       -0.0094
     16 C           2.4635   -0.4290   -1.6600 C.ar    1  UNL1        0.0198
     17 C           2.9514   -1.0536   -2.7856 C.ar    1  UNL1        0.0571
     18 N           3.9589   -0.2825   -3.2335 N.ar    1  UNL1       -0.1788
     19 N           4.1374    0.7745   -2.4750 N.ar    1  UNL1       -0.2678
     20 C           5.1385    1.8354   -2.6526 C.3     1  UNL1        0.0528
     21 C           6.5385    1.3215   -3.0681 C.3     1  UNL1       -0.0286
     22 C           6.2890    1.9192   -1.7487 C.3     1  UNL1       -0.0286
     23 C           3.2178    0.6963   -1.4967 C.ar    1  UNL1        0.0335
     24 C           1.1059   -2.2420   -0.6897 C.ar    1  UNL1       -0.0259
     25 C           0.0799   -2.7292    0.0772 C.ar    1  UNL1        0.0971
     26 N          -0.3789   -3.9719    0.3812 N.ar    1  UNL1       -0.1711
     27 N          -1.4253   -3.8956    1.1854 N.ar    1  UNL1       -0.2704
     28 C          -2.1458   -5.0503    1.6931 C.3     1  UNL1        0.0305
     29 H          -3.6299   -1.7470    1.6783 H       1  UNL1        0.0293
     30 H          -2.4306   -1.2557    2.9505 H       1  UNL1        0.0293
     31 H          -3.1301   -2.8962    2.9464 H       1  UNL1        0.0293
     32 H          -0.4745    2.2656    0.6982 H       1  UNL1        0.0733
     33 H          -0.6181    3.3372    2.6776 H       1  UNL1        0.0265
     34 H          -2.1961    2.5709    3.0670 H       1  UNL1        0.0265
     35 H          -0.7188    1.6318    3.3595 H       1  UNL1        0.0265
     36 H          -2.6804    3.4019    0.7661 H       1  UNL1        0.0356
     37 H          -2.2922    2.5392   -1.4270 H       1  UNL1        0.0466
     38 H          -2.3316    0.8162   -0.8340 H       1  UNL1        0.0466
     39 H          -4.7698    2.0480   -1.7450 H       1  UNL1        0.1487
     40 H          -3.5009    0.6730    1.8261 H       1  UNL1        0.0363
     41 H          -4.1514    2.2853    2.2517 H       1  UNL1        0.0363
     42 H           0.7712    1.0273   -0.3087 H       1  UNL1        0.0660
     43 H           2.5752   -1.9798   -3.1994 H       1  UNL1        0.0854
     44 H           4.8106    2.7663   -3.1553 H       1  UNL1        0.0545
     45 H           7.0317    1.8746   -3.8943 H       1  UNL1        0.0286
     46 H           6.6770    0.2174   -3.0838 H       1  UNL1        0.0286
     47 H           6.3611    1.2966   -0.8327 H       1  UNL1        0.0286
     48 H           6.7416    2.9403   -1.5949 H       1  UNL1        0.0286
     49 H           3.0903    1.4104   -0.7008 H       1  UNL1        0.0832
     50 H           1.7311   -2.9672   -1.1960 H       1  UNL1        0.0646
     51 H          -2.6085   -4.8526    2.6864 H       1  UNL1        0.0473
     52 H          -1.4466   -5.8940    1.8032 H       1  UNL1        0.0473
     53 H          -2.9311   -5.2931    0.9463 H       1  UNL1        0.0473
@<TRIPOS>BOND
     1     1     2    1
     2     2     3   ar
     3     3     4   ar
     4     4     5    1
     5     5     6    1
     6     6     7    1
     7     6     8    1
     8     8     9    1
     9     9    10    1
    10    10    11   am
    11    11    12    2
    12    11    13    1
    13     4    14   ar
    14    14    15   ar
    15    15    16    1
    16    16    17   ar
    17    17    18   ar
    18    18    19   ar
    19    19    20    1
    20    20    21    1
    21    21    22    1
    22    19    23   ar
    23    15    24   ar
    24    24    25   ar
    25    25    26   ar
    26    26    27   ar
    27    27    28    1
    28    27     2   ar
    29    25     3   ar
    30    13     8    1
    31    23    16   ar
    32    22    20    1
    33     1    29    1
    34     1    30    1
    35     1    31    1
    36     6    32    1
    37     7    33    1
    38     7    34    1
    39     7    35    1
    40     8    36    1
    41     9    37    1
    42     9    38    1
    43    10    39    1
    44    13    40    1
    45    13    41    1
    46    14    42    1
    47    17    43    1
    48    20    44    1
    49    21    45    1
    50    21    46    1
    51    22    47    1
    52    22    48    1
    53    23    49    1
    54    24    50    1
    55    28    51    1
    56    28    52    1
    57    28    53    1
