
     RDKit          3D

 53 57  0  0  0  0  0  0  0  0999 V2000
   -2.7606   -2.0899    2.2769 C   0  0  0  0  0  0  0  0  0  0  0  0
   -1.6667   -2.5929    1.4199 C   0  0  0  0  0  0  0  0  0  0  0  0
   -0.7381   -1.8128    0.7385 C   0  0  0  0  0  0  0  0  0  0  0  0
   -0.5167   -0.4617    0.6205 C   0  0  0  0  0  0  0  0  0  0  0  0
   -1.3231    0.4117    1.2711 O   0  0  0  0  0  0  0  0  0  0  0  0
   -1.2907    1.7993    1.2990 C   0  0  2  0  0  0  0  0  0  0  0  0
   -1.1802    2.3772    2.6799 C   0  0  0  0  0  0  0  0  0  0  0  0
   -2.6137    2.3028    0.7042 C   0  0  1  0  0  0  0  0  0  0  0  0
   -2.7773    1.8220   -0.7152 C   0  0  0  0  0  0  0  0  0  0  0  0
   -4.2166    1.8308   -0.8843 N   0  0  0  0  0  0  0  0  0  0  0  0
   -4.8198    1.4808    0.3630 C   0  0  0  0  0  0  0  0  0  0  0  0
   -5.9841    1.0935    0.5889 O   0  0  0  0  0  0  0  0  0  0  0  0
   -3.7900    1.6593    1.4053 C   0  0  0  0  0  0  0  0  0  0  0  0
    0.5220   -0.0190   -0.1577 C   0  0  0  0  0  0  0  0  0  0  0  0
    1.3456   -0.9107   -0.8224 C   0  0  0  0  0  0  0  0  0  0  0  0
    2.4635   -0.4290   -1.6600 C   0  0  0  0  0  0  0  0  0  0  0  0
    2.9514   -1.0536   -2.7856 C   0  0  0  0  0  0  0  0  0  0  0  0
    3.9589   -0.2825   -3.2335 N   0  0  0  0  0  0  0  0  0  0  0  0
    4.1374    0.7745   -2.4750 N   0  0  0  0  0  0  0  0  0  0  0  0
    5.1385    1.8354   -2.6526 C   0  0  0  0  0  0  0  0  0  0  0  0
    6.5385    1.3215   -3.0681 C   0  0  0  0  0  0  0  0  0  0  0  0
    6.2890    1.9192   -1.7487 C   0  0  0  0  0  0  0  0  0  0  0  0
    3.2178    0.6963   -1.4967 C   0  0  0  0  0  0  0  0  0  0  0  0
    1.1059   -2.2420   -0.6897 C   0  0  0  0  0  0  0  0  0  0  0  0
    0.0799   -2.7292    0.0772 C   0  0  0  0  0  0  0  0  0  0  0  0
   -0.3789   -3.9719    0.3812 N   0  0  0  0  0  0  0  0  0  0  0  0
   -1.4253   -3.8956    1.1854 N   0  0  0  0  0  0  0  0  0  0  0  0
   -2.1458   -5.0503    1.6931 C   0  0  0  0  0  0  0  0  0  0  0  0
   -3.6299   -1.7470    1.6783 H   0  0  0  0  0  0  0  0  0  0  0  0
   -2.4306   -1.2557    2.9505 H   0  0  0  0  0  0  0  0  0  0  0  0
   -3.1301   -2.8962    2.9464 H   0  0  0  0  0  0  0  0  0  0  0  0
   -0.4745    2.2656    0.6982 H   0  0  0  0  0  0  0  0  0  0  0  0
   -0.6181    3.3372    2.6776 H   0  0  0  0  0  0  0  0  0  0  0  0
   -2.1961    2.5709    3.0670 H   0  0  0  0  0  0  0  0  0  0  0  0
   -0.7188    1.6318    3.3595 H   0  0  0  0  0  0  0  0  0  0  0  0
   -2.6804    3.4019    0.7661 H   0  0  0  0  0  0  0  0  0  0  0  0
   -2.2922    2.5392   -1.4270 H   0  0  0  0  0  0  0  0  0  0  0  0
   -2.3316    0.8162   -0.8340 H   0  0  0  0  0  0  0  0  0  0  0  0
   -4.7698    2.0480   -1.7450 H   0  0  0  0  0  0  0  0  0  0  0  0
   -3.5009    0.6730    1.8261 H   0  0  0  0  0  0  0  0  0  0  0  0
   -4.1514    2.2853    2.2517 H   0  0  0  0  0  0  0  0  0  0  0  0
    0.7712    1.0273   -0.3087 H   0  0  0  0  0  0  0  0  0  0  0  0
    2.5752   -1.9798   -3.1994 H   0  0  0  0  0  0  0  0  0  0  0  0
    4.8106    2.7663   -3.1553 H   0  0  0  0  0  0  0  0  0  0  0  0
    7.0317    1.8746   -3.8943 H   0  0  0  0  0  0  0  0  0  0  0  0
    6.6770    0.2174   -3.0838 H   0  0  0  0  0  0  0  0  0  0  0  0
    6.3611    1.2966   -0.8327 H   0  0  0  0  0  0  0  0  0  0  0  0
    6.7416    2.9403   -1.5949 H   0  0  0  0  0  0  0  0  0  0  0  0
    3.0903    1.4104   -0.7008 H   0  0  0  0  0  0  0  0  0  0  0  0
    1.7311   -2.9672   -1.1960 H   0  0  0  0  0  0  0  0  0  0  0  0
   -2.6085   -4.8526    2.6864 H   0  0  0  0  0  0  0  0  0  0  0  0
   -1.4466   -5.8940    1.8032 H   0  0  0  0  0  0  0  0  0  0  0  0
   -2.9311   -5.2931    0.9463 H   0  0  0  0  0  0  0  0  0  0  0  0
  1  2  1  0
  2  3  2  0
  3  4  1  0
  4  5  1  0
  5  6  1  0
  6  7  1  0
  6  8  1  0
  8  9  1  0
  9 10  1  0
 10 11  1  0
 11 12  2  0
 11 13  1  0
  4 14  2  0
 14 15  1  0
 15 16  1  0
 16 17  1  0
 17 18  2  0
 18 19  1  0
 19 20  1  0
 20 21  1  0
 21 22  1  0
 19 23  1  0
 15 24  2  0
 24 25  1  0
 25 26  2  0
 26 27  1  0
 27 28  1  0
 27  2  1  0
 25  3  1  0
 13  8  1  0
 23 16  2  0
 22 20  1  0
  1 29  1  0
  1 30  1  0
  1 31  1  0
  6 32  1  6
  7 33  1  0
  7 34  1  0
  7 35  1  0
  8 36  1  6
  9 37  1  0
  9 38  1  0
 10 39  1  0
 13 40  1  0
 13 41  1  0
 14 42  1  0
 17 43  1  0
 20 44  1  0
 21 45  1  0
 21 46  1  0
 22 47  1  0
 22 48  1  0
 23 49  1  0
 24 50  1  0
 28 51  1  0
 28 52  1  0
 28 53  1  0
M  END
$$$$
