@<TRIPOS>MOLECULE
*****
 62 66 0 0 0
SMALL
GASTEIGER

@<TRIPOS>ATOM
      1 C          -1.4899    4.3064    0.2550 C.3     1  UNL1       -0.0653
      2 C          -2.8380    3.6359    0.2364 C.3     1  UNL1       -0.0556
      3 C          -3.0410    2.7919    1.4300 C.3     1  UNL1       -0.0478
      4 C          -2.1895    1.5951    1.6234 C.3     1  UNL1       -0.0084
      5 C          -2.3275    0.5189    0.6299 C.ar    1  UNL1        0.0677
      6 N          -3.2780   -0.4679    0.8284 N.ar    1  UNL1       -0.1703
      7 N          -3.3222   -1.2956   -0.1624 N.ar    1  UNL1       -0.2237
      8 C          -4.2192   -2.4211   -0.2421 C.ar    1  UNL1        0.0859
      9 C          -3.8793   -3.6463    0.2541 C.ar    1  UNL1       -0.0165
     10 C          -4.7097   -4.7588    0.2017 C.ar    1  UNL1        0.0431
     11 CL         -4.1848   -6.2822    0.8619 Cl      1  UNL1       -0.0835
     12 C          -5.9439   -4.6034   -0.3865 C.ar    1  UNL1       -0.0419
     13 C          -6.3229   -3.3814   -0.8988 C.ar    1  UNL1       -0.0399
     14 C          -5.4729   -2.2897   -0.8323 C.ar    1  UNL1        0.0664
     15 CL         -5.9875   -0.7636   -1.4912 Cl      1  UNL1       -0.0813
     16 C          -2.4098   -0.9202   -1.0828 C.ar    1  UNL1        0.1548
     17 C          -2.1902   -1.6045   -2.3188 C.2     1  UNL1        0.3557
     18 O          -1.3611   -1.2848   -3.2079 O.2     1  UNL1       -0.2434
     19 O          -2.9604   -2.7549   -2.6030 O.3     1  UNL1       -0.4761
     20 C          -1.7904    0.2206   -0.5704 C.ar    1  UNL1        0.0123
     21 C          -0.6932    0.8938   -1.2682 C.3     1  UNL1        0.0016
     22 C           0.6637    0.5635   -0.7375 C.ar    1  UNL1       -0.0429
     23 C           1.3425   -0.6007   -1.0512 C.ar    1  UNL1       -0.0577
     24 C           2.5934   -0.9033   -0.5782 C.ar    1  UNL1       -0.0537
     25 C           3.2454   -0.0113    0.2669 C.ar    1  UNL1       -0.0172
     26 C           4.5382   -0.3066    0.8308 C.ar    1  UNL1       -0.0072
     27 C           4.5788   -1.2828    1.8459 C.ar    1  UNL1       -0.0534
     28 C           5.7449   -1.6056    2.4936 C.ar    1  UNL1       -0.0611
     29 C           6.9107   -0.9690    2.1546 C.ar    1  UNL1       -0.0611
     30 C           6.8911   -0.0230    1.1748 C.ar    1  UNL1       -0.0504
     31 C           5.6772    0.3119    0.4997 C.ar    1  UNL1        0.0282
     32 C           5.7946    1.2825   -0.5669 C.ar    1  UNL1        0.1799
     33 N           6.8631    2.1009   -0.7851 N.ar    1  UNL1       -0.1084
     34 N           6.6215    2.8779   -1.8149 N.ar    1  UNL1       -0.0229
     35 N           5.4228    2.6052   -2.2938 N.ar    1  UNL1       -0.0464
     36 N           4.9248    1.6122   -1.5070 N.ar    1  UNL1       -0.2388
     37 C           2.5716    1.1762    0.5959 C.ar    1  UNL1       -0.0537
     38 C           1.3127    1.4485    0.1013 C.ar    1  UNL1       -0.0577
     39 H          -0.8830    3.8337    1.0516 H       1  UNL1        0.0230
     40 H          -1.0318    4.2684   -0.7500 H       1  UNL1        0.0230
     41 H          -1.6775    5.3834    0.5432 H       1  UNL1        0.0230
     42 H          -3.6567    4.4159    0.1500 H       1  UNL1        0.0263
     43 H          -2.9246    3.0171   -0.6900 H       1  UNL1        0.0263
     44 H          -4.1344    2.4696    1.4068 H       1  UNL1        0.0269
     45 H          -3.0075    3.4382    2.3767 H       1  UNL1        0.0269
     46 H          -2.4408    1.1722    2.6444 H       1  UNL1        0.0329
     47 H          -1.1174    1.9231    1.6406 H       1  UNL1        0.0329
     48 H          -2.9213   -3.7910    0.7190 H       1  UNL1        0.0654
     49 H          -6.6036   -5.4665   -0.4340 H       1  UNL1        0.0633
     50 H          -7.3001   -3.2748   -1.3616 H       1  UNL1        0.0633
     51 H          -2.7738   -3.3169   -3.4181 H       1  UNL1        0.2955
     52 H          -0.6688    0.6878   -2.3550 H       1  UNL1        0.0363
     53 H          -0.8489    1.9841   -1.1865 H       1  UNL1        0.0363
     54 H           0.8769   -1.3254   -1.7014 H       1  UNL1        0.0621
     55 H           3.1189   -1.8203   -0.8321 H       1  UNL1        0.0624
     56 H           3.6641   -1.7779    2.1075 H       1  UNL1        0.0624
     57 H           5.7687   -2.3514    3.2664 H       1  UNL1        0.0618
     58 H           7.8678   -1.1958    2.6472 H       1  UNL1        0.0618
     59 H           7.7946    0.4771    0.9046 H       1  UNL1        0.0625
     60 H           3.9854    1.2265   -1.7227 H       1  UNL1        0.1923
     61 H           3.0433    1.8960    1.2517 H       1  UNL1        0.0624
     62 H           0.7848    2.3622    0.3336 H       1  UNL1        0.0621
@<TRIPOS>BOND
     1     1     2    1
     2     2     3    1
     3     3     4    1
     4     4     5    1
     5     5     6   ar
     6     6     7   ar
     7     7     8    1
     8     8     9   ar
     9     9    10   ar
    10    10    11    1
    11    10    12   ar
    12    12    13   ar
    13    13    14   ar
    14    14    15    1
    15     7    16   ar
    16    16    17    1
    17    17    18    2
    18    17    19    1
    19    16    20   ar
    20    20    21    1
    21    21    22    1
    22    22    23   ar
    23    23    24   ar
    24    24    25   ar
    25    25    26    1
    26    26    27   ar
    27    27    28   ar
    28    28    29   ar
    29    29    30   ar
    30    30    31   ar
    31    31    32    1
    32    32    33   ar
    33    33    34   ar
    34    34    35   ar
    35    35    36   ar
    36    25    37   ar
    37    37    38   ar
    38    20     5   ar
    39    38    22   ar
    40    14     8   ar
    41    31    26   ar
    42    36    32   ar
    43     1    39    1
    44     1    40    1
    45     1    41    1
    46     2    42    1
    47     2    43    1
    48     3    44    1
    49     3    45    1
    50     4    46    1
    51     4    47    1
    52     9    48    1
    53    12    49    1
    54    13    50    1
    55    19    51    1
    56    21    52    1
    57    21    53    1
    58    23    54    1
    59    24    55    1
    60    27    56    1
    61    28    57    1
    62    29    58    1
    63    30    59    1
    64    36    60    1
    65    37    61    1
    66    38    62    1
