
     RDKit          3D

 62 66  0  0  0  0  0  0  0  0999 V2000
   -1.4899    4.3064    0.2550 C   0  0  0  0  0  0  0  0  0  0  0  0
   -2.8380    3.6359    0.2364 C   0  0  0  0  0  0  0  0  0  0  0  0
   -3.0410    2.7919    1.4300 C   0  0  0  0  0  0  0  0  0  0  0  0
   -2.1895    1.5951    1.6234 C   0  0  0  0  0  0  0  0  0  0  0  0
   -2.3275    0.5189    0.6299 C   0  0  0  0  0  0  0  0  0  0  0  0
   -3.2780   -0.4679    0.8284 N   0  0  0  0  0  0  0  0  0  0  0  0
   -3.3222   -1.2956   -0.1624 N   0  0  0  0  0  0  0  0  0  0  0  0
   -4.2192   -2.4211   -0.2421 C   0  0  0  0  0  0  0  0  0  0  0  0
   -3.8793   -3.6463    0.2541 C   0  0  0  0  0  0  0  0  0  0  0  0
   -4.7097   -4.7588    0.2017 C   0  0  0  0  0  0  0  0  0  0  0  0
   -4.1848   -6.2822    0.8619 Cl  0  0  0  0  0  0  0  0  0  0  0  0
   -5.9439   -4.6034   -0.3865 C   0  0  0  0  0  0  0  0  0  0  0  0
   -6.3229   -3.3814   -0.8988 C   0  0  0  0  0  0  0  0  0  0  0  0
   -5.4729   -2.2897   -0.8323 C   0  0  0  0  0  0  0  0  0  0  0  0
   -5.9875   -0.7636   -1.4912 Cl  0  0  0  0  0  0  0  0  0  0  0  0
   -2.4098   -0.9202   -1.0828 C   0  0  0  0  0  0  0  0  0  0  0  0
   -2.1902   -1.6045   -2.3188 C   0  0  0  0  0  0  0  0  0  0  0  0
   -1.3611   -1.2848   -3.2079 O   0  0  0  0  0  0  0  0  0  0  0  0
   -2.9604   -2.7549   -2.6030 O   0  0  0  0  0  0  0  0  0  0  0  0
   -1.7904    0.2206   -0.5704 C   0  0  0  0  0  0  0  0  0  0  0  0
   -0.6932    0.8938   -1.2682 C   0  0  0  0  0  0  0  0  0  0  0  0
    0.6637    0.5635   -0.7375 C   0  0  0  0  0  0  0  0  0  0  0  0
    1.3425   -0.6007   -1.0512 C   0  0  0  0  0  0  0  0  0  0  0  0
    2.5934   -0.9033   -0.5782 C   0  0  0  0  0  0  0  0  0  0  0  0
    3.2454   -0.0113    0.2669 C   0  0  0  0  0  0  0  0  0  0  0  0
    4.5382   -0.3066    0.8308 C   0  0  0  0  0  0  0  0  0  0  0  0
    4.5788   -1.2828    1.8459 C   0  0  0  0  0  0  0  0  0  0  0  0
    5.7449   -1.6056    2.4936 C   0  0  0  0  0  0  0  0  0  0  0  0
    6.9107   -0.9690    2.1546 C   0  0  0  0  0  0  0  0  0  0  0  0
    6.8911   -0.0230    1.1748 C   0  0  0  0  0  0  0  0  0  0  0  0
    5.6772    0.3119    0.4997 C   0  0  0  0  0  0  0  0  0  0  0  0
    5.7946    1.2825   -0.5669 C   0  0  0  0  0  0  0  0  0  0  0  0
    6.8631    2.1009   -0.7851 N   0  0  0  0  0  0  0  0  0  0  0  0
    6.6215    2.8779   -1.8149 N   0  0  0  0  0  0  0  0  0  0  0  0
    5.4228    2.6052   -2.2938 N   0  0  0  0  0  0  0  0  0  0  0  0
    4.9248    1.6122   -1.5070 N   0  0  0  0  0  0  0  0  0  0  0  0
    2.5716    1.1762    0.5959 C   0  0  0  0  0  0  0  0  0  0  0  0
    1.3127    1.4485    0.1013 C   0  0  0  0  0  0  0  0  0  0  0  0
   -0.8830    3.8337    1.0516 H   0  0  0  0  0  0  0  0  0  0  0  0
   -1.0318    4.2684   -0.7500 H   0  0  0  0  0  0  0  0  0  0  0  0
   -1.6775    5.3834    0.5432 H   0  0  0  0  0  0  0  0  0  0  0  0
   -3.6567    4.4159    0.1500 H   0  0  0  0  0  0  0  0  0  0  0  0
   -2.9246    3.0171   -0.6900 H   0  0  0  0  0  0  0  0  0  0  0  0
   -4.1344    2.4696    1.4068 H   0  0  0  0  0  0  0  0  0  0  0  0
   -3.0075    3.4382    2.3767 H   0  0  0  0  0  0  0  0  0  0  0  0
   -2.4408    1.1722    2.6444 H   0  0  0  0  0  0  0  0  0  0  0  0
   -1.1174    1.9231    1.6406 H   0  0  0  0  0  0  0  0  0  0  0  0
   -2.9213   -3.7910    0.7190 H   0  0  0  0  0  0  0  0  0  0  0  0
   -6.6036   -5.4665   -0.4340 H   0  0  0  0  0  0  0  0  0  0  0  0
   -7.3001   -3.2748   -1.3616 H   0  0  0  0  0  0  0  0  0  0  0  0
   -2.7738   -3.3169   -3.4181 H   0  0  0  0  0  0  0  0  0  0  0  0
   -0.6688    0.6878   -2.3550 H   0  0  0  0  0  0  0  0  0  0  0  0
   -0.8489    1.9841   -1.1865 H   0  0  0  0  0  0  0  0  0  0  0  0
    0.8769   -1.3254   -1.7014 H   0  0  0  0  0  0  0  0  0  0  0  0
    3.1189   -1.8203   -0.8321 H   0  0  0  0  0  0  0  0  0  0  0  0
    3.6641   -1.7779    2.1075 H   0  0  0  0  0  0  0  0  0  0  0  0
    5.7687   -2.3514    3.2664 H   0  0  0  0  0  0  0  0  0  0  0  0
    7.8678   -1.1958    2.6472 H   0  0  0  0  0  0  0  0  0  0  0  0
    7.7946    0.4771    0.9046 H   0  0  0  0  0  0  0  0  0  0  0  0
    3.9854    1.2265   -1.7227 H   0  0  0  0  0  0  0  0  0  0  0  0
    3.0433    1.8960    1.2517 H   0  0  0  0  0  0  0  0  0  0  0  0
    0.7848    2.3622    0.3336 H   0  0  0  0  0  0  0  0  0  0  0  0
  1  2  1  0
  2  3  1  0
  3  4  1  0
  4  5  1  0
  5  6  2  0
  6  7  1  0
  7  8  1  0
  8  9  2  0
  9 10  1  0
 10 11  1  0
 10 12  2  0
 12 13  1  0
 13 14  2  0
 14 15  1  0
  7 16  1  0
 16 17  1  0
 17 18  2  0
 17 19  1  0
 16 20  2  0
 20 21  1  0
 21 22  1  0
 22 23  2  0
 23 24  1  0
 24 25  2  0
 25 26  1  0
 26 27  2  0
 27 28  1  0
 28 29  2  0
 29 30  1  0
 30 31  2  0
 31 32  1  0
 32 33  2  0
 33 34  1  0
 34 35  2  0
 35 36  1  0
 25 37  1  0
 37 38  2  0
 20  5  1  0
 38 22  1  0
 14  8  1  0
 31 26  1  0
 36 32  1  0
  1 39  1  0
  1 40  1  0
  1 41  1  0
  2 42  1  0
  2 43  1  0
  3 44  1  0
  3 45  1  0
  4 46  1  0
  4 47  1  0
  9 48  1  0
 12 49  1  0
 13 50  1  0
 19 51  1  0
 21 52  1  0
 21 53  1  0
 23 54  1  0
 24 55  1  0
 27 56  1  0
 28 57  1  0
 29 58  1  0
 30 59  1  0
 36 60  1  0
 37 61  1  0
 38 62  1  0
M  END
$$$$
