@<TRIPOS>MOLECULE
*****
 17 17 0 0 0
SMALL
GASTEIGER

@<TRIPOS>ATOM
      1 N           2.7750   -0.0835   -0.8769 N.3     1  UNL1       -0.2035
      2 S           1.9025   -0.3272    0.5961 S.O2    1  UNL1        0.0560
      3 O           2.3095    0.6539    1.6448 O.2     1  UNL1       -0.1533
      4 O           2.1843   -1.7008    1.1201 O.2     1  UNL1       -0.1533
      5 C           0.1776   -0.1778    0.2500 C.ar    1  UNL1        0.1052
      6 C          -0.6129   -1.2490   -0.1177 C.ar    1  UNL1       -0.0327
      7 C          -1.9571   -1.0586   -0.3737 C.ar    1  UNL1       -0.0246
      8 C          -2.5058    0.2083   -0.2601 C.ar    1  UNL1        0.1235
      9 F          -3.8350    0.4470   -0.5041 F       1  UNL1       -0.2055
     10 C          -1.6794    1.2407    0.1082 C.ar    1  UNL1       -0.0246
     11 C          -0.3236    1.1041    0.3767 C.ar    1  UNL1       -0.0327
     12 H           2.3283    0.7392   -1.3699 H       1  UNL1        0.1442
     13 H           3.7667    0.1084   -0.6071 H       1  UNL1        0.1442
     14 H          -0.1252   -2.2087   -0.1881 H       1  UNL1        0.0638
     15 H          -2.5815   -1.9023   -0.6637 H       1  UNL1        0.0647
     16 H          -2.1130    2.2415    0.1980 H       1  UNL1        0.0647
     17 H           0.2896    1.9647    0.6673 H       1  UNL1        0.0638
@<TRIPOS>BOND
     1     1     2    1
     2     2     3    2
     3     2     4    2
     4     2     5    1
     5     5     6   ar
     6     6     7   ar
     7     7     8   ar
     8     8     9    1
     9     8    10   ar
    10    10    11   ar
    11    11     5   ar
    12     1    12    1
    13     1    13    1
    14     6    14    1
    15     7    15    1
    16    10    16    1
    17    11    17    1
