
     RDKit          3D

 17 17  0  0  0  0  0  0  0  0999 V2000
    2.7750   -0.0835   -0.8769 N   0  0  0  0  0  0  0  0  0  0  0  0
    1.9025   -0.3272    0.5961 S   0  0  0  0  0  0  0  0  0  0  0  0
    2.3095    0.6539    1.6448 O   0  0  0  0  0  0  0  0  0  0  0  0
    2.1843   -1.7008    1.1201 O   0  0  0  0  0  0  0  0  0  0  0  0
    0.1776   -0.1778    0.2500 C   0  0  0  0  0  0  0  0  0  0  0  0
   -0.6129   -1.2490   -0.1177 C   0  0  0  0  0  0  0  0  0  0  0  0
   -1.9571   -1.0586   -0.3737 C   0  0  0  0  0  0  0  0  0  0  0  0
   -2.5058    0.2083   -0.2601 C   0  0  0  0  0  0  0  0  0  0  0  0
   -3.8350    0.4470   -0.5041 F   0  0  0  0  0  0  0  0  0  0  0  0
   -1.6794    1.2407    0.1082 C   0  0  0  0  0  0  0  0  0  0  0  0
   -0.3236    1.1041    0.3767 C   0  0  0  0  0  0  0  0  0  0  0  0
    2.3283    0.7392   -1.3699 H   0  0  0  0  0  0  0  0  0  0  0  0
    3.7667    0.1084   -0.6071 H   0  0  0  0  0  0  0  0  0  0  0  0
   -0.1252   -2.2087   -0.1881 H   0  0  0  0  0  0  0  0  0  0  0  0
   -2.5815   -1.9023   -0.6637 H   0  0  0  0  0  0  0  0  0  0  0  0
   -2.1130    2.2415    0.1980 H   0  0  0  0  0  0  0  0  0  0  0  0
    0.2896    1.9647    0.6673 H   0  0  0  0  0  0  0  0  0  0  0  0
  1  2  1  0
  2  3  2  0
  2  4  2  0
  2  5  1  0
  5  6  2  0
  6  7  1  0
  7  8  2  0
  8  9  1  0
  8 10  1  0
 10 11  2  0
 11  5  1  0
  1 12  1  0
  1 13  1  0
  6 14  1  0
  7 15  1  0
 10 16  1  0
 11 17  1  0
M  END
$$$$
