@<TRIPOS>MOLECULE
*****
 46 48 0 0 0
SMALL
GASTEIGER

@<TRIPOS>ATOM
      1 C          -3.7488    2.7923   -0.8412 C.3     1  UNL1       -0.0265
      2 C          -3.2300    1.4485   -0.3897 C.3     1  UNL1        0.1117
      3 C          -4.3342    0.6235    0.2467 C.3     1  UNL1        0.0352
      4 N          -5.3571    0.3510   -0.7104 N.3     1  UNL1       -0.3049
      5 C          -4.9825   -0.5380   -1.7630 C.3     1  UNL1       -0.0129
      6 C          -6.6360    0.0605   -0.1224 C.3     1  UNL1       -0.0129
      7 O          -2.6228    0.7908   -1.4854 O.3     1  UNL1       -0.4701
      8 C          -1.2899    0.4197   -1.3636 C.ar    1  UNL1        0.2538
      9 N          -0.5933    0.6402   -0.2146 N.ar    1  UNL1       -0.1938
     10 C           0.6914    0.2752   -0.1173 C.ar    1  UNL1        0.1461
     11 N           1.4514    0.4661    1.0780 N.pl3   1  UNL1       -0.2831
     12 C           2.8257    0.1472    1.1657 C.ar    1  UNL1        0.1245
     13 C           3.3456   -1.1189    1.0902 C.ar    1  UNL1       -0.0138
     14 C           4.7296   -1.2787    1.2104 C.ar    1  UNL1       -0.0118
     15 C           5.3000   -2.5222    1.1344 C.ar    1  UNL1       -0.0538
     16 C           6.6685   -2.6983    1.2442 C.ar    1  UNL1       -0.0598
     17 C           7.5003   -1.6171    1.4349 C.ar    1  UNL1       -0.0427
     18 C           6.9519   -0.3572    1.5150 C.ar    1  UNL1        0.0501
     19 CL          7.9269    1.0682    1.7495 Cl      1  UNL1       -0.0829
     20 C           5.5687   -0.2091    1.4006 C.ar    1  UNL1        0.0187
     21 C           4.9877    1.0353    1.4688 C.ar    1  UNL1        0.0388
     22 N           3.6683    1.1708    1.3521 N.ar    1  UNL1       -0.2395
     23 C           1.2867   -0.3270   -1.2141 C.ar    1  UNL1        0.0693
     24 N           0.6026   -0.5478   -2.3540 N.ar    1  UNL1       -0.2364
     25 C          -0.6991   -0.1849   -2.4657 C.ar    1  UNL1        0.2019
     26 C          -1.4593   -0.4107   -3.6337 C.1     1  UNL1        0.1246
     27 N          -2.1107   -0.5831   -4.6187 N.1     1  UNL1       -0.1891
     28 H          -4.7949    2.7244   -1.2479 H       1  UNL1        0.0266
     29 H          -3.8136    3.5030    0.0002 H       1  UNL1        0.0266
     30 H          -3.0957    3.1594   -1.6609 H       1  UNL1        0.0266
     31 H          -2.4619    1.6339    0.3976 H       1  UNL1        0.0743
     32 H          -4.7223    1.2105    1.0961 H       1  UNL1        0.0462
     33 H          -3.8615   -0.2953    0.6676 H       1  UNL1        0.0462
     34 H          -5.8228   -1.1720   -2.1218 H       1  UNL1        0.0391
     35 H          -4.6309    0.0585   -2.6320 H       1  UNL1        0.0391
     36 H          -4.1294   -1.1628   -1.4447 H       1  UNL1        0.0391
     37 H          -6.7744    0.5814    0.8600 H       1  UNL1        0.0391
     38 H          -7.4250    0.4847   -0.7790 H       1  UNL1        0.0391
     39 H          -6.8618   -0.9989   -0.0102 H       1  UNL1        0.0391
     40 H           0.9804    0.8526    1.9100 H       1  UNL1        0.1550
     41 H           2.6869   -1.9562    0.9447 H       1  UNL1        0.0658
     42 H           4.6237   -3.3640    0.9850 H       1  UNL1        0.0624
     43 H           7.1006   -3.6727    1.1824 H       1  UNL1        0.0618
     44 H           8.5794   -1.7499    1.5212 H       1  UNL1        0.0632
     45 H           5.6478    1.8786    1.6206 H       1  UNL1        0.0837
     46 H           2.3334   -0.6120   -1.1025 H       1  UNL1        0.0865
@<TRIPOS>BOND
     1     1     2    1
     2     2     3    1
     3     3     4    1
     4     4     5    1
     5     4     6    1
     6     2     7    1
     7     7     8    1
     8     8     9   ar
     9     9    10   ar
    10    10    11    1
    11    11    12    1
    12    12    13   ar
    13    13    14   ar
    14    14    15   ar
    15    15    16   ar
    16    16    17   ar
    17    17    18   ar
    18    18    19    1
    19    18    20   ar
    20    20    21   ar
    21    21    22   ar
    22    10    23   ar
    23    23    24   ar
    24    24    25   ar
    25    25    26    1
    26    26    27    3
    27    25     8   ar
    28    22    12   ar
    29    20    14   ar
    30     1    28    1
    31     1    29    1
    32     1    30    1
    33     2    31    1
    34     3    32    1
    35     3    33    1
    36     5    34    1
    37     5    35    1
    38     5    36    1
    39     6    37    1
    40     6    38    1
    41     6    39    1
    42    11    40    1
    43    13    41    1
    44    15    42    1
    45    16    43    1
    46    17    44    1
    47    21    45    1
    48    23    46    1
