
     RDKit          3D

 46 48  0  0  0  0  0  0  0  0999 V2000
   -3.7488    2.7923   -0.8412 C   0  0  0  0  0  0  0  0  0  0  0  0
   -3.2300    1.4485   -0.3897 C   0  0  1  0  0  0  0  0  0  0  0  0
   -4.3342    0.6235    0.2467 C   0  0  0  0  0  0  0  0  0  0  0  0
   -5.3571    0.3510   -0.7104 N   0  0  0  0  0  0  0  0  0  0  0  0
   -4.9825   -0.5380   -1.7630 C   0  0  0  0  0  0  0  0  0  0  0  0
   -6.6360    0.0605   -0.1224 C   0  0  0  0  0  0  0  0  0  0  0  0
   -2.6228    0.7908   -1.4854 O   0  0  0  0  0  0  0  0  0  0  0  0
   -1.2899    0.4197   -1.3636 C   0  0  0  0  0  0  0  0  0  0  0  0
   -0.5933    0.6402   -0.2146 N   0  0  0  0  0  0  0  0  0  0  0  0
    0.6914    0.2752   -0.1173 C   0  0  0  0  0  0  0  0  0  0  0  0
    1.4514    0.4661    1.0780 N   0  0  0  0  0  0  0  0  0  0  0  0
    2.8257    0.1472    1.1657 C   0  0  0  0  0  0  0  0  0  0  0  0
    3.3456   -1.1189    1.0902 C   0  0  0  0  0  0  0  0  0  0  0  0
    4.7296   -1.2787    1.2104 C   0  0  0  0  0  0  0  0  0  0  0  0
    5.3000   -2.5222    1.1344 C   0  0  0  0  0  0  0  0  0  0  0  0
    6.6685   -2.6983    1.2442 C   0  0  0  0  0  0  0  0  0  0  0  0
    7.5003   -1.6171    1.4349 C   0  0  0  0  0  0  0  0  0  0  0  0
    6.9519   -0.3572    1.5150 C   0  0  0  0  0  0  0  0  0  0  0  0
    7.9269    1.0682    1.7495 Cl  0  0  0  0  0  0  0  0  0  0  0  0
    5.5687   -0.2091    1.4006 C   0  0  0  0  0  0  0  0  0  0  0  0
    4.9877    1.0353    1.4688 C   0  0  0  0  0  0  0  0  0  0  0  0
    3.6683    1.1708    1.3521 N   0  0  0  0  0  0  0  0  0  0  0  0
    1.2867   -0.3270   -1.2141 C   0  0  0  0  0  0  0  0  0  0  0  0
    0.6026   -0.5478   -2.3540 N   0  0  0  0  0  0  0  0  0  0  0  0
   -0.6991   -0.1849   -2.4657 C   0  0  0  0  0  0  0  0  0  0  0  0
   -1.4593   -0.4107   -3.6337 C   0  0  0  0  0  0  0  0  0  0  0  0
   -2.1107   -0.5831   -4.6187 N   0  0  0  0  0  0  0  0  0  0  0  0
   -4.7949    2.7244   -1.2479 H   0  0  0  0  0  0  0  0  0  0  0  0
   -3.8136    3.5030    0.0002 H   0  0  0  0  0  0  0  0  0  0  0  0
   -3.0957    3.1594   -1.6609 H   0  0  0  0  0  0  0  0  0  0  0  0
   -2.4619    1.6339    0.3976 H   0  0  0  0  0  0  0  0  0  0  0  0
   -4.7223    1.2105    1.0961 H   0  0  0  0  0  0  0  0  0  0  0  0
   -3.8615   -0.2953    0.6676 H   0  0  0  0  0  0  0  0  0  0  0  0
   -5.8228   -1.1720   -2.1218 H   0  0  0  0  0  0  0  0  0  0  0  0
   -4.6309    0.0585   -2.6320 H   0  0  0  0  0  0  0  0  0  0  0  0
   -4.1294   -1.1628   -1.4447 H   0  0  0  0  0  0  0  0  0  0  0  0
   -6.7744    0.5814    0.8600 H   0  0  0  0  0  0  0  0  0  0  0  0
   -7.4250    0.4847   -0.7790 H   0  0  0  0  0  0  0  0  0  0  0  0
   -6.8618   -0.9989   -0.0102 H   0  0  0  0  0  0  0  0  0  0  0  0
    0.9804    0.8526    1.9100 H   0  0  0  0  0  0  0  0  0  0  0  0
    2.6869   -1.9562    0.9447 H   0  0  0  0  0  0  0  0  0  0  0  0
    4.6237   -3.3640    0.9850 H   0  0  0  0  0  0  0  0  0  0  0  0
    7.1006   -3.6727    1.1824 H   0  0  0  0  0  0  0  0  0  0  0  0
    8.5794   -1.7499    1.5212 H   0  0  0  0  0  0  0  0  0  0  0  0
    5.6478    1.8786    1.6206 H   0  0  0  0  0  0  0  0  0  0  0  0
    2.3334   -0.6120   -1.1025 H   0  0  0  0  0  0  0  0  0  0  0  0
  1  2  1  0
  2  3  1  0
  3  4  1  0
  4  5  1  0
  4  6  1  0
  2  7  1  0
  7  8  1  0
  8  9  2  0
  9 10  1  0
 10 11  1  0
 11 12  1  0
 12 13  2  0
 13 14  1  0
 14 15  2  0
 15 16  1  0
 16 17  2  0
 17 18  1  0
 18 19  1  0
 18 20  2  0
 20 21  1  0
 21 22  2  0
 10 23  2  0
 23 24  1  0
 24 25  2  0
 25 26  1  0
 26 27  3  0
 25  8  1  0
 22 12  1  0
 20 14  1  0
  1 28  1  0
  1 29  1  0
  1 30  1  0
  2 31  1  1
  3 32  1  0
  3 33  1  0
  5 34  1  0
  5 35  1  0
  5 36  1  0
  6 37  1  0
  6 38  1  0
  6 39  1  0
 11 40  1  0
 13 41  1  0
 15 42  1  0
 16 43  1  0
 17 44  1  0
 21 45  1  0
 23 46  1  0
M  END
$$$$
