
     RDKit          3D

 26 26  0  0  0  0  0  0  0  0999 V2000
   -3.0167   -0.8459    0.5022 C   0  0  0  0  0  0  0  0  0  0  0  0
   -2.7438    0.6460    0.3543 C   0  0  0  0  0  0  0  0  0  0  0  0
   -2.9323    1.0931   -1.0690 C   0  0  0  0  0  0  0  0  0  0  0  0
   -1.4530    1.0079    0.8995 N   0  0  0  0  0  0  0  0  0  0  0  0
   -0.4056    0.3344    0.2610 N   0  0  0  0  0  0  0  0  0  0  0  0
    0.9007    0.6350    0.7393 C   0  0  0  0  0  0  0  0  0  0  0  0
    0.9087    1.4752    1.6792 O   0  0  0  0  0  0  0  0  0  0  0  0
    2.0788    0.0187    0.1790 C   0  0  0  0  0  0  0  0  0  0  0  0
    2.0816   -0.9113   -0.8601 C   0  0  0  0  0  0  0  0  0  0  0  0
    3.2505   -1.4535   -1.3387 C   0  0  0  0  0  0  0  0  0  0  0  0
    4.4132   -1.0497   -0.7607 N   0  0  0  0  0  0  0  0  0  0  0  0
    4.4436   -0.1545    0.2432 C   0  0  0  0  0  0  0  0  0  0  0  0
    3.2948    0.4032    0.7412 C   0  0  0  0  0  0  0  0  0  0  0  0
   -3.0048   -1.3774   -0.4813 H   0  0  0  0  0  0  0  0  0  0  0  0
   -4.0307   -1.0419    0.9290 H   0  0  0  0  0  0  0  0  0  0  0  0
   -2.3131   -1.3105    1.2404 H   0  0  0  0  0  0  0  0  0  0  0  0
   -3.5098    1.1637    0.9686 H   0  0  0  0  0  0  0  0  0  0  0  0
   -2.0291    1.5520   -1.5212 H   0  0  0  0  0  0  0  0  0  0  0  0
   -3.7880    1.8137   -1.1963 H   0  0  0  0  0  0  0  0  0  0  0  0
   -3.2414    0.1954   -1.6719 H   0  0  0  0  0  0  0  0  0  0  0  0
   -1.4455    0.6736    1.8880 H   0  0  0  0  0  0  0  0  0  0  0  0
   -0.5644   -0.3448   -0.5154 H   0  0  0  0  0  0  0  0  0  0  0  0
    1.1289   -1.1907   -1.2762 H   0  0  0  0  0  0  0  0  0  0  0  0
    3.1655   -2.1624   -2.1402 H   0  0  0  0  0  0  0  0  0  0  0  0
    5.4261    0.1100    0.6458 H   0  0  0  0  0  0  0  0  0  0  0  0
    3.3857    1.1274    1.5604 H   0  0  0  0  0  0  0  0  0  0  0  0
  1  2  1  0
  2  3  1  0
  2  4  1  0
  4  5  1  0
  5  6  1  0
  6  7  2  0
  6  8  1  0
  8  9  2  0
  9 10  1  0
 10 11  2  0
 11 12  1  0
 12 13  2  0
 13  8  1  0
  1 14  1  0
  1 15  1  0
  1 16  1  0
  2 17  1  0
  3 18  1  0
  3 19  1  0
  3 20  1  0
  4 21  1  0
  5 22  1  0
  9 23  1  0
 10 24  1  0
 12 25  1  0
 13 26  1  0
M  END
$$$$
