@<TRIPOS>MOLECULE
*****
 26 26 0 0 0
SMALL
GASTEIGER

@<TRIPOS>ATOM
      1 C          -3.0167   -0.8459    0.5022 C.3     1  UNL1       -0.0484
      2 C          -2.7438    0.6460    0.3543 C.3     1  UNL1        0.0194
      3 C          -2.9323    1.0931   -1.0690 C.3     1  UNL1       -0.0484
      4 N          -1.4530    1.0079    0.8995 N.3     1  UNL1       -0.2378
      5 N          -0.4056    0.3344    0.2610 N.am    1  UNL1       -0.2467
      6 C           0.9007    0.6350    0.7393 C.2     1  UNL1        0.2577
      7 O           0.9087    1.4752    1.6792 O.2     1  UNL1       -0.2689
      8 C           2.0788    0.0187    0.1790 C.ar    1  UNL1        0.0408
      9 C           2.0816   -0.9113   -0.8601 C.ar    1  UNL1       -0.0314
     10 C           3.2505   -1.4535   -1.3387 C.ar    1  UNL1        0.0283
     11 N           4.4132   -1.0497   -0.7607 N.ar    1  UNL1       -0.2632
     12 C           4.4436   -0.1545    0.2432 C.ar    1  UNL1        0.0283
     13 C           3.2948    0.4032    0.7412 C.ar    1  UNL1       -0.0314
     14 H          -3.0048   -1.3774   -0.4813 H       1  UNL1        0.0245
     15 H          -4.0307   -1.0419    0.9290 H       1  UNL1        0.0245
     16 H          -2.3131   -1.3105    1.2404 H       1  UNL1        0.0245
     17 H          -3.5098    1.1637    0.9686 H       1  UNL1        0.0471
     18 H          -2.0291    1.5520   -1.5212 H       1  UNL1        0.0245
     19 H          -3.7880    1.8137   -1.1963 H       1  UNL1        0.0245
     20 H          -3.2414    0.1954   -1.6719 H       1  UNL1        0.0245
     21 H          -1.4455    0.6736    1.8880 H       1  UNL1        0.1445
     22 H          -0.5644   -0.3448   -0.5154 H       1  UNL1        0.1693
     23 H           1.1289   -1.1907   -1.2762 H       1  UNL1        0.0640
     24 H           3.1655   -2.1624   -2.1402 H       1  UNL1        0.0830
     25 H           5.4261    0.1100    0.6458 H       1  UNL1        0.0830
     26 H           3.3857    1.1274    1.5604 H       1  UNL1        0.0640
@<TRIPOS>BOND
     1     1     2    1
     2     2     3    1
     3     2     4    1
     4     4     5    1
     5     5     6   am
     6     6     7    2
     7     6     8    1
     8     8     9   ar
     9     9    10   ar
    10    10    11   ar
    11    11    12   ar
    12    12    13   ar
    13    13     8   ar
    14     1    14    1
    15     1    15    1
    16     1    16    1
    17     2    17    1
    18     3    18    1
    19     3    19    1
    20     3    20    1
    21     4    21    1
    22     5    22    1
    23     9    23    1
    24    10    24    1
    25    12    25    1
    26    13    26    1
