
     RDKit          3D

 55 57  0  0  0  0  0  0  0  0999 V2000
    7.4328    2.2244    0.9669 C   0  0  0  0  0  0  0  0  0  0  0  0
    7.6518    1.0628    0.0117 C   0  0  0  0  0  0  0  0  0  0  0  0
    6.3408    0.6150   -0.6009 C   0  0  0  0  0  0  0  0  0  0  0  0
    5.4488    0.1993    0.4062 O   0  0  0  0  0  0  0  0  0  0  0  0
    4.1823   -0.2478    0.0050 C   0  0  0  0  0  0  0  0  0  0  0  0
    3.8053   -0.2876   -1.3082 C   0  0  0  0  0  0  0  0  0  0  0  0
    2.5152   -0.7507   -1.6156 C   0  0  0  0  0  0  0  0  0  0  0  0
    1.6599   -1.1506   -0.6290 C   0  0  0  0  0  0  0  0  0  0  0  0
    0.0707   -1.7179   -1.0379 S   0  0  0  0  0  6  0  0  0  0  0  0
    0.1848   -2.3633   -2.4139 O   0  0  0  0  0  0  0  0  0  0  0  0
   -0.2520   -2.8056   -0.0256 O   0  0  0  0  0  0  0  0  0  0  0  0
   -1.0822   -0.5033   -1.0926 N   0  0  0  0  0  0  0  0  0  0  0  0
   -1.3618    0.2288    0.0785 C   0  0  0  0  0  0  0  0  0  0  0  0
   -2.8686    0.2369    0.1745 C   0  0  1  0  0  0  0  0  0  0  0  0
   -3.3811    1.3796    0.8821 N   0  0  0  0  0  0  0  0  0  0  0  0
   -4.8263    1.2601    0.9122 C   0  0  0  0  0  0  0  0  0  0  0  0
   -5.2399    0.0201    1.6917 C   0  0  0  0  0  0  0  0  0  0  0  0
   -4.3597   -0.1909    2.7704 O   0  0  0  0  0  0  0  0  0  0  0  0
   -3.8978    1.0466    3.1932 C   0  0  0  0  0  0  0  0  0  0  0  0
   -2.8256    1.5133    2.2089 C   0  0  0  0  0  0  0  0  0  0  0  0
   -3.2734    0.3186   -1.2805 C   0  0  0  0  0  0  0  0  0  0  0  0
   -2.2305   -0.6530   -1.8869 C   0  0  2  0  0  0  0  0  0  0  0  0
   -2.8924   -1.9659   -1.8884 C   0  0  0  0  0  0  0  0  0  0  0  0
   -2.5407   -2.9713   -1.2392 O   0  0  0  0  0  0  0  0  0  0  0  0
   -4.0519   -2.1076   -2.7128 N   0  0  0  0  0  0  0  0  0  0  0  0
   -4.7077   -3.2706   -2.7657 O   0  0  0  0  0  0  0  0  0  0  0  0
    2.0565   -1.1028    0.6776 C   0  0  0  0  0  0  0  0  0  0  0  0
    3.3353   -0.6472    1.0258 C   0  0  0  0  0  0  0  0  0  0  0  0
    8.3589    2.8365    0.9477 H   0  0  0  0  0  0  0  0  0  0  0  0
    7.1858    1.8635    1.9866 H   0  0  0  0  0  0  0  0  0  0  0  0
    6.6244    2.8628    0.5437 H   0  0  0  0  0  0  0  0  0  0  0  0
    8.1842    0.2659    0.5410 H   0  0  0  0  0  0  0  0  0  0  0  0
    8.2607    1.4669   -0.8420 H   0  0  0  0  0  0  0  0  0  0  0  0
    6.5611   -0.2089   -1.3030 H   0  0  0  0  0  0  0  0  0  0  0  0
    5.9336    1.5182   -1.1361 H   0  0  0  0  0  0  0  0  0  0  0  0
    4.4934    0.0321   -2.0775 H   0  0  0  0  0  0  0  0  0  0  0  0
    2.2683   -0.7617   -2.6704 H   0  0  0  0  0  0  0  0  0  0  0  0
   -0.9906    1.2726   -0.0376 H   0  0  0  0  0  0  0  0  0  0  0  0
   -0.8759   -0.2411    0.9554 H   0  0  0  0  0  0  0  0  0  0  0  0
   -3.2083   -0.6735    0.6654 H   0  0  0  0  0  0  0  0  0  0  0  0
   -5.1709    1.1508   -0.1333 H   0  0  0  0  0  0  0  0  0  0  0  0
   -5.3083    2.1713    1.3246 H   0  0  0  0  0  0  0  0  0  0  0  0
   -5.2858   -0.8814    1.0579 H   0  0  0  0  0  0  0  0  0  0  0  0
   -6.2502    0.1531    2.1483 H   0  0  0  0  0  0  0  0  0  0  0  0
   -3.4801    1.0147    4.2299 H   0  0  0  0  0  0  0  0  0  0  0  0
   -4.7317    1.7710    3.2354 H   0  0  0  0  0  0  0  0  0  0  0  0
   -2.5709    2.5517    2.4787 H   0  0  0  0  0  0  0  0  0  0  0  0
   -1.9514    0.8806    2.3868 H   0  0  0  0  0  0  0  0  0  0  0  0
   -3.0930    1.3376   -1.6266 H   0  0  0  0  0  0  0  0  0  0  0  0
   -4.2935   -0.0637   -1.4813 H   0  0  0  0  0  0  0  0  0  0  0  0
   -2.0806   -0.3472   -2.9468 H   0  0  0  0  0  0  0  0  0  0  0  0
   -4.4093   -1.2940   -3.2935 H   0  0  0  0  0  0  0  0  0  0  0  0
   -4.1502   -4.0369   -3.0237 H   0  0  0  0  0  0  0  0  0  0  0  0
    1.4334   -1.4028    1.5087 H   0  0  0  0  0  0  0  0  0  0  0  0
    3.6544   -0.6074    2.0545 H   0  0  0  0  0  0  0  0  0  0  0  0
  1  2  1  0
  2  3  1  0
  3  4  1  0
  4  5  1  0
  5  6  2  0
  6  7  1  0
  7  8  2  0
  8  9  1  0
  9 10  2  0
  9 11  2  0
  9 12  1  0
 12 13  1  0
 13 14  1  0
 14 15  1  0
 15 16  1  0
 16 17  1  0
 17 18  1  0
 18 19  1  0
 19 20  1  0
 14 21  1  0
 21 22  1  0
 22 23  1  0
 23 24  2  0
 23 25  1  0
 25 26  1  0
  8 27  1  0
 27 28  2  0
 28  5  1  0
 22 12  1  0
 20 15  1  0
  1 29  1  0
  1 30  1  0
  1 31  1  0
  2 32  1  0
  2 33  1  0
  3 34  1  0
  3 35  1  0
  6 36  1  0
  7 37  1  0
 13 38  1  0
 13 39  1  0
 14 40  1  1
 16 41  1  0
 16 42  1  0
 17 43  1  0
 17 44  1  0
 19 45  1  0
 19 46  1  0
 20 47  1  0
 20 48  1  0
 21 49  1  0
 21 50  1  0
 22 51  1  6
 25 52  1  0
 26 53  1  0
 27 54  1  0
 28 55  1  0
M  END
$$$$
