@<TRIPOS>MOLECULE
*****
 55 57 0 0 0
SMALL
GASTEIGER

@<TRIPOS>ATOM
      1 C           7.4328    2.2244    0.9669 C.3     1  UNL1       -0.0622
      2 C           7.6518    1.0628    0.0117 C.3     1  UNL1       -0.0215
      3 C           6.3408    0.6150   -0.6009 C.3     1  UNL1        0.0893
      4 O           5.4488    0.1993    0.4062 O.3     1  UNL1       -0.4920
      5 C           4.1823   -0.2478    0.0050 C.ar    1  UNL1        0.1206
      6 C           3.8053   -0.2876   -1.3082 C.ar    1  UNL1       -0.0181
      7 C           2.5152   -0.7507   -1.6156 C.ar    1  UNL1       -0.0319
      8 C           1.6599   -1.1506   -0.6290 C.ar    1  UNL1        0.1057
      9 S           0.0707   -1.7179   -1.0379 S.O2    1  UNL1        0.0616
     10 O           0.1848   -2.3633   -2.4139 O.2     1  UNL1       -0.1528
     11 O          -0.2520   -2.8056   -0.0256 O.2     1  UNL1       -0.1528
     12 N          -1.0822   -0.5033   -1.0926 N.3     1  UNL1       -0.1631
     13 C          -1.3618    0.2288    0.0785 C.3     1  UNL1        0.0370
     14 C          -2.8686    0.2369    0.1745 C.3     1  UNL1        0.0269
     15 N          -3.3811    1.3796    0.8821 N.3     1  UNL1       -0.2937
     16 C          -4.8263    1.2601    0.9122 C.3     1  UNL1        0.0228
     17 C          -5.2399    0.0201    1.6917 C.3     1  UNL1        0.0604
     18 O          -4.3597   -0.1909    2.7704 O.3     1  UNL1       -0.3772
     19 C          -3.8978    1.0466    3.1932 C.3     1  UNL1        0.0604
     20 C          -2.8256    1.5133    2.2089 C.3     1  UNL1        0.0228
     21 C          -3.2734    0.3186   -1.2805 C.3     1  UNL1       -0.0102
     22 C          -2.2305   -0.6530   -1.8869 C.3     1  UNL1        0.1112
     23 C          -2.8924   -1.9659   -1.8884 C.2     1  UNL1        0.2544
     24 O          -2.5407   -2.9713   -1.2392 O.2     1  UNL1       -0.2719
     25 N          -4.0519   -2.1076   -2.7128 N.am    1  UNL1       -0.1961
     26 O          -4.7077   -3.2706   -2.7657 O.3     1  UNL1       -0.2951
     27 C           2.0565   -1.1028    0.6776 C.ar    1  UNL1       -0.0319
     28 C           3.3353   -0.6472    1.0258 C.ar    1  UNL1       -0.0181
     29 H           8.3589    2.8365    0.9477 H       1  UNL1        0.0231
     30 H           7.1858    1.8635    1.9866 H       1  UNL1        0.0231
     31 H           6.6244    2.8628    0.5437 H       1  UNL1        0.0231
     32 H           8.1842    0.2659    0.5410 H       1  UNL1        0.0295
     33 H           8.2607    1.4669   -0.8420 H       1  UNL1        0.0295
     34 H           6.5611   -0.2089   -1.3030 H       1  UNL1        0.0696
     35 H           5.9336    1.5182   -1.1361 H       1  UNL1        0.0696
     36 H           4.4934    0.0321   -2.0775 H       1  UNL1        0.0655
     37 H           2.2683   -0.7617   -2.6704 H       1  UNL1        0.0638
     38 H          -0.9906    1.2726   -0.0376 H       1  UNL1        0.0460
     39 H          -0.8759   -0.2411    0.9554 H       1  UNL1        0.0460
     40 H          -3.2083   -0.6735    0.6654 H       1  UNL1        0.0476
     41 H          -5.1709    1.1508   -0.1333 H       1  UNL1        0.0449
     42 H          -5.3083    2.1713    1.3246 H       1  UNL1        0.0449
     43 H          -5.2858   -0.8814    1.0579 H       1  UNL1        0.0572
     44 H          -6.2502    0.1531    2.1483 H       1  UNL1        0.0572
     45 H          -3.4801    1.0147    4.2299 H       1  UNL1        0.0572
     46 H          -4.7317    1.7710    3.2354 H       1  UNL1        0.0572
     47 H          -2.5709    2.5517    2.4787 H       1  UNL1        0.0449
     48 H          -1.9514    0.8806    2.3868 H       1  UNL1        0.0449
     49 H          -3.0930    1.3376   -1.6266 H       1  UNL1        0.0301
     50 H          -4.2935   -0.0637   -1.4813 H       1  UNL1        0.0301
     51 H          -2.0806   -0.3472   -2.9468 H       1  UNL1        0.0577
     52 H          -4.4093   -1.2940   -3.2935 H       1  UNL1        0.1822
     53 H          -4.1502   -4.0369   -3.0237 H       1  UNL1        0.2414
     54 H           1.4334   -1.4028    1.5087 H       1  UNL1        0.0638
     55 H           3.6544   -0.6074    2.0545 H       1  UNL1        0.0655
@<TRIPOS>BOND
     1     1     2    1
     2     2     3    1
     3     3     4    1
     4     4     5    1
     5     5     6   ar
     6     6     7   ar
     7     7     8   ar
     8     8     9    1
     9     9    10    2
    10     9    11    2
    11     9    12    1
    12    12    13    1
    13    13    14    1
    14    14    15    1
    15    15    16    1
    16    16    17    1
    17    17    18    1
    18    18    19    1
    19    19    20    1
    20    14    21    1
    21    21    22    1
    22    22    23    1
    23    23    24    2
    24    23    25   am
    25    25    26    1
    26     8    27   ar
    27    27    28   ar
    28    28     5   ar
    29    22    12    1
    30    20    15    1
    31     1    29    1
    32     1    30    1
    33     1    31    1
    34     2    32    1
    35     2    33    1
    36     3    34    1
    37     3    35    1
    38     6    36    1
    39     7    37    1
    40    13    38    1
    41    13    39    1
    42    14    40    1
    43    16    41    1
    44    16    42    1
    45    17    43    1
    46    17    44    1
    47    19    45    1
    48    19    46    1
    49    20    47    1
    50    20    48    1
    51    21    49    1
    52    21    50    1
    53    22    51    1
    54    25    52    1
    55    26    53    1
    56    27    54    1
    57    28    55    1
