
     RDKit          3D

 48 51  0  0  0  0  0  0  0  0999 V2000
   -3.5954   -1.3425    1.9964 C   0  0  0  0  0  0  0  0  0  0  0  0
   -3.0165   -0.7821    0.6831 C   0  0  1  0  0  0  0  0  0  0  0  0
   -1.5322   -0.8877    0.7679 C   0  0  0  0  0  0  0  0  0  0  0  0
   -0.7376    0.2609    0.7254 C   0  0  0  0  0  0  0  0  0  0  0  0
    0.6546    0.1922    0.7886 C   0  0  0  0  0  0  0  0  0  0  0  0
    1.4153    1.3483    0.7264 N   0  0  0  0  0  0  0  0  0  0  0  0
    2.7943    1.5027    1.0177 C   0  0  0  0  0  0  0  0  0  0  0  0
    3.2392    2.0073    2.1778 N   0  0  0  0  0  0  0  0  0  0  0  0
    4.5351    2.1506    2.4378 C   0  0  0  0  0  0  0  0  0  0  0  0
    5.5002    1.7877    1.5292 C   0  0  0  0  0  0  0  0  0  0  0  0
    5.1093    1.2548    0.3014 C   0  0  0  0  0  0  0  0  0  0  0  0
    6.0380    0.8721   -0.6441 C   0  0  0  0  0  0  0  0  0  0  0  0
    5.6314    0.3465   -1.8454 C   0  0  0  0  0  0  0  0  0  0  0  0
    6.5812   -0.0717   -2.8735 C   0  0  0  0  0  0  0  0  0  0  0  0
    7.3385   -0.4084   -3.6668 N   0  0  0  0  0  0  0  0  0  0  0  0
    4.2677    0.2274   -2.0439 C   0  0  0  0  0  0  0  0  0  0  0  0
    3.3836    0.6119   -1.0982 N   0  0  0  0  0  0  0  0  0  0  0  0
    3.7519    1.1332    0.0945 C   0  0  0  0  0  0  0  0  0  0  0  0
    1.2013   -1.0654    0.8944 C   0  0  0  0  0  0  0  0  0  0  0  0
    0.4591   -2.2259    0.9392 C   0  0  0  0  0  0  0  0  0  0  0  0
    1.0397   -3.4335    1.0407 F   0  0  0  0  0  0  0  0  0  0  0  0
   -0.9403   -2.1082    0.8730 C   0  0  0  0  0  0  0  0  0  0  0  0
   -1.6349   -3.2625    0.9421 F   0  0  0  0  0  0  0  0  0  0  0  0
   -3.4897   -1.5832   -0.4749 C   0  0  0  0  0  0  0  0  0  0  0  0
   -3.9361   -0.8409   -1.6843 C   0  0  1  0  0  0  0  0  0  0  0  0
   -5.4444   -0.9629   -1.9310 C   0  0  0  0  0  0  0  0  0  0  0  0
   -6.1583   -0.4559   -0.8453 F   0  0  0  0  0  0  0  0  0  0  0  0
   -5.8113   -2.2837   -2.0858 F   0  0  0  0  0  0  0  0  0  0  0  0
   -5.7836   -0.3213   -3.1018 F   0  0  0  0  0  0  0  0  0  0  0  0
   -3.6215    0.5430   -1.6482 O   0  0  0  0  0  0  0  0  0  0  0  0
   -3.7335    1.2237   -0.4057 C   0  0  0  0  0  0  0  0  0  0  0  0
   -4.1596    2.5756   -0.4449 N   0  0  0  0  0  0  0  0  0  0  0  0
   -3.4466    0.5731    0.6159 N   0  0  0  0  0  0  0  0  0  0  0  0
   -2.7616   -1.4214    2.7152 H   0  0  0  0  0  0  0  0  0  0  0  0
   -4.3828   -0.6999    2.3846 H   0  0  0  0  0  0  0  0  0  0  0  0
   -4.0460   -2.3421    1.8283 H   0  0  0  0  0  0  0  0  0  0  0  0
   -1.2395    1.2110    0.6410 H   0  0  0  0  0  0  0  0  0  0  0  0
    0.9378    2.2554    0.4266 H   0  0  0  0  0  0  0  0  0  0  0  0
    4.8701    2.5695    3.3978 H   0  0  0  0  0  0  0  0  0  0  0  0
    6.5562    1.8905    1.7055 H   0  0  0  0  0  0  0  0  0  0  0  0
    7.0946    0.9770   -0.4616 H   0  0  0  0  0  0  0  0  0  0  0  0
    3.9648   -0.1890   -2.9964 H   0  0  0  0  0  0  0  0  0  0  0  0
    2.2906   -1.1047    0.9450 H   0  0  0  0  0  0  0  0  0  0  0  0
   -2.7268   -2.3663   -0.7338 H   0  0  0  0  0  0  0  0  0  0  0  0
   -4.3710   -2.1753   -0.1199 H   0  0  0  0  0  0  0  0  0  0  0  0
   -3.4527   -1.3074   -2.5774 H   0  0  0  0  0  0  0  0  0  0  0  0
   -3.6328    3.2688   -0.9920 H   0  0  0  0  0  0  0  0  0  0  0  0
   -4.9999    2.8588    0.0794 H   0  0  0  0  0  0  0  0  0  0  0  0
  2  1  1  1
  2  3  1  0
  3  4  2  0
  4  5  1  0
  5  6  1  0
  6  7  1  0
  7  8  2  0
  8  9  1  0
  9 10  2  0
 10 11  1  0
 11 12  2  0
 12 13  1  0
 13 14  1  0
 14 15  3  0
 13 16  2  0
 16 17  1  0
 17 18  2  0
  5 19  2  0
 19 20  1  0
 20 21  1  0
 20 22  2  0
 22 23  1  0
  2 24  1  0
 24 25  1  0
 25 26  1  0
 26 27  1  0
 26 28  1  0
 26 29  1  0
 25 30  1  0
 30 31  1  0
 31 32  1  0
 31 33  2  0
 33  2  1  0
 22  3  1  0
 18  7  1  0
 18 11  1  0
  1 34  1  0
  1 35  1  0
  1 36  1  0
  4 37  1  0
  6 38  1  0
  9 39  1  0
 10 40  1  0
 12 41  1  0
 16 42  1  0
 19 43  1  0
 24 44  1  0
 24 45  1  0
 25 46  1  6
 32 47  1  0
 32 48  1  0
M  END
$$$$
