@<TRIPOS>MOLECULE
*****
 48 51 0 0 0
SMALL
GASTEIGER

@<TRIPOS>ATOM
      1 C          -3.5954   -1.3425    1.9964 C.3     1  UNL1       -0.0352
      2 C          -3.0165   -0.7821    0.6831 C.3     1  UNL1        0.0952
      3 C          -1.5322   -0.8877    0.7679 C.ar    1  UNL1        0.0197
      4 C          -0.7376    0.2609    0.7254 C.ar    1  UNL1       -0.0321
      5 C           0.6546    0.1922    0.7886 C.ar    1  UNL1        0.0357
      6 N           1.4153    1.3483    0.7264 N.pl3   1  UNL1       -0.2976
      7 C           2.7943    1.5027    1.0177 C.ar    1  UNL1        0.1490
      8 N           3.2392    2.0073    2.1778 N.ar    1  UNL1       -0.2380
      9 C           4.5351    2.1506    2.4378 C.ar    1  UNL1        0.0304
     10 C           5.5002    1.7877    1.5292 C.ar    1  UNL1       -0.0342
     11 C           5.1093    1.2548    0.3014 C.ar    1  UNL1        0.0064
     12 C           6.0380    0.8721   -0.6441 C.ar    1  UNL1       -0.0335
     13 C           5.6314    0.3465   -1.8454 C.ar    1  UNL1        0.0704
     14 C           6.5812   -0.0717   -2.8735 C.1     1  UNL1        0.1007
     15 N           7.3385   -0.4084   -3.6668 N.1     1  UNL1       -0.1908
     16 C           4.2677    0.2274   -2.0439 C.ar    1  UNL1        0.0458
     17 N           3.3836    0.6119   -1.0982 N.ar    1  UNL1       -0.2503
     18 C           3.7519    1.1332    0.0945 C.ar    1  UNL1        0.1109
     19 C           1.2013   -1.0654    0.8944 C.ar    1  UNL1       -0.0024
     20 C           0.4591   -2.2259    0.9392 C.ar    1  UNL1        0.1605
     21 F           1.0397   -3.4335    1.0407 F       1  UNL1       -0.2024
     22 C          -0.9403   -2.1082    0.8730 C.ar    1  UNL1        0.1640
     23 F          -1.6349   -3.2625    0.9421 F       1  UNL1       -0.2021
     24 C          -3.4897   -1.5832   -0.4749 C.3     1  UNL1        0.0223
     25 C          -3.9361   -0.8409   -1.6843 C.3     1  UNL1        0.1997
     26 C          -5.4444   -0.9629   -1.9310 C.3     1  UNL1        0.4266
     27 F          -6.1583   -0.4559   -0.8453 F       1  UNL1       -0.1669
     28 F          -5.8113   -2.2837   -2.0858 F       1  UNL1       -0.1669
     29 F          -5.7836   -0.3213   -3.1018 F       1  UNL1       -0.1669
     30 O          -3.6215    0.5430   -1.6482 O.2     1  UNL1       -0.4534
     31 C          -3.7335    1.2237   -0.4057 C.2     1  UNL1        0.2765
     32 N          -4.1596    2.5756   -0.4449 N.pl3   1  UNL1       -0.3134
     33 N          -3.4466    0.5731    0.6159 N.2     1  UNL1       -0.2257
     34 H          -2.7616   -1.4214    2.7152 H       1  UNL1        0.0256
     35 H          -4.3828   -0.6999    2.3846 H       1  UNL1        0.0256
     36 H          -4.0460   -2.3421    1.8283 H       1  UNL1        0.0256
     37 H          -1.2395    1.2110    0.6410 H       1  UNL1        0.0640
     38 H           0.9378    2.2554    0.4266 H       1  UNL1        0.1536
     39 H           4.8701    2.5695    3.3978 H       1  UNL1        0.0830
     40 H           6.5562    1.8905    1.7055 H       1  UNL1        0.0639
     41 H           7.0946    0.9770   -0.4616 H       1  UNL1        0.0637
     42 H           3.9648   -0.1890   -2.9964 H       1  UNL1        0.0843
     43 H           2.2906   -1.1047    0.9450 H       1  UNL1        0.0666
     44 H          -2.7268   -2.3663   -0.7338 H       1  UNL1        0.0330
     45 H          -4.3710   -2.1753   -0.1199 H       1  UNL1        0.0330
     46 H          -3.4527   -1.3074   -2.5774 H       1  UNL1        0.0826
     47 H          -3.6328    3.2688   -0.9920 H       1  UNL1        0.1466
     48 H          -4.9999    2.8588    0.0794 H       1  UNL1        0.1466
@<TRIPOS>BOND
     1     2     1    1
     2     2     3    1
     3     3     4   ar
     4     4     5   ar
     5     5     6    1
     6     6     7    1
     7     7     8   ar
     8     8     9   ar
     9     9    10   ar
    10    10    11   ar
    11    11    12   ar
    12    12    13   ar
    13    13    14    1
    14    14    15    3
    15    13    16   ar
    16    16    17   ar
    17    17    18   ar
    18     5    19   ar
    19    19    20   ar
    20    20    21    1
    21    20    22   ar
    22    22    23    1
    23     2    24    1
    24    24    25    1
    25    25    26    1
    26    26    27    1
    27    26    28    1
    28    26    29    1
    29    25    30    1
    30    30    31    1
    31    31    32    1
    32    31    33    2
    33    33     2    1
    34    22     3   ar
    35    18     7   ar
    36    18    11   ar
    37     1    34    1
    38     1    35    1
    39     1    36    1
    40     4    37    1
    41     6    38    1
    42     9    39    1
    43    10    40    1
    44    12    41    1
    45    16    42    1
    46    19    43    1
    47    24    44    1
    48    24    45    1
    49    25    46    1
    50    32    47    1
    51    32    48    1
