
     RDKit          3D

 52 54  0  0  0  0  0  0  0  0999 V2000
   -4.7016    4.5664   -0.5483 C   0  0  0  0  0  0  0  0  0  0  0  0
   -3.5611    3.8257   -0.9371 O   0  0  0  0  0  0  0  0  0  0  0  0
   -3.0161    2.9500   -0.0112 C   0  0  0  0  0  0  0  0  0  0  0  0
   -3.5538    2.7938    1.2491 C   0  0  0  0  0  0  0  0  0  0  0  0
   -3.0288    1.9318    2.1816 C   0  0  0  0  0  0  0  0  0  0  0  0
   -1.8987    1.1855    1.8241 C   0  0  0  0  0  0  0  0  0  0  0  0
   -1.3300    1.3042    0.5878 C   0  0  0  0  0  0  0  0  0  0  0  0
   -0.1529    0.5270    0.1338 C   0  0  0  0  0  0  0  0  0  0  0  0
    0.9800    1.1493   -0.4174 C   0  0  0  0  0  0  0  0  0  0  0  0
    1.8586    0.1647   -0.7572 C   0  0  0  0  0  0  0  0  0  0  0  0
    3.1674    0.4002   -1.3994 C   0  0  0  0  0  0  0  0  0  0  0  0
    4.1493    0.6663   -0.5456 O   0  0  0  0  0  0  0  0  0  0  0  0
    4.5909   -0.1522    0.4172 C   0  0  0  0  0  0  0  0  0  0  0  0
    3.6263   -0.5446    1.5094 C   0  0  0  0  0  0  0  0  0  0  0  0
    5.7141    0.6336    1.1567 C   0  0  0  0  0  0  0  0  0  0  0  0
    5.2166   -1.3976   -0.1580 C   0  0  0  0  0  0  0  0  0  0  0  0
    5.6623   -2.2677    0.6123 O   0  0  0  0  0  0  0  0  0  0  0  0
    5.2883   -1.5579   -1.5240 O   0  0  0  0  0  0  0  0  0  0  0  0
    1.2606   -0.9797   -0.4178 N   0  0  0  0  0  0  0  0  0  0  0  0
    0.0621   -0.7836    0.1144 N   0  0  0  0  0  0  0  0  0  0  0  0
   -0.7960   -1.8025    0.5767 C   0  0  0  0  0  0  0  0  0  0  0  0
   -1.7709   -2.3917   -0.3281 C   0  0  0  0  0  0  0  0  0  0  0  0
   -2.5669   -3.4001    0.2538 C   0  0  0  0  0  0  0  0  0  0  0  0
   -3.5230   -4.0382   -0.4830 C   0  0  0  0  0  0  0  0  0  0  0  0
   -3.7077   -3.6946   -1.7945 C   0  0  0  0  0  0  0  0  0  0  0  0
   -2.9332   -2.7176   -2.3503 C   0  0  0  0  0  0  0  0  0  0  0  0
   -1.9423   -2.0360   -1.6375 C   0  0  0  0  0  0  0  0  0  0  0  0
   -1.0015   -0.8027   -2.4284 Cl  0  0  0  0  0  0  0  0  0  0  0  0
   -1.9168    2.1984   -0.3057 C   0  0  0  0  0  0  0  0  0  0  0  0
   -4.4796    5.1565    0.3602 H   0  0  0  0  0  0  0  0  0  0  0  0
   -5.1027    5.1762   -1.3795 H   0  0  0  0  0  0  0  0  0  0  0  0
   -5.4660    3.7990   -0.2354 H   0  0  0  0  0  0  0  0  0  0  0  0
   -4.4366    3.3733    1.5357 H   0  0  0  0  0  0  0  0  0  0  0  0
   -3.4753    1.8415    3.1440 H   0  0  0  0  0  0  0  0  0  0  0  0
   -1.4748    0.5241    2.5638 H   0  0  0  0  0  0  0  0  0  0  0  0
    1.0891    2.2021   -0.5298 H   0  0  0  0  0  0  0  0  0  0  0  0
    3.0423    1.3194   -2.0663 H   0  0  0  0  0  0  0  0  0  0  0  0
    3.3895   -0.4050   -2.1521 H   0  0  0  0  0  0  0  0  0  0  0  0
    2.7668    0.1358    1.5940 H   0  0  0  0  0  0  0  0  0  0  0  0
    4.1542   -0.5285    2.5192 H   0  0  0  0  0  0  0  0  0  0  0  0
    3.2766   -1.5959    1.3138 H   0  0  0  0  0  0  0  0  0  0  0  0
    5.1561    1.3320    1.8278 H   0  0  0  0  0  0  0  0  0  0  0  0
    6.2300    1.2548    0.4119 H   0  0  0  0  0  0  0  0  0  0  0  0
    6.3597   -0.0674    1.7004 H   0  0  0  0  0  0  0  0  0  0  0  0
    5.9798   -2.1763   -1.9574 H   0  0  0  0  0  0  0  0  0  0  0  0
   -1.3736   -1.4769    1.4935 H   0  0  0  0  0  0  0  0  0  0  0  0
   -0.1793   -2.6692    1.0091 H   0  0  0  0  0  0  0  0  0  0  0  0
   -2.4537   -3.7011    1.2840 H   0  0  0  0  0  0  0  0  0  0  0  0
   -4.1351   -4.8230   -0.0122 H   0  0  0  0  0  0  0  0  0  0  0  0
   -4.4814   -4.2305   -2.3418 H   0  0  0  0  0  0  0  0  0  0  0  0
   -3.0929   -2.4635   -3.3765 H   0  0  0  0  0  0  0  0  0  0  0  0
   -1.4683    2.2927   -1.2801 H   0  0  0  0  0  0  0  0  0  0  0  0
  1  2  1  0
  2  3  1  0
  3  4  2  0
  4  5  1  0
  5  6  2  0
  6  7  1  0
  7  8  1  0
  8  9  2  0
  9 10  1  0
 10 11  1  0
 11 12  1  0
 12 13  1  0
 13 14  1  0
 13 15  1  0
 13 16  1  0
 16 17  2  0
 16 18  1  0
 10 19  2  0
 19 20  1  0
 20 21  1  0
 21 22  1  0
 22 23  2  0
 23 24  1  0
 24 25  2  0
 25 26  1  0
 26 27  2  0
 27 28  1  0
  7 29  2  0
 29  3  1  0
 20  8  1  0
 27 22  1  0
  1 30  1  0
  1 31  1  0
  1 32  1  0
  4 33  1  0
  5 34  1  0
  6 35  1  0
  9 36  1  0
 11 37  1  0
 11 38  1  0
 14 39  1  0
 14 40  1  0
 14 41  1  0
 15 42  1  0
 15 43  1  0
 15 44  1  0
 18 45  1  0
 21 46  1  0
 21 47  1  0
 23 48  1  0
 24 49  1  0
 25 50  1  0
 26 51  1  0
 29 52  1  0
M  END
$$$$
