@<TRIPOS>MOLECULE
*****
 52 54 0 0 0
SMALL
GASTEIGER

@<TRIPOS>ATOM
      1 C          -4.7016    4.5664   -0.5483 C.3     1  UNL1        0.0788
      2 O          -3.5611    3.8257   -0.9371 O.3     1  UNL1       -0.4951
      3 C          -3.0161    2.9500   -0.0112 C.ar    1  UNL1        0.1207
      4 C          -3.5538    2.7938    1.2491 C.ar    1  UNL1       -0.0199
      5 C          -3.0288    1.9318    2.1816 C.ar    1  UNL1       -0.0577
      6 C          -1.8987    1.1855    1.8241 C.ar    1  UNL1       -0.0524
      7 C          -1.3300    1.3042    0.5878 C.ar    1  UNL1        0.0035
      8 C          -0.1529    0.5270    0.1338 C.ar    1  UNL1        0.0697
      9 C           0.9800    1.1493   -0.4174 C.ar    1  UNL1       -0.0108
     10 C           1.8586    0.1647   -0.7572 C.ar    1  UNL1        0.0892
     11 C           3.1674    0.4002   -1.3994 C.3     1  UNL1        0.0928
     12 O           4.1493    0.6663   -0.5456 O.3     1  UNL1       -0.3566
     13 C           4.5909   -0.1522    0.4172 C.3     1  UNL1        0.1602
     14 C           3.6263   -0.5446    1.5094 C.3     1  UNL1       -0.0256
     15 C           5.7141    0.6336    1.1567 C.3     1  UNL1       -0.0256
     16 C           5.2166   -1.3976   -0.1580 C.2     1  UNL1        0.3365
     17 O           5.6623   -2.2677    0.6123 O.2     1  UNL1       -0.2478
     18 O           5.2883   -1.5579   -1.5240 O.3     1  UNL1       -0.4786
     19 N           1.2606   -0.9797   -0.4178 N.ar    1  UNL1       -0.1730
     20 N           0.0621   -0.7836    0.1144 N.ar    1  UNL1       -0.2590
     21 C          -0.7960   -1.8025    0.5767 C.3     1  UNL1        0.0685
     22 C          -1.7709   -2.3917   -0.3281 C.ar    1  UNL1       -0.0078
     23 C          -2.5669   -3.4001    0.2538 C.ar    1  UNL1       -0.0554
     24 C          -3.5230   -4.0382   -0.4830 C.ar    1  UNL1       -0.0614
     25 C          -3.7077   -3.6946   -1.7945 C.ar    1  UNL1       -0.0604
     26 C          -2.9332   -2.7176   -2.3503 C.ar    1  UNL1       -0.0431
     27 C          -1.9423   -2.0360   -1.6375 C.ar    1  UNL1        0.0459
     28 CL         -1.0015   -0.8027   -2.4284 Cl      1  UNL1       -0.0832
     29 C          -1.9168    2.1984   -0.3057 C.ar    1  UNL1       -0.0108
     30 H          -4.4796    5.1565    0.3602 H       1  UNL1        0.0660
     31 H          -5.1027    5.1762   -1.3795 H       1  UNL1        0.0660
     32 H          -5.4660    3.7990   -0.2354 H       1  UNL1        0.0660
     33 H          -4.4366    3.3733    1.5357 H       1  UNL1        0.0654
     34 H          -3.4753    1.8415    3.1440 H       1  UNL1        0.0619
     35 H          -1.4748    0.5241    2.5638 H       1  UNL1        0.0624
     36 H           1.0891    2.2021   -0.5298 H       1  UNL1        0.0658
     37 H           3.0423    1.3194   -2.0663 H       1  UNL1        0.0626
     38 H           3.3895   -0.4050   -2.1521 H       1  UNL1        0.0626
     39 H           2.7668    0.1358    1.5940 H       1  UNL1        0.0263
     40 H           4.1542   -0.5285    2.5192 H       1  UNL1        0.0263
     41 H           3.2766   -1.5959    1.3138 H       1  UNL1        0.0263
     42 H           5.1561    1.3320    1.8278 H       1  UNL1        0.0263
     43 H           6.2300    1.2548    0.4119 H       1  UNL1        0.0263
     44 H           6.3597   -0.0674    1.7004 H       1  UNL1        0.0263
     45 H           5.9798   -2.1763   -1.9574 H       1  UNL1        0.2951
     46 H          -1.3736   -1.4769    1.4935 H       1  UNL1        0.0559
     47 H          -0.1793   -2.6692    1.0091 H       1  UNL1        0.0559
     48 H          -2.4537   -3.7011    1.2840 H       1  UNL1        0.0621
     49 H          -4.1351   -4.8230   -0.0122 H       1  UNL1        0.0618
     50 H          -4.4814   -4.2305   -2.3418 H       1  UNL1        0.0618
     51 H          -3.0929   -2.4635   -3.3765 H       1  UNL1        0.0632
     52 H          -1.4683    2.2927   -1.2801 H       1  UNL1        0.0661
@<TRIPOS>BOND
     1     1     2    1
     2     2     3    1
     3     3     4   ar
     4     4     5   ar
     5     5     6   ar
     6     6     7   ar
     7     7     8    1
     8     8     9   ar
     9     9    10   ar
    10    10    11    1
    11    11    12    1
    12    12    13    1
    13    13    14    1
    14    13    15    1
    15    13    16    1
    16    16    17    2
    17    16    18    1
    18    10    19   ar
    19    19    20   ar
    20    20    21    1
    21    21    22    1
    22    22    23   ar
    23    23    24   ar
    24    24    25   ar
    25    25    26   ar
    26    26    27   ar
    27    27    28    1
    28     7    29   ar
    29    29     3   ar
    30    20     8   ar
    31    27    22   ar
    32     1    30    1
    33     1    31    1
    34     1    32    1
    35     4    33    1
    36     5    34    1
    37     6    35    1
    38     9    36    1
    39    11    37    1
    40    11    38    1
    41    14    39    1
    42    14    40    1
    43    14    41    1
    44    15    42    1
    45    15    43    1
    46    15    44    1
    47    18    45    1
    48    21    46    1
    49    21    47    1
    50    23    48    1
    51    24    49    1
    52    25    50    1
    53    26    51    1
    54    29    52    1
