@<TRIPOS>MOLECULE
*****
 51 53 0 0 0
SMALL
GASTEIGER

@<TRIPOS>ATOM
      1 O          -3.2174   -1.1306    3.1562 O.2     1  UNL1       -0.2451
      2 C          -2.8971   -1.1252    1.9395 C.2     1  UNL1        0.3386
      3 O          -1.9646   -2.0186    1.5421 O.3     1  UNL1       -0.4771
      4 C          -3.5270   -0.1884    1.0353 C.ar    1  UNL1        0.0803
      5 C          -4.5683    0.6284    1.5420 C.ar    1  UNL1       -0.0343
      6 C          -5.2750    1.5124    0.7779 C.ar    1  UNL1        0.0557
      7 C          -6.3638    2.3610    1.3265 C.3     1  UNL1        0.4174
      8 F          -6.8997    3.1179    0.3056 F       1  UNL1       -0.1659
      9 F          -5.8829    3.2446    2.2761 F       1  UNL1       -0.1659
     10 F          -7.3934    1.5974    1.8412 F       1  UNL1       -0.1659
     11 C          -4.9210    1.5801   -0.5547 C.ar    1  UNL1       -0.0483
     12 C          -3.9418    0.8324   -1.0949 C.ar    1  UNL1       -0.0393
     13 C          -3.2029   -0.0912   -0.2930 C.ar    1  UNL1        0.0439
     14 N          -2.1646   -0.7866   -0.9292 N.pl3   1  UNL1       -0.3267
     15 C          -2.3562   -1.4385   -2.2511 C.3     1  UNL1        0.0147
     16 C          -1.2820   -0.7220   -3.0357 C.3     1  UNL1       -0.0093
     17 C          -0.1344   -0.6237   -2.0643 C.3     1  UNL1        0.0758
     18 O           0.8852   -1.5240   -2.3192 O.3     1  UNL1       -0.3727
     19 C           2.1375   -0.9785   -2.3948 C.3     1  UNL1        0.0714
     20 C           2.5597   -0.2848   -1.1184 C.3     1  UNL1        0.0714
     21 O           2.5732   -1.1767   -0.0390 O.3     1  UNL1       -0.3729
     22 C           2.9565   -0.5413    1.1259 C.3     1  UNL1        0.0728
     23 C           4.2998    0.0602    1.0815 C.ar    1  UNL1       -0.0219
     24 C           5.3845   -0.7049    1.4649 C.ar    1  UNL1       -0.0564
     25 C           6.6703   -0.2155    1.4526 C.ar    1  UNL1       -0.0614
     26 C           6.8976    1.0925    1.0420 C.ar    1  UNL1       -0.0617
     27 C           5.8211    1.8682    0.6561 C.ar    1  UNL1       -0.0614
     28 C           4.5212    1.3519    0.6757 C.ar    1  UNL1       -0.0564
     29 C          -0.7776   -1.0206   -0.7016 C.3     1  UNL1        0.0385
     30 H          -1.5701   -2.7685    2.0819 H       1  UNL1        0.2954
     31 H          -4.7966    0.5308    2.5829 H       1  UNL1        0.0632
     32 H          -5.4826    2.2886   -1.1861 H       1  UNL1        0.0624
     33 H          -3.6488    0.8748   -2.1533 H       1  UNL1        0.0636
     34 H          -2.0501   -2.4938   -2.1649 H       1  UNL1        0.0464
     35 H          -3.3560   -1.2827   -2.6490 H       1  UNL1        0.0464
     36 H          -1.5906    0.3362   -3.2614 H       1  UNL1        0.0306
     37 H          -1.0085   -1.2646   -3.9619 H       1  UNL1        0.0306
     38 H           0.2509    0.4082   -1.9650 H       1  UNL1        0.0612
     39 H           2.8570   -1.7999   -2.5648 H       1  UNL1        0.0583
     40 H           2.2536   -0.2368   -3.2106 H       1  UNL1        0.0583
     41 H           1.9675    0.6235   -0.8930 H       1  UNL1        0.0583
     42 H           3.6172    0.0690   -1.2188 H       1  UNL1        0.0583
     43 H           2.9387   -1.2945    1.9413 H       1  UNL1        0.0610
     44 H           2.1853    0.2312    1.3817 H       1  UNL1        0.0610
     45 H           5.2538   -1.7385    1.7951 H       1  UNL1        0.0621
     46 H           7.5295   -0.8219    1.7564 H       1  UNL1        0.0618
     47 H           7.9166    1.4531    1.0414 H       1  UNL1        0.0618
     48 H           5.9909    2.8743    0.3397 H       1  UNL1        0.0618
     49 H           3.6679    1.9456    0.3768 H       1  UNL1        0.0621
     50 H          -0.5697   -2.1270   -0.5906 H       1  UNL1        0.0489
     51 H          -0.2931   -0.4830    0.0973 H       1  UNL1        0.0489
@<TRIPOS>BOND
     1     1     2    2
     2     2     3    1
     3     2     4    1
     4     4     5   ar
     5     5     6   ar
     6     6     7    1
     7     7     8    1
     8     7     9    1
     9     7    10    1
    10     6    11   ar
    11    11    12   ar
    12    12    13   ar
    13    13    14    1
    14    14    15    1
    15    15    16    1
    16    16    17    1
    17    17    18    1
    18    18    19    1
    19    19    20    1
    20    20    21    1
    21    21    22    1
    22    22    23    1
    23    23    24   ar
    24    24    25   ar
    25    25    26   ar
    26    26    27   ar
    27    27    28   ar
    28    17    29    1
    29    13     4   ar
    30    29    14    1
    31    28    23   ar
    32     3    30    1
    33     5    31    1
    34    11    32    1
    35    12    33    1
    36    15    34    1
    37    15    35    1
    38    16    36    1
    39    16    37    1
    40    17    38    1
    41    19    39    1
    42    19    40    1
    43    20    41    1
    44    20    42    1
    45    22    43    1
    46    22    44    1
    47    24    45    1
    48    25    46    1
    49    26    47    1
    50    27    48    1
    51    28    49    1
    52    29    50    1
    53    29    51    1
