
     RDKit          3D

 51 53  0  0  0  0  0  0  0  0999 V2000
   -3.2174   -1.1306    3.1562 O   0  0  0  0  0  0  0  0  0  0  0  0
   -2.8971   -1.1252    1.9395 C   0  0  0  0  0  0  0  0  0  0  0  0
   -1.9646   -2.0186    1.5421 O   0  0  0  0  0  0  0  0  0  0  0  0
   -3.5270   -0.1884    1.0353 C   0  0  0  0  0  0  0  0  0  0  0  0
   -4.5683    0.6284    1.5420 C   0  0  0  0  0  0  0  0  0  0  0  0
   -5.2750    1.5124    0.7779 C   0  0  0  0  0  0  0  0  0  0  0  0
   -6.3638    2.3610    1.3265 C   0  0  0  0  0  0  0  0  0  0  0  0
   -6.8997    3.1179    0.3056 F   0  0  0  0  0  0  0  0  0  0  0  0
   -5.8829    3.2446    2.2761 F   0  0  0  0  0  0  0  0  0  0  0  0
   -7.3934    1.5974    1.8412 F   0  0  0  0  0  0  0  0  0  0  0  0
   -4.9210    1.5801   -0.5547 C   0  0  0  0  0  0  0  0  0  0  0  0
   -3.9418    0.8324   -1.0949 C   0  0  0  0  0  0  0  0  0  0  0  0
   -3.2029   -0.0912   -0.2930 C   0  0  0  0  0  0  0  0  0  0  0  0
   -2.1646   -0.7866   -0.9292 N   0  0  0  0  0  0  0  0  0  0  0  0
   -2.3562   -1.4385   -2.2511 C   0  0  0  0  0  0  0  0  0  0  0  0
   -1.2820   -0.7220   -3.0357 C   0  0  0  0  0  0  0  0  0  0  0  0
   -0.1344   -0.6237   -2.0643 C   0  0  2  0  0  0  0  0  0  0  0  0
    0.8852   -1.5240   -2.3192 O   0  0  0  0  0  0  0  0  0  0  0  0
    2.1375   -0.9785   -2.3948 C   0  0  0  0  0  0  0  0  0  0  0  0
    2.5597   -0.2848   -1.1184 C   0  0  0  0  0  0  0  0  0  0  0  0
    2.5732   -1.1767   -0.0390 O   0  0  0  0  0  0  0  0  0  0  0  0
    2.9565   -0.5413    1.1259 C   0  0  0  0  0  0  0  0  0  0  0  0
    4.2998    0.0602    1.0815 C   0  0  0  0  0  0  0  0  0  0  0  0
    5.3845   -0.7049    1.4649 C   0  0  0  0  0  0  0  0  0  0  0  0
    6.6703   -0.2155    1.4526 C   0  0  0  0  0  0  0  0  0  0  0  0
    6.8976    1.0925    1.0420 C   0  0  0  0  0  0  0  0  0  0  0  0
    5.8211    1.8682    0.6561 C   0  0  0  0  0  0  0  0  0  0  0  0
    4.5212    1.3519    0.6757 C   0  0  0  0  0  0  0  0  0  0  0  0
   -0.7776   -1.0206   -0.7016 C   0  0  0  0  0  0  0  0  0  0  0  0
   -1.5701   -2.7685    2.0819 H   0  0  0  0  0  0  0  0  0  0  0  0
   -4.7966    0.5308    2.5829 H   0  0  0  0  0  0  0  0  0  0  0  0
   -5.4826    2.2886   -1.1861 H   0  0  0  0  0  0  0  0  0  0  0  0
   -3.6488    0.8748   -2.1533 H   0  0  0  0  0  0  0  0  0  0  0  0
   -2.0501   -2.4938   -2.1649 H   0  0  0  0  0  0  0  0  0  0  0  0
   -3.3560   -1.2827   -2.6490 H   0  0  0  0  0  0  0  0  0  0  0  0
   -1.5906    0.3362   -3.2614 H   0  0  0  0  0  0  0  0  0  0  0  0
   -1.0085   -1.2646   -3.9619 H   0  0  0  0  0  0  0  0  0  0  0  0
    0.2509    0.4082   -1.9650 H   0  0  0  0  0  0  0  0  0  0  0  0
    2.8570   -1.7999   -2.5648 H   0  0  0  0  0  0  0  0  0  0  0  0
    2.2536   -0.2368   -3.2106 H   0  0  0  0  0  0  0  0  0  0  0  0
    1.9675    0.6235   -0.8930 H   0  0  0  0  0  0  0  0  0  0  0  0
    3.6172    0.0690   -1.2188 H   0  0  0  0  0  0  0  0  0  0  0  0
    2.9387   -1.2945    1.9413 H   0  0  0  0  0  0  0  0  0  0  0  0
    2.1853    0.2312    1.3817 H   0  0  0  0  0  0  0  0  0  0  0  0
    5.2538   -1.7385    1.7951 H   0  0  0  0  0  0  0  0  0  0  0  0
    7.5295   -0.8219    1.7564 H   0  0  0  0  0  0  0  0  0  0  0  0
    7.9166    1.4531    1.0414 H   0  0  0  0  0  0  0  0  0  0  0  0
    5.9909    2.8743    0.3397 H   0  0  0  0  0  0  0  0  0  0  0  0
    3.6679    1.9456    0.3768 H   0  0  0  0  0  0  0  0  0  0  0  0
   -0.5697   -2.1270   -0.5906 H   0  0  0  0  0  0  0  0  0  0  0  0
   -0.2931   -0.4830    0.0973 H   0  0  0  0  0  0  0  0  0  0  0  0
  1  2  2  0
  2  3  1  0
  2  4  1  0
  4  5  2  0
  5  6  1  0
  6  7  1  0
  7  8  1  0
  7  9  1  0
  7 10  1  0
  6 11  2  0
 11 12  1  0
 12 13  2  0
 13 14  1  0
 14 15  1  0
 15 16  1  0
 16 17  1  0
 17 18  1  0
 18 19  1  0
 19 20  1  0
 20 21  1  0
 21 22  1  0
 22 23  1  0
 23 24  2  0
 24 25  1  0
 25 26  2  0
 26 27  1  0
 27 28  2  0
 17 29  1  0
 13  4  1  0
 29 14  1  0
 28 23  1  0
  3 30  1  0
  5 31  1  0
 11 32  1  0
 12 33  1  0
 15 34  1  0
 15 35  1  0
 16 36  1  0
 16 37  1  0
 17 38  1  1
 19 39  1  0
 19 40  1  0
 20 41  1  0
 20 42  1  0
 22 43  1  0
 22 44  1  0
 24 45  1  0
 25 46  1  0
 26 47  1  0
 27 48  1  0
 28 49  1  0
 29 50  1  0
 29 51  1  0
M  END
$$$$
