@<TRIPOS>MOLECULE
*****
 23 23 0 0 0
SMALL
GASTEIGER

@<TRIPOS>ATOM
      1 C          -3.0234    0.8990    0.1817 C.3     1  UNL1       -0.0496
      2 C          -1.7579    0.1648   -0.2236 C.3     1  UNL1        0.0060
      3 N          -1.8492   -1.1645    0.3737 N.3     1  UNL1       -0.3272
      4 C          -0.5818    0.9056    0.3350 C.3     1  UNL1       -0.0127
      5 C           0.7308    0.3438    0.0459 C.ar    1  UNL1       -0.0459
      6 C           1.5156    0.6466   -1.0491 C.ar    1  UNL1       -0.0585
      7 C           2.7317    0.0609   -1.2228 C.ar    1  UNL1       -0.0615
      8 C           3.2313   -0.8491   -0.3277 C.ar    1  UNL1       -0.0617
      9 C           2.4775   -1.1892    0.7952 C.ar    1  UNL1       -0.0615
     10 C           1.2308   -0.5817    0.9631 C.ar    1  UNL1       -0.0585
     11 H          -3.7063    1.0866   -0.6635 H       1  UNL1        0.0245
     12 H          -3.5903    0.3617    0.9707 H       1  UNL1        0.0245
     13 H          -2.7702    1.8878    0.6542 H       1  UNL1        0.0245
     14 H          -1.7817    0.1054   -1.3094 H       1  UNL1        0.0459
     15 H          -0.9572   -1.6755    0.2836 H       1  UNL1        0.1185
     16 H          -2.6535   -1.6587   -0.1057 H       1  UNL1        0.1185
     17 H          -0.7193    1.0634    1.4149 H       1  UNL1        0.0328
     18 H          -0.6117    1.9314   -0.1376 H       1  UNL1        0.0328
     19 H           1.0504    1.3790   -1.7166 H       1  UNL1        0.0620
     20 H           3.2509    0.3832   -2.1233 H       1  UNL1        0.0618
     21 H           4.2057   -1.2832   -0.5175 H       1  UNL1        0.0618
     22 H           2.8657   -1.9073    1.5068 H       1  UNL1        0.0618
     23 H           0.7120   -0.9100    1.8719 H       1  UNL1        0.0620
@<TRIPOS>BOND
     1     1     2    1
     2     2     3    1
     3     2     4    1
     4     4     5    1
     5     5     6   ar
     6     6     7   ar
     7     7     8   ar
     8     8     9   ar
     9     9    10   ar
    10    10     5   ar
    11     1    11    1
    12     1    12    1
    13     1    13    1
    14     2    14    1
    15     3    15    1
    16     3    16    1
    17     4    17    1
    18     4    18    1
    19     6    19    1
    20     7    20    1
    21     8    21    1
    22     9    22    1
    23    10    23    1
