
     RDKit          3D

 23 23  0  0  0  0  0  0  0  0999 V2000
   -3.0234    0.8990    0.1817 C   0  0  0  0  0  0  0  0  0  0  0  0
   -1.7579    0.1648   -0.2236 C   0  0  0  0  0  0  0  0  0  0  0  0
   -1.8492   -1.1645    0.3737 N   0  0  0  0  0  0  0  0  0  0  0  0
   -0.5818    0.9056    0.3350 C   0  0  0  0  0  0  0  0  0  0  0  0
    0.7308    0.3438    0.0459 C   0  0  0  0  0  0  0  0  0  0  0  0
    1.5156    0.6466   -1.0491 C   0  0  0  0  0  0  0  0  0  0  0  0
    2.7317    0.0609   -1.2228 C   0  0  0  0  0  0  0  0  0  0  0  0
    3.2313   -0.8491   -0.3277 C   0  0  0  0  0  0  0  0  0  0  0  0
    2.4775   -1.1892    0.7952 C   0  0  0  0  0  0  0  0  0  0  0  0
    1.2308   -0.5817    0.9631 C   0  0  0  0  0  0  0  0  0  0  0  0
   -3.7063    1.0866   -0.6635 H   0  0  0  0  0  0  0  0  0  0  0  0
   -3.5903    0.3617    0.9707 H   0  0  0  0  0  0  0  0  0  0  0  0
   -2.7702    1.8878    0.6542 H   0  0  0  0  0  0  0  0  0  0  0  0
   -1.7817    0.1054   -1.3094 H   0  0  0  0  0  0  0  0  0  0  0  0
   -0.9572   -1.6755    0.2836 H   0  0  0  0  0  0  0  0  0  0  0  0
   -2.6535   -1.6587   -0.1057 H   0  0  0  0  0  0  0  0  0  0  0  0
   -0.7193    1.0634    1.4149 H   0  0  0  0  0  0  0  0  0  0  0  0
   -0.6117    1.9314   -0.1376 H   0  0  0  0  0  0  0  0  0  0  0  0
    1.0504    1.3790   -1.7166 H   0  0  0  0  0  0  0  0  0  0  0  0
    3.2509    0.3832   -2.1233 H   0  0  0  0  0  0  0  0  0  0  0  0
    4.2057   -1.2832   -0.5175 H   0  0  0  0  0  0  0  0  0  0  0  0
    2.8657   -1.9073    1.5068 H   0  0  0  0  0  0  0  0  0  0  0  0
    0.7120   -0.9100    1.8719 H   0  0  0  0  0  0  0  0  0  0  0  0
  1  2  1  0
  2  3  1  0
  2  4  1  0
  4  5  1  0
  5  6  2  0
  6  7  1  0
  7  8  2  0
  8  9  1  0
  9 10  2  0
 10  5  1  0
  1 11  1  0
  1 12  1  0
  1 13  1  0
  2 14  1  0
  3 15  1  0
  3 16  1  0
  4 17  1  0
  4 18  1  0
  6 19  1  0
  7 20  1  0
  8 21  1  0
  9 22  1  0
 10 23  1  0
M  END
$$$$
