@<TRIPOS>MOLECULE
*****
 35 36 0 0 0
SMALL
GASTEIGER

@<TRIPOS>ATOM
      1 C          -2.8554   -2.3560    2.3730 C.3     1  UNL1        0.0804
      2 O          -1.9754   -1.9933    1.3468 O.3     1  UNL1       -0.4795
      3 C          -2.0685   -0.7824    0.6749 C.ar    1  UNL1        0.2222
      4 N          -3.0471    0.1065    1.0094 N.ar    1  UNL1       -0.1595
      5 C          -3.1141    1.2588    0.3505 C.ar    1  UNL1        0.3225
      6 O          -4.0861    2.2087    0.6408 O.3     1  UNL1       -0.4656
      7 C          -5.0552    2.0394    1.6275 C.3     1  UNL1        0.0819
      8 N          -2.2629    1.5807   -0.6243 N.ar    1  UNL1       -0.1785
      9 C          -1.2517    0.7745   -1.0399 C.ar    1  UNL1        0.1482
     10 N          -0.3542    1.0990   -2.0646 N.pl3   1  UNL1       -0.1992
     11 S           0.9517    0.2103   -2.6899 S.O2    1  UNL1        0.0735
     12 O           0.5054   -1.1270   -3.2239 O.2     1  UNL1       -0.1499
     13 O           1.5539    0.9322   -3.8784 O.2     1  UNL1       -0.1499
     14 C           2.2130   -0.1257   -1.5254 C.ar    1  UNL1        0.1087
     15 C           3.1254    0.9294   -1.3922 C.ar    1  UNL1       -0.0333
     16 C           4.2091    0.8928   -0.5395 C.ar    1  UNL1       -0.0392
     17 C           4.4104   -0.2390    0.2248 C.ar    1  UNL1        0.0247
     18 N           5.5039   -0.3536    1.1269 N.pl3   1  UNL1       -0.3580
     19 C           3.5155   -1.2808    0.0977 C.ar    1  UNL1       -0.0392
     20 C           2.4317   -1.2474   -0.7536 C.ar    1  UNL1       -0.0333
     21 C          -1.2100   -0.4107   -0.3377 C.ar    1  UNL1        0.0414
     22 H          -2.3768   -2.7003    3.3033 H       1  UNL1        0.0660
     23 H          -3.4561   -3.2345    1.9979 H       1  UNL1        0.0660
     24 H          -3.5579   -1.5213    2.6471 H       1  UNL1        0.0660
     25 H          -5.9200    2.7121    1.4551 H       1  UNL1        0.0661
     26 H          -4.6581    2.2627    2.6356 H       1  UNL1        0.0661
     27 H          -5.4813    1.0118    1.6572 H       1  UNL1        0.0661
     28 H          -0.5437    2.0450   -2.4928 H       1  UNL1        0.1752
     29 H           3.0677    1.8670   -1.9418 H       1  UNL1        0.0638
     30 H           4.9155    1.6844   -0.4229 H       1  UNL1        0.0636
     31 H           5.9387    0.3328    1.7857 H       1  UNL1        0.1423
     32 H           6.1001   -1.2056    1.2948 H       1  UNL1        0.1423
     33 H           3.5933   -2.2105    0.6582 H       1  UNL1        0.0636
     34 H           1.7059   -2.0062   -0.9107 H       1  UNL1        0.0638
     35 H          -0.4668   -1.1537   -0.5533 H       1  UNL1        0.0706
@<TRIPOS>BOND
     1     1     2    1
     2     2     3    1
     3     3     4   ar
     4     4     5   ar
     5     5     6    1
     6     6     7    1
     7     5     8   ar
     8     8     9   ar
     9     9    10    1
    10    10    11    1
    11    11    12    2
    12    11    13    2
    13    11    14    1
    14    14    15   ar
    15    15    16   ar
    16    16    17   ar
    17    17    18    1
    18    17    19   ar
    19    19    20   ar
    20     9    21   ar
    21    21     3   ar
    22    20    14   ar
    23     1    22    1
    24     1    23    1
    25     1    24    1
    26     7    25    1
    27     7    26    1
    28     7    27    1
    29    10    28    1
    30    15    29    1
    31    16    30    1
    32    18    31    1
    33    18    32    1
    34    19    33    1
    35    20    34    1
    36    21    35    1
