
     RDKit          3D

 35 36  0  0  0  0  0  0  0  0999 V2000
   -2.8554   -2.3560    2.3730 C   0  0  0  0  0  0  0  0  0  0  0  0
   -1.9754   -1.9933    1.3468 O   0  0  0  0  0  0  0  0  0  0  0  0
   -2.0685   -0.7824    0.6749 C   0  0  0  0  0  0  0  0  0  0  0  0
   -3.0471    0.1065    1.0094 N   0  0  0  0  0  0  0  0  0  0  0  0
   -3.1141    1.2588    0.3505 C   0  0  0  0  0  0  0  0  0  0  0  0
   -4.0861    2.2087    0.6408 O   0  0  0  0  0  0  0  0  0  0  0  0
   -5.0552    2.0394    1.6275 C   0  0  0  0  0  0  0  0  0  0  0  0
   -2.2629    1.5807   -0.6243 N   0  0  0  0  0  0  0  0  0  0  0  0
   -1.2517    0.7745   -1.0399 C   0  0  0  0  0  0  0  0  0  0  0  0
   -0.3542    1.0990   -2.0646 N   0  0  0  0  0  0  0  0  0  0  0  0
    0.9517    0.2103   -2.6899 S   0  0  0  0  0  0  0  0  0  0  0  0
    0.5054   -1.1270   -3.2239 O   0  0  0  0  0  0  0  0  0  0  0  0
    1.5539    0.9322   -3.8784 O   0  0  0  0  0  0  0  0  0  0  0  0
    2.2130   -0.1257   -1.5254 C   0  0  0  0  0  0  0  0  0  0  0  0
    3.1254    0.9294   -1.3922 C   0  0  0  0  0  0  0  0  0  0  0  0
    4.2091    0.8928   -0.5395 C   0  0  0  0  0  0  0  0  0  0  0  0
    4.4104   -0.2390    0.2248 C   0  0  0  0  0  0  0  0  0  0  0  0
    5.5039   -0.3536    1.1269 N   0  0  0  0  0  0  0  0  0  0  0  0
    3.5155   -1.2808    0.0977 C   0  0  0  0  0  0  0  0  0  0  0  0
    2.4317   -1.2474   -0.7536 C   0  0  0  0  0  0  0  0  0  0  0  0
   -1.2100   -0.4107   -0.3377 C   0  0  0  0  0  0  0  0  0  0  0  0
   -2.3768   -2.7003    3.3033 H   0  0  0  0  0  0  0  0  0  0  0  0
   -3.4561   -3.2345    1.9979 H   0  0  0  0  0  0  0  0  0  0  0  0
   -3.5579   -1.5213    2.6471 H   0  0  0  0  0  0  0  0  0  0  0  0
   -5.9200    2.7121    1.4551 H   0  0  0  0  0  0  0  0  0  0  0  0
   -4.6581    2.2627    2.6356 H   0  0  0  0  0  0  0  0  0  0  0  0
   -5.4813    1.0118    1.6572 H   0  0  0  0  0  0  0  0  0  0  0  0
   -0.5437    2.0450   -2.4928 H   0  0  0  0  0  0  0  0  0  0  0  0
    3.0677    1.8670   -1.9418 H   0  0  0  0  0  0  0  0  0  0  0  0
    4.9155    1.6844   -0.4229 H   0  0  0  0  0  0  0  0  0  0  0  0
    5.9387    0.3328    1.7857 H   0  0  0  0  0  0  0  0  0  0  0  0
    6.1001   -1.2056    1.2948 H   0  0  0  0  0  0  0  0  0  0  0  0
    3.5933   -2.2105    0.6582 H   0  0  0  0  0  0  0  0  0  0  0  0
    1.7059   -2.0062   -0.9107 H   0  0  0  0  0  0  0  0  0  0  0  0
   -0.4668   -1.1537   -0.5533 H   0  0  0  0  0  0  0  0  0  0  0  0
  1  2  1  0
  2  3  1  0
  3  4  2  0
  4  5  1  0
  5  6  1  0
  6  7  1  0
  5  8  2  0
  8  9  1  0
  9 10  1  0
 10 11  1  0
 11 12  2  0
 11 13  2  0
 11 14  1  0
 14 15  2  0
 15 16  1  0
 16 17  2  0
 17 18  1  0
 17 19  1  0
 19 20  2  0
  9 21  2  0
 21  3  1  0
 20 14  1  0
  1 22  1  0
  1 23  1  0
  1 24  1  0
  7 25  1  0
  7 26  1  0
  7 27  1  0
 10 28  1  0
 15 29  1  0
 16 30  1  0
 18 31  1  0
 18 32  1  0
 19 33  1  0
 20 34  1  0
 21 35  1  0
M  END
$$$$
