
     RDKit          3D

 32 34  0  0  0  0  0  0  0  0999 V2000
   -6.1591    1.1712    1.1684 N   0  0  0  0  0  0  0  0  0  0  0  0
   -5.6593   -0.0528    0.0561 S   0  0  0  0  0  0  0  0  0  0  0  0
   -6.2875    0.1058   -1.2965 O   0  0  0  0  0  0  0  0  0  0  0  0
   -6.1269   -1.4060    0.5680 O   0  0  0  0  0  0  0  0  0  0  0  0
   -3.9164   -0.0363   -0.0073 C   0  0  0  0  0  0  0  0  0  0  0  0
   -3.2422    0.7521   -0.9116 C   0  0  0  0  0  0  0  0  0  0  0  0
   -1.8645    0.7894   -0.9891 C   0  0  0  0  0  0  0  0  0  0  0  0
   -1.1074   -0.0010   -0.1194 C   0  0  0  0  0  0  0  0  0  0  0  0
   -1.7891   -0.7899    0.7859 C   0  0  0  0  0  0  0  0  0  0  0  0
   -3.1742   -0.8200    0.8554 C   0  0  0  0  0  0  0  0  0  0  0  0
    0.3314   -0.0303   -0.1234 N   0  0  0  0  0  0  0  0  0  0  0  0
    0.9312   -0.7365   -0.9891 N   0  0  0  0  0  0  0  0  0  0  0  0
    2.3207   -0.8736   -1.1285 C   0  0  0  0  0  0  0  0  0  0  0  0
    3.3857   -0.2862   -0.6392 C   0  0  0  0  0  0  0  0  0  0  0  0
    3.3872    0.7732    0.2728 C   0  0  0  0  0  0  0  0  0  0  0  0
    4.6130    1.2647    0.6769 C   0  0  0  0  0  0  0  0  0  0  0  0
    4.7453    2.7208    1.9283 Br  0  0  0  0  0  0  0  0  0  0  0  0
    5.8275    0.7568    0.2211 C   0  0  0  0  0  0  0  0  0  0  0  0
    5.7163   -0.2870   -0.6757 C   0  0  0  0  0  0  0  0  0  0  0  0
    4.5492   -0.8407   -1.1344 C   0  0  0  0  0  0  0  0  0  0  0  0
    4.2852   -1.7961   -1.9528 N   0  0  0  0  0  0  0  0  0  0  0  0
    2.8546   -1.9060   -2.0254 C   0  0  0  0  0  0  0  0  0  0  0  0
    2.3207   -2.7727   -2.7632 O   0  0  0  0  0  0  0  0  0  0  0  0
   -6.1059    0.7521    2.1246 H   0  0  0  0  0  0  0  0  0  0  0  0
   -5.5878    2.0230    1.0867 H   0  0  0  0  0  0  0  0  0  0  0  0
   -3.8160    1.3808   -1.6043 H   0  0  0  0  0  0  0  0  0  0  0  0
   -1.2973    1.3977   -1.6881 H   0  0  0  0  0  0  0  0  0  0  0  0
   -1.2986   -1.4371    1.5014 H   0  0  0  0  0  0  0  0  0  0  0  0
   -3.7346   -1.4241    1.5494 H   0  0  0  0  0  0  0  0  0  0  0  0
    2.4633    1.2057    0.6592 H   0  0  0  0  0  0  0  0  0  0  0  0
    6.7901    1.1180    0.5172 H   0  0  0  0  0  0  0  0  0  0  0  0
    6.6453   -0.7149   -1.0584 H   0  0  0  0  0  0  0  0  0  0  0  0
  1  2  1  0
  2  3  2  0
  2  4  2  0
  2  5  1  0
  5  6  2  0
  6  7  1  0
  7  8  2  0
  8  9  1  0
  9 10  2  0
  8 11  1  0
 11 12  2  0
 12 13  1  0
 13 14  2  0
 14 15  1  0
 15 16  2  0
 16 17  1  0
 16 18  1  0
 18 19  2  0
 19 20  1  0
 20 21  2  0
 21 22  1  0
 22 23  2  0
 10  5  1  0
 22 13  1  0
 20 14  1  0
  1 24  1  0
  1 25  1  0
  6 26  1  0
  7 27  1  0
  9 28  1  0
 10 29  1  0
 15 30  1  0
 18 31  1  0
 19 32  1  0
M  END
$$$$
