@<TRIPOS>MOLECULE
*****
 32 34 0 0 0
SMALL
GASTEIGER

@<TRIPOS>ATOM
      1 N          -6.1591    1.1712    1.1684 N.3     1  UNL1       -0.2035
      2 S          -5.6593   -0.0528    0.0561 S.O2    1  UNL1        0.0559
      3 O          -6.2875    0.1058   -1.2965 O.2     1  UNL1       -0.1533
      4 O          -6.1269   -1.4060    0.5680 O.2     1  UNL1       -0.1533
      5 C          -3.9164   -0.0363   -0.0073 C.ar    1  UNL1        0.1051
      6 C          -3.2422    0.7521   -0.9116 C.ar    1  UNL1       -0.0333
      7 C          -1.8645    0.7894   -0.9891 C.ar    1  UNL1       -0.0327
      8 C          -1.1074   -0.0010   -0.1194 C.ar    1  UNL1        0.0863
      9 C          -1.7891   -0.7899    0.7859 C.ar    1  UNL1       -0.0327
     10 C          -3.1742   -0.8200    0.8554 C.ar    1  UNL1       -0.0333
     11 N           0.3314   -0.0303   -0.1234 N.2     1  UNL1       -0.1491
     12 N           0.9312   -0.7365   -0.9891 N.2     1  UNL1       -0.1433
     13 C           2.3207   -0.8736   -1.1285 C.2     1  UNL1        0.1586
     14 C           3.3857   -0.2862   -0.6392 C.ar    1  UNL1        0.0314
     15 C           3.3872    0.7732    0.2728 C.ar    1  UNL1       -0.0365
     16 C           4.6130    1.2647    0.6769 C.ar    1  UNL1        0.0186
     17 BR          4.7453    2.7208    1.9283 Br      1  UNL1       -0.0503
     18 C           5.8275    0.7568    0.2211 C.ar    1  UNL1       -0.0459
     19 C           5.7163   -0.2870   -0.6757 C.ar    1  UNL1       -0.0369
     20 C           4.5492   -0.8407   -1.1344 C.ar    1  UNL1        0.0664
     21 N           4.2852   -1.7961   -1.9528 N.am    1  UNL1       -0.1747
     22 C           2.8546   -1.9060   -2.0254 C.2     1  UNL1        0.2885
     23 O           2.3207   -2.7727   -2.7632 O.2     1  UNL1       -0.2663
     24 H          -6.1059    0.7521    2.1246 H       1  UNL1        0.1442
     25 H          -5.5878    2.0230    1.0867 H       1  UNL1        0.1442
     26 H          -3.8160    1.3808   -1.6043 H       1  UNL1        0.0638
     27 H          -1.2973    1.3977   -1.6881 H       1  UNL1        0.0640
     28 H          -1.2986   -1.4371    1.5014 H       1  UNL1        0.0640
     29 H          -3.7346   -1.4241    1.5494 H       1  UNL1        0.0638
     30 H           2.4633    1.2057    0.6592 H       1  UNL1        0.0636
     31 H           6.7901    1.1180    0.5172 H       1  UNL1        0.0629
     32 H           6.6453   -0.7149   -1.0584 H       1  UNL1        0.0637
@<TRIPOS>BOND
     1     1     2    1
     2     2     3    2
     3     2     4    2
     4     2     5    1
     5     5     6   ar
     6     6     7   ar
     7     7     8   ar
     8     8     9   ar
     9     9    10   ar
    10     8    11    1
    11    11    12    2
    12    12    13    1
    13    13    14    2
    14    14    15   ar
    15    15    16   ar
    16    16    17    1
    17    16    18   ar
    18    18    19   ar
    19    19    20   ar
    20    20    21    2
    21    21    22    1
    22    22    23    2
    23    10     5   ar
    24    22    13    1
    25    20    14   ar
    26     1    24    1
    27     1    25    1
    28     6    26    1
    29     7    27    1
    30     9    28    1
    31    10    29    1
    32    15    30    1
    33    18    31    1
    34    19    32    1
