
     RDKit          3D

 33 32  0  0  0  0  0  0  0  0999 V2000
   -5.4366    0.8771    0.7820 O   0  0  0  0  0  0  0  0  0  0  0  0
   -4.2263    0.2820    0.4544 C   0  0  0  0  0  0  0  0  0  0  0  0
   -3.9641    0.2622   -1.0262 C   0  0  0  0  0  0  0  0  0  0  0  0
   -2.6597   -0.3943   -1.3438 C   0  0  0  0  0  0  0  0  0  0  0  0
   -1.4501    0.2972   -0.7335 C   0  0  0  0  0  0  0  0  0  0  0  0
   -0.2640   -0.5393   -1.1775 C   0  0  0  0  0  0  0  0  0  0  0  0
    1.0552   -0.0463   -0.6964 C   0  0  0  0  0  0  0  0  0  0  0  0
    1.1752    0.0216    0.8101 C   0  0  0  0  0  0  0  0  0  0  0  0
    2.5764    0.5393    1.1171 C   0  0  0  0  0  0  0  0  0  0  0  0
    3.5709   -0.3735    0.5807 N   0  0  0  0  0  0  0  0  0  0  0  0
    4.9276    0.1493    0.6815 C   0  0  0  0  0  0  0  0  0  0  0  0
    5.1899    0.3663    2.0278 O   0  0  0  0  0  0  0  0  0  0  0  0
   -5.6733    1.6096    0.1303 H   0  0  0  0  0  0  0  0  0  0  0  0
   -4.2159   -0.7609    0.8300 H   0  0  0  0  0  0  0  0  0  0  0  0
   -3.4368    0.8363    0.9997 H   0  0  0  0  0  0  0  0  0  0  0  0
   -4.0347    1.2861   -1.4730 H   0  0  0  0  0  0  0  0  0  0  0  0
   -4.7562   -0.3267   -1.5338 H   0  0  0  0  0  0  0  0  0  0  0  0
   -2.4963   -0.4437   -2.4464 H   0  0  0  0  0  0  0  0  0  0  0  0
   -2.6598   -1.4276   -0.9175 H   0  0  0  0  0  0  0  0  0  0  0  0
   -1.3562    1.3368   -1.1221 H   0  0  0  0  0  0  0  0  0  0  0  0
   -1.5565    0.3272    0.3526 H   0  0  0  0  0  0  0  0  0  0  0  0
   -0.2488   -0.5727   -2.2943 H   0  0  0  0  0  0  0  0  0  0  0  0
   -0.4289   -1.5791   -0.8108 H   0  0  0  0  0  0  0  0  0  0  0  0
    1.8489   -0.7601   -1.0633 H   0  0  0  0  0  0  0  0  0  0  0  0
    1.2800    0.9870   -1.0807 H   0  0  0  0  0  0  0  0  0  0  0  0
    1.0773   -0.9615    1.3022 H   0  0  0  0  0  0  0  0  0  0  0  0
    0.4362    0.7327    1.2303 H   0  0  0  0  0  0  0  0  0  0  0  0
    2.6875    1.5214    0.6426 H   0  0  0  0  0  0  0  0  0  0  0  0
    2.7434    0.6356    2.2018 H   0  0  0  0  0  0  0  0  0  0  0  0
    3.4966   -1.3178    1.0302 H   0  0  0  0  0  0  0  0  0  0  0  0
    5.6059   -0.6212    0.2449 H   0  0  0  0  0  0  0  0  0  0  0  0
    5.0595    1.0673    0.0651 H   0  0  0  0  0  0  0  0  0  0  0  0
    6.1336    0.0712    2.2360 H   0  0  0  0  0  0  0  0  0  0  0  0
  1  2  1  0
  2  3  1  0
  3  4  1  0
  4  5  1  0
  5  6  1  0
  6  7  1  0
  7  8  1  0
  8  9  1  0
  9 10  1  0
 10 11  1  0
 11 12  1  0
  1 13  1  0
  2 14  1  0
  2 15  1  0
  3 16  1  0
  3 17  1  0
  4 18  1  0
  4 19  1  0
  5 20  1  0
  5 21  1  0
  6 22  1  0
  6 23  1  0
  7 24  1  0
  7 25  1  0
  8 26  1  0
  8 27  1  0
  9 28  1  0
  9 29  1  0
 10 30  1  0
 11 31  1  0
 11 32  1  0
 12 33  1  0
M  END
$$$$
