@<TRIPOS>MOLECULE
*****
 68 70 0 0 0
SMALL
GASTEIGER

@<TRIPOS>ATOM
      1 C          -4.6859   -3.5873   -0.3071 C.3     1  UNL1       -0.0585
      2 C          -3.7305   -2.7563   -1.1179 C.3     1  UNL1       -0.0183
      3 C          -3.9652   -3.0243   -2.5948 C.3     1  UNL1       -0.0585
      4 C          -3.9170   -1.3324   -0.7897 C.ar    1  UNL1       -0.0056
      5 C          -5.1009   -0.6885   -1.0983 C.ar    1  UNL1        0.0334
      6 N          -5.3233    0.6107   -0.8373 N.ar    1  UNL1       -0.2545
      7 C          -4.3581    1.3720   -0.2374 C.ar    1  UNL1        0.0755
      8 C          -4.6458    2.7717    0.0239 C.ar    1  UNL1        0.0369
      9 C          -3.7261    3.5940    0.6218 C.ar    1  UNL1       -0.0314
     10 C          -3.9830    4.9415    0.8817 C.ar    1  UNL1        0.0418
     11 CL         -2.7765    5.9694    1.6521 Cl      1  UNL1       -0.0835
     12 C          -5.1935    5.4447    0.5240 C.ar    1  UNL1       -0.0406
     13 C          -6.1467    4.6447   -0.0814 C.ar    1  UNL1       -0.0244
     14 C          -5.8831    3.3138   -0.3341 C.ar    1  UNL1        0.1326
     15 F          -6.7996    2.5004   -0.9281 F       1  UNL1       -0.2048
     16 C          -3.1772    0.7464    0.0753 C.ar    1  UNL1       -0.0141
     17 C          -2.9462   -0.5956   -0.1936 C.ar    1  UNL1        0.0383
     18 N          -1.6608   -1.0900    0.1246 N.pl3   1  UNL1       -0.3135
     19 C          -1.4790   -2.0445    1.1468 C.ar    1  UNL1        0.0465
     20 C          -2.5796   -2.4223    1.9341 C.ar    1  UNL1       -0.0217
     21 C          -2.4891   -3.3322    2.9223 C.ar    1  UNL1        0.0293
     22 N          -1.3521   -3.9388    3.2250 N.ar    1  UNL1       -0.2624
     23 C          -0.2606   -3.6005    2.4849 C.ar    1  UNL1        0.0415
     24 C          -0.3003   -2.6722    1.4587 C.ar    1  UNL1        0.0758
     25 C           0.9206   -2.4101    0.7335 C.2     1  UNL1        0.2474
     26 O           0.9180   -1.6147   -0.2343 O.2     1  UNL1       -0.2701
     27 N           2.1909   -2.9860    1.0129 N.am    1  UNL1       -0.3098
     28 C           3.3936   -2.6668    0.2332 C.3     1  UNL1        0.0276
     29 C           3.7376   -1.2245    0.3226 C.3     1  UNL1        0.0303
     30 N           4.9417   -0.8952   -0.4420 N.am    1  UNL1       -0.2796
     31 C           5.3642    0.4672   -0.4260 C.2     1  UNL1        0.4008
     32 O           4.7051    1.3274    0.2296 O.2     1  UNL1       -0.2265
     33 O           6.4773    0.9203   -1.0986 O.3     1  UNL1       -0.4447
     34 C           6.8686    2.3024   -1.0566 C.3     1  UNL1        0.1068
     35 C           8.1197    2.4126   -1.9027 C.3     1  UNL1       -0.0253
     36 C           5.7728    3.2145   -1.4958 C.3     1  UNL1       -0.0253
     37 C           7.2797    2.6573    0.3770 C.3     1  UNL1       -0.0253
     38 H          -5.2636   -2.9353    0.4096 H       1  UNL1        0.0235
     39 H          -4.1069   -4.3563    0.2801 H       1  UNL1        0.0235
     40 H          -5.3957   -4.0924   -0.9852 H       1  UNL1        0.0235
     41 H          -2.6728   -3.0647   -0.9386 H       1  UNL1        0.0344
     42 H          -3.5437   -4.0302   -2.8095 H       1  UNL1        0.0235
     43 H          -5.0364   -3.0580   -2.8453 H       1  UNL1        0.0235
     44 H          -3.4662   -2.2976   -3.2437 H       1  UNL1        0.0235
     45 H          -5.9214   -1.2225   -1.5776 H       1  UNL1        0.0833
     46 H          -2.7397    3.2498    0.9311 H       1  UNL1        0.0639
     47 H          -5.3950    6.4950    0.7260 H       1  UNL1        0.0633
     48 H          -7.1132    5.0618   -0.3629 H       1  UNL1        0.0647
     49 H          -2.3965    1.3214    0.5496 H       1  UNL1        0.0658
     50 H          -0.8871   -0.7074   -0.4214 H       1  UNL1        0.1522
     51 H          -3.5165   -1.9410    1.7182 H       1  UNL1        0.0651
     52 H          -3.3636   -3.5979    3.5089 H       1  UNL1        0.0830
     53 H           0.6562   -4.1016    2.7410 H       1  UNL1        0.0838
     54 H           2.2501   -3.6582    1.8073 H       1  UNL1        0.1491
     55 H           3.2784   -3.0349   -0.8058 H       1  UNL1        0.0477
     56 H           4.2353   -3.2447    0.6636 H       1  UNL1        0.0477
     57 H           3.8695   -0.8501    1.3441 H       1  UNL1        0.0478
     58 H           2.9406   -0.6128   -0.1383 H       1  UNL1        0.0478
     59 H           5.4893   -1.5722   -0.9781 H       1  UNL1        0.1521
     60 H           8.8075    3.1809   -1.4910 H       1  UNL1        0.0268
     61 H           7.7907    2.6414   -2.9408 H       1  UNL1        0.0268
     62 H           8.6559    1.4440   -1.8848 H       1  UNL1        0.0268
     63 H           6.1837    4.1359   -1.9848 H       1  UNL1        0.0268
     64 H           5.0539    2.7466   -2.1720 H       1  UNL1        0.0268
     65 H           5.1878    3.5351   -0.5876 H       1  UNL1        0.0268
     66 H           7.6839    1.7383    0.8656 H       1  UNL1        0.0268
     67 H           8.0826    3.4107    0.3328 H       1  UNL1        0.0268
     68 H           6.4429    3.0878    0.9464 H       1  UNL1        0.0268
@<TRIPOS>BOND
     1     1     2    1
     2     2     3    1
     3     2     4    1
     4     4     5   ar
     5     5     6   ar
     6     6     7   ar
     7     7     8    1
     8     8     9   ar
     9     9    10   ar
    10    10    11    1
    11    10    12   ar
    12    12    13   ar
    13    13    14   ar
    14    14    15    1
    15     7    16   ar
    16    16    17   ar
    17    17    18    1
    18    18    19    1
    19    19    20   ar
    20    20    21   ar
    21    21    22   ar
    22    22    23   ar
    23    23    24   ar
    24    24    25    1
    25    25    26    2
    26    25    27   am
    27    27    28    1
    28    28    29    1
    29    29    30    1
    30    30    31   am
    31    31    32    2
    32    31    33    1
    33    33    34    1
    34    34    35    1
    35    34    36    1
    36    34    37    1
    37    17     4   ar
    38    24    19   ar
    39    14     8   ar
    40     1    38    1
    41     1    39    1
    42     1    40    1
    43     2    41    1
    44     3    42    1
    45     3    43    1
    46     3    44    1
    47     5    45    1
    48     9    46    1
    49    12    47    1
    50    13    48    1
    51    16    49    1
    52    18    50    1
    53    20    51    1
    54    21    52    1
    55    23    53    1
    56    27    54    1
    57    28    55    1
    58    28    56    1
    59    29    57    1
    60    29    58    1
    61    30    59    1
    62    35    60    1
    63    35    61    1
    64    35    62    1
    65    36    63    1
    66    36    64    1
    67    36    65    1
    68    37    66    1
    69    37    67    1
    70    37    68    1
