@<TRIPOS>MOLECULE
*****
 28 27 0 0 0
SMALL
GASTEIGER

@<TRIPOS>ATOM
      1 C           0.5455    0.2792   -0.8569 C.3     1  UNL1        0.0745
      2 C          -0.2741   -0.3352    0.2128 C.3     1  UNL1       -0.0362
      3 C          -1.6820   -0.6739   -0.0959 C.3     1  UNL1       -0.0459
      4 C          -2.3757   -1.2988    1.1226 C.3     1  UNL1       -0.0626
      5 C          -2.5547    0.4246   -0.5945 C.3     1  UNL1       -0.0626
      6 C           1.9755    0.5714   -0.4205 C.3     1  UNL1        0.0543
      7 N           2.7069   -0.5933   -0.0082 N.am    1  UNL1       -0.1856
      8 O           3.4747   -1.4356   -0.7388 O.3     1  UNL1       -0.2927
      9 C           2.6431   -0.9523    1.3667 C.2     1  UNL1        0.2250
     10 O           2.0830   -0.4961    2.3886 O.2     1  UNL1       -0.2772
     11 C          -0.0106    1.6578   -1.1419 C.2     1  UNL1        0.3094
     12 O           0.0732    2.4208    0.0417 O.3     1  UNL1       -0.4804
     13 O          -0.5186    2.3079   -2.1200 O.2     1  UNL1       -0.2506
     14 H           0.5669   -0.2863   -1.7863 H       1  UNL1        0.0430
     15 H           0.2166   -1.2846    0.5325 H       1  UNL1        0.0276
     16 H          -0.2519    0.3135    1.1260 H       1  UNL1        0.0276
     17 H          -1.7571   -1.4918   -0.8742 H       1  UNL1        0.0296
     18 H          -3.4443   -1.4620    0.8787 H       1  UNL1        0.0232
     19 H          -2.3306   -0.5623    1.9620 H       1  UNL1        0.0232
     20 H          -1.9041   -2.2392    1.4128 H       1  UNL1        0.0232
     21 H          -2.5258    0.4959   -1.7076 H       1  UNL1        0.0232
     22 H          -2.4515    1.3729   -0.0655 H       1  UNL1        0.0232
     23 H          -3.6212    0.0983   -0.3929 H       1  UNL1        0.0232
     24 H           2.4274    1.0688   -1.3224 H       1  UNL1        0.0497
     25 H           1.9957    1.3584    0.3588 H       1  UNL1        0.0497
     26 H           4.1326   -0.8542   -1.2230 H       1  UNL1        0.2416
     27 H           3.1206   -1.7869    1.8612 H       1  UNL1        0.1274
     28 H          -0.2595    3.3828    0.0841 H       1  UNL1        0.2951
@<TRIPOS>BOND
     1     1     2    1
     2     2     3    1
     3     3     4    1
     4     3     5    1
     5     1     6    1
     6     6     7    1
     7     7     8    1
     8     7     9   am
     9     9    10    2
    10     1    11    1
    11    11    12    1
    12    11    13    2
    13     1    14    1
    14     2    15    1
    15     2    16    1
    16     3    17    1
    17     4    18    1
    18     4    19    1
    19     4    20    1
    20     5    21    1
    21     5    22    1
    22     5    23    1
    23     6    24    1
    24     6    25    1
    25     8    26    1
    26     9    27    1
    27    12    28    1
