
     RDKit          3D

 28 27  0  0  0  0  0  0  0  0999 V2000
    0.5455    0.2792   -0.8569 C   0  0  2  0  0  0  0  0  0  0  0  0
   -0.2741   -0.3352    0.2128 C   0  0  0  0  0  0  0  0  0  0  0  0
   -1.6820   -0.6739   -0.0959 C   0  0  0  0  0  0  0  0  0  0  0  0
   -2.3757   -1.2988    1.1226 C   0  0  0  0  0  0  0  0  0  0  0  0
   -2.5547    0.4246   -0.5945 C   0  0  0  0  0  0  0  0  0  0  0  0
    1.9755    0.5714   -0.4205 C   0  0  0  0  0  0  0  0  0  0  0  0
    2.7069   -0.5933   -0.0082 N   0  0  0  0  0  0  0  0  0  0  0  0
    3.4747   -1.4356   -0.7388 O   0  0  0  0  0  0  0  0  0  0  0  0
    2.6431   -0.9523    1.3667 C   0  0  0  0  0  0  0  0  0  0  0  0
    2.0830   -0.4961    2.3886 O   0  0  0  0  0  0  0  0  0  0  0  0
   -0.0106    1.6578   -1.1419 C   0  0  0  0  0  0  0  0  0  0  0  0
    0.0732    2.4208    0.0417 O   0  0  0  0  0  0  0  0  0  0  0  0
   -0.5186    2.3079   -2.1200 O   0  0  0  0  0  0  0  0  0  0  0  0
    0.5669   -0.2863   -1.7863 H   0  0  0  0  0  0  0  0  0  0  0  0
    0.2166   -1.2846    0.5325 H   0  0  0  0  0  0  0  0  0  0  0  0
   -0.2519    0.3135    1.1260 H   0  0  0  0  0  0  0  0  0  0  0  0
   -1.7571   -1.4918   -0.8742 H   0  0  0  0  0  0  0  0  0  0  0  0
   -3.4443   -1.4620    0.8787 H   0  0  0  0  0  0  0  0  0  0  0  0
   -2.3306   -0.5623    1.9620 H   0  0  0  0  0  0  0  0  0  0  0  0
   -1.9041   -2.2392    1.4128 H   0  0  0  0  0  0  0  0  0  0  0  0
   -2.5258    0.4959   -1.7076 H   0  0  0  0  0  0  0  0  0  0  0  0
   -2.4515    1.3729   -0.0655 H   0  0  0  0  0  0  0  0  0  0  0  0
   -3.6212    0.0983   -0.3929 H   0  0  0  0  0  0  0  0  0  0  0  0
    2.4274    1.0688   -1.3224 H   0  0  0  0  0  0  0  0  0  0  0  0
    1.9957    1.3584    0.3588 H   0  0  0  0  0  0  0  0  0  0  0  0
    4.1326   -0.8542   -1.2230 H   0  0  0  0  0  0  0  0  0  0  0  0
    3.1206   -1.7869    1.8612 H   0  0  0  0  0  0  0  0  0  0  0  0
   -0.2595    3.3828    0.0841 H   0  0  0  0  0  0  0  0  0  0  0  0
  1  2  1  0
  2  3  1  0
  3  4  1  0
  3  5  1  0
  1  6  1  0
  6  7  1  0
  7  8  1  0
  7  9  1  0
  9 10  2  0
  1 11  1  0
 11 12  1  0
 11 13  2  0
  1 14  1  6
  2 15  1  0
  2 16  1  0
  3 17  1  0
  4 18  1  0
  4 19  1  0
  4 20  1  0
  5 21  1  0
  5 22  1  0
  5 23  1  0
  6 24  1  0
  6 25  1  0
  8 26  1  0
  9 27  1  0
 12 28  1  0
M  END
$$$$
