
     RDKit          3D

 50 53  0  0  0  0  0  0  0  0999 V2000
    9.2611    1.4144   -1.6962 F   0  0  0  0  0  0  0  0  0  0  0  0
    8.1046    0.7964   -1.3617 C   0  0  0  0  0  0  0  0  0  0  0  0
    6.9006    1.2209   -1.8520 C   0  0  0  0  0  0  0  0  0  0  0  0
    5.6914    0.6393   -1.5522 C   0  0  0  0  0  0  0  0  0  0  0  0
    5.6552   -0.4634   -0.6912 C   0  0  0  0  0  0  0  0  0  0  0  0
    6.8883   -0.8731   -0.2087 C   0  0  0  0  0  0  0  0  0  0  0  0
    8.1108   -0.2940   -0.5045 C   0  0  0  0  0  0  0  0  0  0  0  0
    4.4339   -1.1660   -0.3019 C   0  0  0  0  0  0  0  0  0  0  0  0
    4.5137   -2.1383    0.4802 O   0  0  0  0  0  0  0  0  0  0  0  0
    3.1214   -0.7119   -0.8453 C   0  0  0  0  0  0  0  0  0  0  0  0
    2.3406   -0.0327    0.2633 C   0  0  0  0  0  0  0  0  0  0  0  0
    1.0490    0.4694   -0.3045 C   0  0  0  0  0  0  0  0  0  0  0  0
    0.2231    1.1458    0.6704 N   0  0  0  0  0  0  0  0  0  0  0  0
   -0.8737    1.7974    0.0709 C   0  0  0  0  0  0  0  0  0  0  0  0
   -2.0581    0.9377   -0.3128 C   0  0  0  0  0  0  0  0  0  0  0  0
   -2.6734    0.3223    0.8900 C   0  0  0  0  0  0  0  0  0  0  0  0
   -1.7019    0.0762    1.7473 C   0  0  0  0  0  0  0  0  0  0  0  0
   -0.2500    0.2820    1.7328 C   0  0  0  0  0  0  0  0  0  0  0  0
   -4.0290    0.0727    1.1607 N   0  0  0  0  0  0  0  0  0  0  0  0
   -4.5387   -0.2564    2.3513 C   0  0  0  0  0  0  0  0  0  0  0  0
   -4.0347   -0.4177    3.4884 O   0  0  0  0  0  0  0  0  0  0  0  0
   -5.8729   -0.4412    2.2569 N   0  0  0  0  0  0  0  0  0  0  0  0
   -6.2454   -0.2278    0.9636 C   0  0  0  0  0  0  0  0  0  0  0  0
   -7.4845   -0.3065    0.3774 C   0  0  0  0  0  0  0  0  0  0  0  0
   -7.5708   -0.0549   -0.9602 C   0  0  0  0  0  0  0  0  0  0  0  0
   -6.4164    0.2663   -1.6754 C   0  0  0  0  0  0  0  0  0  0  0  0
   -5.2086    0.3259   -1.0112 C   0  0  0  0  0  0  0  0  0  0  0  0
   -5.0711    0.0873    0.3205 C   0  0  0  0  0  0  0  0  0  0  0  0
    6.9278    2.0853   -2.5299 H   0  0  0  0  0  0  0  0  0  0  0  0
    4.7731    1.0180   -1.9664 H   0  0  0  0  0  0  0  0  0  0  0  0
    6.9458   -1.7234    0.4675 H   0  0  0  0  0  0  0  0  0  0  0  0
    9.0263   -0.6653   -0.0921 H   0  0  0  0  0  0  0  0  0  0  0  0
    2.5541   -1.6822   -1.0116 H   0  0  0  0  0  0  0  0  0  0  0  0
    3.1767   -0.1544   -1.7727 H   0  0  0  0  0  0  0  0  0  0  0  0
    2.2123   -0.7743    1.0592 H   0  0  0  0  0  0  0  0  0  0  0  0
    2.9951    0.8071    0.6313 H   0  0  0  0  0  0  0  0  0  0  0  0
    1.2622    1.1762   -1.1185 H   0  0  0  0  0  0  0  0  0  0  0  0
    0.5309   -0.4058   -0.7508 H   0  0  0  0  0  0  0  0  0  0  0  0
   -1.2766    2.5382    0.8298 H   0  0  0  0  0  0  0  0  0  0  0  0
   -0.5930    2.4415   -0.7921 H   0  0  0  0  0  0  0  0  0  0  0  0
   -2.8285    1.6865   -0.6704 H   0  0  0  0  0  0  0  0  0  0  0  0
   -1.8342    0.1558   -1.0438 H   0  0  0  0  0  0  0  0  0  0  0  0
   -1.9243   -0.4055    2.7148 H   0  0  0  0  0  0  0  0  0  0  0  0
    0.2652   -0.6976    1.7731 H   0  0  0  0  0  0  0  0  0  0  0  0
    0.0345    0.8223    2.6812 H   0  0  0  0  0  0  0  0  0  0  0  0
   -6.5746   -0.7037    3.0070 H   0  0  0  0  0  0  0  0  0  0  0  0
   -8.3988   -0.5538    0.9270 H   0  0  0  0  0  0  0  0  0  0  0  0
   -8.5487   -0.1114   -1.4505 H   0  0  0  0  0  0  0  0  0  0  0  0
   -6.5765    0.4444   -2.7287 H   0  0  0  0  0  0  0  0  0  0  0  0
   -4.4136    0.5573   -1.6593 H   0  0  0  0  0  0  0  0  0  0  0  0
  1  2  1  0
  2  3  2  0
  3  4  1  0
  4  5  2  0
  5  6  1  0
  6  7  2  0
  5  8  1  0
  8  9  2  0
  8 10  1  0
 10 11  1  0
 11 12  1  0
 12 13  1  0
 13 14  1  0
 14 15  1  0
 15 16  1  0
 16 17  2  0
 17 18  1  0
 16 19  1  0
 19 20  1  0
 20 21  2  0
 20 22  1  0
 22 23  1  0
 23 24  2  0
 24 25  1  0
 25 26  2  0
 26 27  1  0
 27 28  2  0
  7  2  1  0
 18 13  1  0
 28 19  1  0
 28 23  1  0
  3 29  1  0
  4 30  1  0
  6 31  1  0
  7 32  1  0
 10 33  1  0
 10 34  1  0
 11 35  1  0
 11 36  1  0
 12 37  1  0
 12 38  1  0
 14 39  1  0
 14 40  1  0
 15 41  1  0
 15 42  1  0
 17 43  1  0
 18 44  1  0
 18 45  1  0
 22 46  1  0
 24 47  1  0
 25 48  1  0
 26 49  1  0
 27 50  1  0
M  END
$$$$
