@<TRIPOS>MOLECULE
*****
 76 80 0 0 0
SMALL
GASTEIGER

@<TRIPOS>ATOM
      1 C           0.9433    1.8663   -3.4805 C.3     1  UNL1       -0.0380
      2 C           2.2084    1.5351   -2.8132 C.ar    1  UNL1       -0.0292
      3 C           3.3895    1.8547   -3.4953 C.ar    1  UNL1       -0.0564
      4 C           4.5804    1.5530   -2.8882 C.ar    1  UNL1       -0.0493
      5 C           4.6475    0.9550   -1.6485 C.ar    1  UNL1        0.0388
      6 C           5.9525    0.6706   -1.0818 C.2     1  UNL1        0.2483
      7 O           6.9781    0.9740   -1.7373 O.2     1  UNL1       -0.2699
      8 N           6.1676    0.0651    0.1788 N.am    1  UNL1       -0.2815
      9 C           7.4463   -0.2049    0.7150 C.ar    1  UNL1        0.0342
     10 C           8.1182    0.7069    1.4952 C.ar    1  UNL1       -0.0404
     11 C           9.3748    0.4322    2.0185 C.ar    1  UNL1       -0.0595
     12 C           9.9803   -0.7746    1.7628 C.ar    1  UNL1       -0.0500
     13 C           9.3262   -1.6978    0.9865 C.ar    1  UNL1        0.0566
     14 C           9.9249   -3.0282    0.6692 C.3     1  UNL1        0.4175
     15 F           8.9327   -3.9022    0.2414 F       1  UNL1       -0.1659
     16 F          10.4425   -3.5150    1.8688 F       1  UNL1       -0.1659
     17 F          10.8955   -2.8469   -0.2823 F       1  UNL1       -0.1659
     18 C           8.0592   -1.4094    0.4643 C.ar    1  UNL1       -0.0288
     19 C           3.4642    0.6510   -0.9989 C.ar    1  UNL1       -0.0281
     20 C           2.2542    0.9397   -1.5785 C.ar    1  UNL1        0.0373
     21 N           0.9917    0.6380   -0.9354 N.am    1  UNL1       -0.2811
     22 C           0.4013   -0.6016   -1.1729 C.2     1  UNL1        0.2549
     23 O           1.0039   -1.4257   -1.9552 O.2     1  UNL1       -0.2696
     24 C          -0.8659   -1.0096   -0.5778 C.ar    1  UNL1        0.1169
     25 C          -1.3652   -2.2865   -0.8902 C.ar    1  UNL1        0.0485
     26 N          -2.5092   -2.6837   -0.3660 N.ar    1  UNL1       -0.2220
     27 C          -3.2641   -1.9336    0.4763 C.ar    1  UNL1        0.2183
     28 N          -4.4831   -2.4224    1.0055 N.pl3   1  UNL1       -0.3122
     29 C          -5.2744   -1.6166    1.8942 C.3     1  UNL1        0.0246
     30 C          -5.7560   -0.3270    1.3188 C.3     1  UNL1        0.0146
     31 N          -6.5906   -0.4316    0.1675 N.3     1  UNL1       -0.2965
     32 C          -5.9505   -0.9089   -1.0178 C.3     1  UNL1        0.0225
     33 C          -6.9494   -0.7221   -2.1672 C.3     1  UNL1        0.0604
     34 O          -8.0567    0.0141   -1.7528 O.3     1  UNL1       -0.3772
     35 C          -8.7430   -0.7321   -0.7926 C.3     1  UNL1        0.0604
     36 C          -7.8151   -1.1513    0.3515 C.3     1  UNL1        0.0225
     37 N          -2.7729   -0.7295    0.7581 N.ar    1  UNL1       -0.1785
     38 C          -1.6165   -0.2421    0.2703 C.ar    1  UNL1        0.2371
     39 O          -1.2151    1.0207    0.6373 O.3     1  UNL1       -0.4371
     40 C          -1.9878    1.7717    1.4925 C.ar    1  UNL1        0.1304
     41 C          -1.7891    1.6883    2.8449 C.ar    1  UNL1       -0.0193
     42 C          -2.5436    2.4233    3.7018 C.ar    1  UNL1       -0.0583
     43 C          -3.5173    3.2573    3.1671 C.ar    1  UNL1       -0.0615
     44 C          -3.7273    3.3505    1.8111 C.ar    1  UNL1       -0.0583
     45 C          -2.9564    2.6017    0.9672 C.ar    1  UNL1       -0.0193
     46 H           0.0586    1.7320   -2.8254 H       1  UNL1        0.0278
     47 H           0.8361    1.2777   -4.4223 H       1  UNL1        0.0278
     48 H           0.9245    2.9439   -3.8007 H       1  UNL1        0.0278
     49 H           3.3769    2.3207   -4.4624 H       1  UNL1        0.0621
     50 H           5.5109    1.8030   -3.4217 H       1  UNL1        0.0625
     51 H           5.3247   -0.1929    0.7363 H       1  UNL1        0.1551
     52 H           7.6362    1.6521    1.6914 H       1  UNL1        0.0636
     53 H           9.9048    1.1440    2.6304 H       1  UNL1        0.0618
     54 H          10.9616   -1.0264    2.1541 H       1  UNL1        0.0623
     55 H           7.5505   -2.1547   -0.1524 H       1  UNL1        0.0642
     56 H           3.4889    0.1877   -0.0376 H       1  UNL1        0.0644
     57 H           0.5981    1.3753   -0.3276 H       1  UNL1        0.1551
     58 H          -0.7918   -2.9166   -1.5597 H       1  UNL1        0.0840
     59 H          -4.7931   -3.3732    0.7409 H       1  UNL1        0.1489
     60 H          -4.6127   -1.3419    2.7661 H       1  UNL1        0.0475
     61 H          -6.1083   -2.1940    2.3607 H       1  UNL1        0.0475
     62 H          -6.3391    0.2185    2.1027 H       1  UNL1        0.0442
     63 H          -4.8841    0.3125    1.0700 H       1  UNL1        0.0442
     64 H          -5.0174   -0.3502   -1.2590 H       1  UNL1        0.0449
     65 H          -5.7836   -1.9967   -0.9467 H       1  UNL1        0.0449
     66 H          -7.3415   -1.6918   -2.5324 H       1  UNL1        0.0572
     67 H          -6.4371   -0.1825   -3.0022 H       1  UNL1        0.0572
     68 H          -9.5789   -0.0945   -0.4014 H       1  UNL1        0.0572
     69 H          -9.1732   -1.6147   -1.3029 H       1  UNL1        0.0572
     70 H          -8.3364   -0.9582    1.2892 H       1  UNL1        0.0449
     71 H          -7.5911   -2.2404    0.1978 H       1  UNL1        0.0449
     72 H          -1.0265    1.0326    3.2212 H       1  UNL1        0.0654
     73 H          -2.3719    2.3439    4.7655 H       1  UNL1        0.0619
     74 H          -4.1242    3.8456    3.8146 H       1  UNL1        0.0618
     75 H          -4.4897    4.0029    1.3828 H       1  UNL1        0.0619
     76 H          -3.1049    2.6600   -0.1015 H       1  UNL1        0.0654
@<TRIPOS>BOND
     1     1     2    1
     2     2     3   ar
     3     3     4   ar
     4     4     5   ar
     5     5     6    1
     6     6     7    2
     7     6     8   am
     8     8     9    1
     9     9    10   ar
    10    10    11   ar
    11    11    12   ar
    12    12    13   ar
    13    13    14    1
    14    14    15    1
    15    14    16    1
    16    14    17    1
    17    13    18   ar
    18     5    19   ar
    19    19    20   ar
    20    20    21    1
    21    21    22   am
    22    22    23    2
    23    22    24    1
    24    24    25   ar
    25    25    26   ar
    26    26    27   ar
    27    27    28    1
    28    28    29    1
    29    29    30    1
    30    30    31    1
    31    31    32    1
    32    32    33    1
    33    33    34    1
    34    34    35    1
    35    35    36    1
    36    27    37   ar
    37    37    38   ar
    38    38    39    1
    39    39    40    1
    40    40    41   ar
    41    41    42   ar
    42    42    43   ar
    43    43    44   ar
    44    44    45   ar
    45    20     2   ar
    46    38    24   ar
    47    45    40   ar
    48    18     9   ar
    49    36    31    1
    50     1    46    1
    51     1    47    1
    52     1    48    1
    53     3    49    1
    54     4    50    1
    55     8    51    1
    56    10    52    1
    57    11    53    1
    58    12    54    1
    59    18    55    1
    60    19    56    1
    61    21    57    1
    62    25    58    1
    63    28    59    1
    64    29    60    1
    65    29    61    1
    66    30    62    1
    67    30    63    1
    68    32    64    1
    69    32    65    1
    70    33    66    1
    71    33    67    1
    72    35    68    1
    73    35    69    1
    74    36    70    1
    75    36    71    1
    76    41    72    1
    77    42    73    1
    78    43    74    1
    79    44    75    1
    80    45    76    1
