
     RDKit          3D

 76 80  0  0  0  0  0  0  0  0999 V2000
    0.9433    1.8663   -3.4805 C   0  0  0  0  0  0  0  0  0  0  0  0
    2.2084    1.5351   -2.8132 C   0  0  0  0  0  0  0  0  0  0  0  0
    3.3895    1.8547   -3.4953 C   0  0  0  0  0  0  0  0  0  0  0  0
    4.5804    1.5530   -2.8882 C   0  0  0  0  0  0  0  0  0  0  0  0
    4.6475    0.9550   -1.6485 C   0  0  0  0  0  0  0  0  0  0  0  0
    5.9525    0.6706   -1.0818 C   0  0  0  0  0  0  0  0  0  0  0  0
    6.9781    0.9740   -1.7373 O   0  0  0  0  0  0  0  0  0  0  0  0
    6.1676    0.0651    0.1788 N   0  0  0  0  0  0  0  0  0  0  0  0
    7.4463   -0.2049    0.7150 C   0  0  0  0  0  0  0  0  0  0  0  0
    8.1182    0.7069    1.4952 C   0  0  0  0  0  0  0  0  0  0  0  0
    9.3748    0.4322    2.0185 C   0  0  0  0  0  0  0  0  0  0  0  0
    9.9803   -0.7746    1.7628 C   0  0  0  0  0  0  0  0  0  0  0  0
    9.3262   -1.6978    0.9865 C   0  0  0  0  0  0  0  0  0  0  0  0
    9.9249   -3.0282    0.6692 C   0  0  0  0  0  0  0  0  0  0  0  0
    8.9327   -3.9022    0.2414 F   0  0  0  0  0  0  0  0  0  0  0  0
   10.4425   -3.5150    1.8688 F   0  0  0  0  0  0  0  0  0  0  0  0
   10.8955   -2.8469   -0.2823 F   0  0  0  0  0  0  0  0  0  0  0  0
    8.0592   -1.4094    0.4643 C   0  0  0  0  0  0  0  0  0  0  0  0
    3.4642    0.6510   -0.9989 C   0  0  0  0  0  0  0  0  0  0  0  0
    2.2542    0.9397   -1.5785 C   0  0  0  0  0  0  0  0  0  0  0  0
    0.9917    0.6380   -0.9354 N   0  0  0  0  0  0  0  0  0  0  0  0
    0.4013   -0.6016   -1.1729 C   0  0  0  0  0  0  0  0  0  0  0  0
    1.0039   -1.4257   -1.9552 O   0  0  0  0  0  0  0  0  0  0  0  0
   -0.8659   -1.0096   -0.5778 C   0  0  0  0  0  0  0  0  0  0  0  0
   -1.3652   -2.2865   -0.8902 C   0  0  0  0  0  0  0  0  0  0  0  0
   -2.5092   -2.6837   -0.3660 N   0  0  0  0  0  0  0  0  0  0  0  0
   -3.2641   -1.9336    0.4763 C   0  0  0  0  0  0  0  0  0  0  0  0
   -4.4831   -2.4224    1.0055 N   0  0  0  0  0  0  0  0  0  0  0  0
   -5.2744   -1.6166    1.8942 C   0  0  0  0  0  0  0  0  0  0  0  0
   -5.7560   -0.3270    1.3188 C   0  0  0  0  0  0  0  0  0  0  0  0
   -6.5906   -0.4316    0.1675 N   0  0  0  0  0  0  0  0  0  0  0  0
   -5.9505   -0.9089   -1.0178 C   0  0  0  0  0  0  0  0  0  0  0  0
   -6.9494   -0.7221   -2.1672 C   0  0  0  0  0  0  0  0  0  0  0  0
   -8.0567    0.0141   -1.7528 O   0  0  0  0  0  0  0  0  0  0  0  0
   -8.7430   -0.7321   -0.7926 C   0  0  0  0  0  0  0  0  0  0  0  0
   -7.8151   -1.1513    0.3515 C   0  0  0  0  0  0  0  0  0  0  0  0
   -2.7729   -0.7295    0.7581 N   0  0  0  0  0  0  0  0  0  0  0  0
   -1.6165   -0.2421    0.2703 C   0  0  0  0  0  0  0  0  0  0  0  0
   -1.2151    1.0207    0.6373 O   0  0  0  0  0  0  0  0  0  0  0  0
   -1.9878    1.7717    1.4925 C   0  0  0  0  0  0  0  0  0  0  0  0
   -1.7891    1.6883    2.8449 C   0  0  0  0  0  0  0  0  0  0  0  0
   -2.5436    2.4233    3.7018 C   0  0  0  0  0  0  0  0  0  0  0  0
   -3.5173    3.2573    3.1671 C   0  0  0  0  0  0  0  0  0  0  0  0
   -3.7273    3.3505    1.8111 C   0  0  0  0  0  0  0  0  0  0  0  0
   -2.9564    2.6017    0.9672 C   0  0  0  0  0  0  0  0  0  0  0  0
    0.0586    1.7320   -2.8254 H   0  0  0  0  0  0  0  0  0  0  0  0
    0.8361    1.2777   -4.4223 H   0  0  0  0  0  0  0  0  0  0  0  0
    0.9245    2.9439   -3.8007 H   0  0  0  0  0  0  0  0  0  0  0  0
    3.3769    2.3207   -4.4624 H   0  0  0  0  0  0  0  0  0  0  0  0
    5.5109    1.8030   -3.4217 H   0  0  0  0  0  0  0  0  0  0  0  0
    5.3247   -0.1929    0.7363 H   0  0  0  0  0  0  0  0  0  0  0  0
    7.6362    1.6521    1.6914 H   0  0  0  0  0  0  0  0  0  0  0  0
    9.9048    1.1440    2.6304 H   0  0  0  0  0  0  0  0  0  0  0  0
   10.9616   -1.0264    2.1541 H   0  0  0  0  0  0  0  0  0  0  0  0
    7.5505   -2.1547   -0.1524 H   0  0  0  0  0  0  0  0  0  0  0  0
    3.4889    0.1877   -0.0376 H   0  0  0  0  0  0  0  0  0  0  0  0
    0.5981    1.3753   -0.3276 H   0  0  0  0  0  0  0  0  0  0  0  0
   -0.7918   -2.9166   -1.5597 H   0  0  0  0  0  0  0  0  0  0  0  0
   -4.7931   -3.3732    0.7409 H   0  0  0  0  0  0  0  0  0  0  0  0
   -4.6127   -1.3419    2.7661 H   0  0  0  0  0  0  0  0  0  0  0  0
   -6.1083   -2.1940    2.3607 H   0  0  0  0  0  0  0  0  0  0  0  0
   -6.3391    0.2185    2.1027 H   0  0  0  0  0  0  0  0  0  0  0  0
   -4.8841    0.3125    1.0700 H   0  0  0  0  0  0  0  0  0  0  0  0
   -5.0174   -0.3502   -1.2590 H   0  0  0  0  0  0  0  0  0  0  0  0
   -5.7836   -1.9967   -0.9467 H   0  0  0  0  0  0  0  0  0  0  0  0
   -7.3415   -1.6918   -2.5324 H   0  0  0  0  0  0  0  0  0  0  0  0
   -6.4371   -0.1825   -3.0022 H   0  0  0  0  0  0  0  0  0  0  0  0
   -9.5789   -0.0945   -0.4014 H   0  0  0  0  0  0  0  0  0  0  0  0
   -9.1732   -1.6147   -1.3029 H   0  0  0  0  0  0  0  0  0  0  0  0
   -8.3364   -0.9582    1.2892 H   0  0  0  0  0  0  0  0  0  0  0  0
   -7.5911   -2.2404    0.1978 H   0  0  0  0  0  0  0  0  0  0  0  0
   -1.0265    1.0326    3.2212 H   0  0  0  0  0  0  0  0  0  0  0  0
   -2.3719    2.3439    4.7655 H   0  0  0  0  0  0  0  0  0  0  0  0
   -4.1242    3.8456    3.8146 H   0  0  0  0  0  0  0  0  0  0  0  0
   -4.4897    4.0029    1.3828 H   0  0  0  0  0  0  0  0  0  0  0  0
   -3.1049    2.6600   -0.1015 H   0  0  0  0  0  0  0  0  0  0  0  0
  1  2  1  0
  2  3  2  0
  3  4  1  0
  4  5  2  0
  5  6  1  0
  6  7  2  0
  6  8  1  0
  8  9  1  0
  9 10  2  0
 10 11  1  0
 11 12  2  0
 12 13  1  0
 13 14  1  0
 14 15  1  0
 14 16  1  0
 14 17  1  0
 13 18  2  0
  5 19  1  0
 19 20  2  0
 20 21  1  0
 21 22  1  0
 22 23  2  0
 22 24  1  0
 24 25  2  0
 25 26  1  0
 26 27  2  0
 27 28  1  0
 28 29  1  0
 29 30  1  0
 30 31  1  0
 31 32  1  0
 32 33  1  0
 33 34  1  0
 34 35  1  0
 35 36  1  0
 27 37  1  0
 37 38  2  0
 38 39  1  0
 39 40  1  0
 40 41  2  0
 41 42  1  0
 42 43  2  0
 43 44  1  0
 44 45  2  0
 20  2  1  0
 38 24  1  0
 45 40  1  0
 18  9  1  0
 36 31  1  0
  1 46  1  0
  1 47  1  0
  1 48  1  0
  3 49  1  0
  4 50  1  0
  8 51  1  0
 10 52  1  0
 11 53  1  0
 12 54  1  0
 18 55  1  0
 19 56  1  0
 21 57  1  0
 25 58  1  0
 28 59  1  0
 29 60  1  0
 29 61  1  0
 30 62  1  0
 30 63  1  0
 32 64  1  0
 32 65  1  0
 33 66  1  0
 33 67  1  0
 35 68  1  0
 35 69  1  0
 36 70  1  0
 36 71  1  0
 41 72  1  0
 42 73  1  0
 43 74  1  0
 44 75  1  0
 45 76  1  0
M  END
$$$$
