
     RDKit          3D

 32 34  0  0  0  0  0  0  0  0999 V2000
    3.5685    1.5215    1.1086 C   0  0  0  0  0  0  0  0  0  0  0  0
    2.9607    0.5056    0.2959 N   0  0  0  0  0  0  0  0  0  0  0  0
    3.7089   -0.4728   -0.4314 C   0  0  0  0  0  0  0  0  0  0  0  0
    4.8784   -0.2207   -0.7897 O   0  0  0  0  0  0  0  0  0  0  0  0
    3.0740   -1.7928   -0.7538 C   0  0  0  0  0  0  0  0  0  0  0  0
    1.7516   -1.5076   -1.3970 C   0  0  0  0  0  0  0  0  0  0  0  0
    0.9595   -0.5420   -0.6066 C   0  0  0  0  0  0  0  0  0  0  0  0
   -0.4344   -0.5662   -0.6466 C   0  0  0  0  0  0  0  0  0  0  0  0
   -1.1741    0.3444    0.0668 C   0  0  0  0  0  0  0  0  0  0  0  0
   -2.6235    0.2342   -0.0399 C   0  0  0  0  0  0  0  0  0  0  0  0
   -3.2404   -0.9765   -0.2227 C   0  0  0  0  0  0  0  0  0  0  0  0
   -4.6190   -0.9973   -0.3144 C   0  0  0  0  0  0  0  0  0  0  0  0
   -5.3661    0.1535   -0.2275 C   0  0  0  0  0  0  0  0  0  0  0  0
   -4.7024    1.3068   -0.0486 N   0  0  0  0  0  0  0  0  0  0  0  0
   -3.3763    1.3759    0.0458 C   0  0  0  0  0  0  0  0  0  0  0  0
   -0.5941    1.3206    0.8520 C   0  0  0  0  0  0  0  0  0  0  0  0
    0.7743    1.3557    0.9008 C   0  0  0  0  0  0  0  0  0  0  0  0
    1.5344    0.4259    0.1729 C   0  0  0  0  0  0  0  0  0  0  0  0
    3.3415    2.5214    0.6736 H   0  0  0  0  0  0  0  0  0  0  0  0
    3.2058    1.5091    2.1568 H   0  0  0  0  0  0  0  0  0  0  0  0
    4.6660    1.3886    1.0703 H   0  0  0  0  0  0  0  0  0  0  0  0
    3.7154   -2.3679   -1.4594 H   0  0  0  0  0  0  0  0  0  0  0  0
    2.9309   -2.4121    0.1402 H   0  0  0  0  0  0  0  0  0  0  0  0
    1.9436   -1.0992   -2.4284 H   0  0  0  0  0  0  0  0  0  0  0  0
    1.1532   -2.4436   -1.5431 H   0  0  0  0  0  0  0  0  0  0  0  0
   -0.8745   -1.3375   -1.2674 H   0  0  0  0  0  0  0  0  0  0  0  0
   -2.6863   -1.9090   -0.2966 H   0  0  0  0  0  0  0  0  0  0  0  0
   -5.1424   -1.9423   -0.4597 H   0  0  0  0  0  0  0  0  0  0  0  0
   -6.4650    0.1396   -0.3007 H   0  0  0  0  0  0  0  0  0  0  0  0
   -2.9238    2.3639    0.1912 H   0  0  0  0  0  0  0  0  0  0  0  0
   -1.2210    2.0261    1.4034 H   0  0  0  0  0  0  0  0  0  0  0  0
    1.2767    2.0944    1.4956 H   0  0  0  0  0  0  0  0  0  0  0  0
  1  2  1  0
  2  3  1  0
  3  4  2  0
  3  5  1  0
  5  6  1  0
  6  7  1  0
  7  8  2  0
  8  9  1  0
  9 10  1  0
 10 11  2  0
 11 12  1  0
 12 13  2  0
 13 14  1  0
 14 15  2  0
  9 16  2  0
 16 17  1  0
 17 18  2  0
 18  2  1  0
 18  7  1  0
 15 10  1  0
  1 19  1  0
  1 20  1  0
  1 21  1  0
  5 22  1  0
  5 23  1  0
  6 24  1  0
  6 25  1  0
  8 26  1  0
 11 27  1  0
 12 28  1  0
 13 29  1  0
 15 30  1  0
 16 31  1  0
 17 32  1  0
M  END
$$$$
