@<TRIPOS>MOLECULE
*****
 32 34 0 0 0
SMALL
GASTEIGER

@<TRIPOS>ATOM
      1 C           3.5685    1.5215    1.1086 C.3     1  UNL1        0.0083
      2 N           2.9607    0.5056    0.2959 N.am    1  UNL1       -0.2742
      3 C           3.7089   -0.4728   -0.4314 C.2     1  UNL1        0.2199
      4 O           4.8784   -0.2207   -0.7897 O.2     1  UNL1       -0.2753
      5 C           3.0740   -1.7928   -0.7538 C.3     1  UNL1        0.0285
      6 C           1.7516   -1.5076   -1.3970 C.3     1  UNL1       -0.0176
      7 C           0.9595   -0.5420   -0.6066 C.ar    1  UNL1       -0.0249
      8 C          -0.4344   -0.5662   -0.6466 C.ar    1  UNL1       -0.0490
      9 C          -1.1741    0.3444    0.0668 C.ar    1  UNL1       -0.0161
     10 C          -2.6235    0.2342   -0.0399 C.ar    1  UNL1        0.0002
     11 C          -3.2404   -0.9765   -0.2227 C.ar    1  UNL1       -0.0512
     12 C          -4.6190   -0.9973   -0.3144 C.ar    1  UNL1       -0.0430
     13 C          -5.3661    0.1535   -0.2275 C.ar    1  UNL1        0.0276
     14 N          -4.7024    1.3068   -0.0486 N.ar    1  UNL1       -0.2627
     15 C          -3.3763    1.3759    0.0458 C.ar    1  UNL1        0.0352
     16 C          -0.5941    1.3206    0.8520 C.ar    1  UNL1       -0.0522
     17 C           0.7743    1.3557    0.9008 C.ar    1  UNL1       -0.0394
     18 C           1.5344    0.4259    0.1729 C.ar    1  UNL1        0.0392
     19 H           3.3415    2.5214    0.6736 H       1  UNL1        0.0433
     20 H           3.2058    1.5091    2.1568 H       1  UNL1        0.0433
     21 H           4.6660    1.3886    1.0703 H       1  UNL1        0.0433
     22 H           3.7154   -2.3679   -1.4594 H       1  UNL1        0.0362
     23 H           2.9309   -2.4121    0.1402 H       1  UNL1        0.0362
     24 H           1.9436   -1.0992   -2.4284 H       1  UNL1        0.0318
     25 H           1.1532   -2.4436   -1.5431 H       1  UNL1        0.0318
     26 H          -0.8745   -1.3375   -1.2674 H       1  UNL1        0.0627
     27 H          -2.6863   -1.9090   -0.2966 H       1  UNL1        0.0625
     28 H          -5.1424   -1.9423   -0.4597 H       1  UNL1        0.0633
     29 H          -6.4650    0.1396   -0.3007 H       1  UNL1        0.0829
     30 H          -2.9238    2.3639    0.1912 H       1  UNL1        0.0836
     31 H          -1.2210    2.0261    1.4034 H       1  UNL1        0.0624
     32 H           1.2767    2.0944    1.4956 H       1  UNL1        0.0636
@<TRIPOS>BOND
     1     1     2    1
     2     2     3   am
     3     3     4    2
     4     3     5    1
     5     5     6    1
     6     6     7    1
     7     7     8   ar
     8     8     9   ar
     9     9    10    1
    10    10    11   ar
    11    11    12   ar
    12    12    13   ar
    13    13    14   ar
    14    14    15   ar
    15     9    16   ar
    16    16    17   ar
    17    17    18   ar
    18    18     2    1
    19    18     7   ar
    20    15    10   ar
    21     1    19    1
    22     1    20    1
    23     1    21    1
    24     5    22    1
    25     5    23    1
    26     6    24    1
    27     6    25    1
    28     8    26    1
    29    11    27    1
    30    12    28    1
    31    13    29    1
    32    15    30    1
    33    16    31    1
    34    17    32    1
