@<TRIPOS>MOLECULE
*****
 51 55 0 0 0
SMALL
GASTEIGER

@<TRIPOS>ATOM
      1 C          -2.8299   -4.5289    0.8236 C.3     1  UNL1       -0.0455
      2 C          -2.9776   -3.9397   -0.5622 C.3     1  UNL1        0.0396
      3 N          -3.0172   -2.4858   -0.5219 N.ar    1  UNL1       -0.2589
      4 N          -4.0602   -1.6918   -0.4029 N.ar    1  UNL1       -0.1755
      5 C          -3.7211   -0.4174   -0.4026 C.ar    1  UNL1        0.0660
      6 C          -4.5757    0.7722   -0.2918 C.3     1  UNL1       -0.0203
      7 C          -2.3282   -0.3650   -0.5329 C.ar    1  UNL1        0.0305
      8 C          -1.9226   -1.6700   -0.6050 C.ar    1  UNL1        0.1293
      9 C          -0.4802   -1.6891   -0.7553 C.2     1  UNL1        0.2700
     10 O           0.2167   -2.7550   -0.8504 O.2     1  UNL1       -0.2679
     11 N          -0.0330   -0.3479   -0.7733 N.am    1  UNL1       -0.2530
     12 C           1.3493   -0.0114   -0.9468 C.ar    1  UNL1        0.0545
     13 C           1.9116    0.2043   -2.1897 C.ar    1  UNL1       -0.0324
     14 C           3.2561    0.5264   -2.2949 C.ar    1  UNL1       -0.0041
     15 C           3.8411    0.7551   -3.6517 C.3     1  UNL1       -0.0361
     16 C           4.0277    0.6311   -1.1702 C.ar    1  UNL1        0.1641
     17 N           5.3395    0.9291   -1.0322 N.ar    1  UNL1       -0.1292
     18 N           5.6109    0.9039    0.2829 N.ar    1  UNL1       -0.1340
     19 C           4.4527    0.5894    0.9208 C.ar    1  UNL1        0.1347
     20 C           4.3293    0.4616    2.3842 C.3     1  UNL1       -0.0041
     21 N           3.4783    0.4212    0.0304 N.ar    1  UNL1       -0.2846
     22 C           2.1879    0.1122    0.1307 C.ar    1  UNL1        0.0344
     23 C          -1.1464    0.5081   -0.6107 C.3     1  UNL1        0.0881
     24 C          -1.0600    1.4195    0.5492 C.ar    1  UNL1        0.0132
     25 C          -1.1959    2.7688    0.3162 C.ar    1  UNL1       -0.0510
     26 C          -1.1299    3.7298    1.3089 C.ar    1  UNL1       -0.0259
     27 C          -0.9152    3.2908    2.5980 C.ar    1  UNL1        0.1261
     28 F          -0.8462    4.2252    3.5957 F       1  UNL1       -0.2054
     29 C          -0.7743    1.9461    2.8697 C.ar    1  UNL1        0.0091
     30 C          -0.8488    1.0128    1.8323 C.ar    1  UNL1        0.1314
     31 F          -0.7185   -0.3013    2.0943 F       1  UNL1       -0.2050
     32 H          -3.8165   -4.5433    1.3592 H       1  UNL1        0.0247
     33 H          -2.1389   -3.9776    1.4613 H       1  UNL1        0.0247
     34 H          -2.4152   -5.5511    0.6939 H       1  UNL1        0.0247
     35 H          -3.9444   -4.3058   -0.9661 H       1  UNL1        0.0506
     36 H          -2.1407   -4.3154   -1.1720 H       1  UNL1        0.0506
     37 H          -4.9825    1.0771   -1.2858 H       1  UNL1        0.0293
     38 H          -5.4777    0.5116    0.3239 H       1  UNL1        0.0293
     39 H          -4.0919    1.6168    0.2325 H       1  UNL1        0.0293
     40 H           1.2596    0.1099   -3.0511 H       1  UNL1        0.0640
     41 H           4.2979   -0.1913   -3.9762 H       1  UNL1        0.0279
     42 H           4.6524    1.5109   -3.6198 H       1  UNL1        0.0279
     43 H           3.0171    1.0669   -4.3283 H       1  UNL1        0.0279
     44 H           4.9998    1.2418    2.8365 H       1  UNL1        0.0308
     45 H           3.3282    0.6484    2.7700 H       1  UNL1        0.0308
     46 H           4.7173   -0.5063    2.7576 H       1  UNL1        0.0308
     47 H           1.7704   -0.0544    1.1372 H       1  UNL1        0.0833
     48 H          -1.2360    1.1321   -1.5525 H       1  UNL1        0.0607
     49 H          -1.3683    3.1527   -0.7007 H       1  UNL1        0.0623
     50 H          -1.2463    4.7891    1.0565 H       1  UNL1        0.0646
     51 H          -0.6044    1.5833    3.8816 H       1  UNL1        0.0675
@<TRIPOS>BOND
     1     1     2    1
     2     2     3    1
     3     3     4   ar
     4     4     5   ar
     5     5     6    1
     6     5     7   ar
     7     7     8   ar
     8     8     9    1
     9     9    10    2
    10     9    11   am
    11    11    12    1
    12    12    13   ar
    13    13    14   ar
    14    14    15    1
    15    14    16   ar
    16    16    17   ar
    17    17    18   ar
    18    18    19   ar
    19    19    20    1
    20    19    21   ar
    21    21    22   ar
    22    11    23    1
    23    23    24    1
    24    24    25   ar
    25    25    26   ar
    26    26    27   ar
    27    27    28    1
    28    27    29   ar
    29    29    30   ar
    30    30    31    1
    31     8     3   ar
    32    22    12   ar
    33    30    24   ar
    34    23     7    1
    35    21    16   ar
    36     1    32    1
    37     1    33    1
    38     1    34    1
    39     2    35    1
    40     2    36    1
    41     6    37    1
    42     6    38    1
    43     6    39    1
    44    13    40    1
    45    15    41    1
    46    15    42    1
    47    15    43    1
    48    20    44    1
    49    20    45    1
    50    20    46    1
    51    22    47    1
    52    23    48    1
    53    25    49    1
    54    26    50    1
    55    29    51    1
