
     RDKit          3D

 51 55  0  0  0  0  0  0  0  0999 V2000
   -2.8299   -4.5289    0.8236 C   0  0  0  0  0  0  0  0  0  0  0  0
   -2.9776   -3.9397   -0.5622 C   0  0  0  0  0  0  0  0  0  0  0  0
   -3.0172   -2.4858   -0.5219 N   0  0  0  0  0  0  0  0  0  0  0  0
   -4.0602   -1.6918   -0.4029 N   0  0  0  0  0  0  0  0  0  0  0  0
   -3.7211   -0.4174   -0.4026 C   0  0  0  0  0  0  0  0  0  0  0  0
   -4.5757    0.7722   -0.2918 C   0  0  0  0  0  0  0  0  0  0  0  0
   -2.3282   -0.3650   -0.5329 C   0  0  0  0  0  0  0  0  0  0  0  0
   -1.9226   -1.6700   -0.6050 C   0  0  0  0  0  0  0  0  0  0  0  0
   -0.4802   -1.6891   -0.7553 C   0  0  0  0  0  0  0  0  0  0  0  0
    0.2167   -2.7550   -0.8504 O   0  0  0  0  0  0  0  0  0  0  0  0
   -0.0330   -0.3479   -0.7733 N   0  0  0  0  0  0  0  0  0  0  0  0
    1.3493   -0.0114   -0.9468 C   0  0  0  0  0  0  0  0  0  0  0  0
    1.9116    0.2043   -2.1897 C   0  0  0  0  0  0  0  0  0  0  0  0
    3.2561    0.5264   -2.2949 C   0  0  0  0  0  0  0  0  0  0  0  0
    3.8411    0.7551   -3.6517 C   0  0  0  0  0  0  0  0  0  0  0  0
    4.0277    0.6311   -1.1702 C   0  0  0  0  0  0  0  0  0  0  0  0
    5.3395    0.9291   -1.0322 N   0  0  0  0  0  0  0  0  0  0  0  0
    5.6109    0.9039    0.2829 N   0  0  0  0  0  0  0  0  0  0  0  0
    4.4527    0.5894    0.9208 C   0  0  0  0  0  0  0  0  0  0  0  0
    4.3293    0.4616    2.3842 C   0  0  0  0  0  0  0  0  0  0  0  0
    3.4783    0.4212    0.0304 N   0  0  0  0  0  0  0  0  0  0  0  0
    2.1879    0.1122    0.1307 C   0  0  0  0  0  0  0  0  0  0  0  0
   -1.1464    0.5081   -0.6107 C   0  0  0  0  0  0  0  0  0  0  0  0
   -1.0600    1.4195    0.5492 C   0  0  0  0  0  0  0  0  0  0  0  0
   -1.1959    2.7688    0.3162 C   0  0  0  0  0  0  0  0  0  0  0  0
   -1.1299    3.7298    1.3089 C   0  0  0  0  0  0  0  0  0  0  0  0
   -0.9152    3.2908    2.5980 C   0  0  0  0  0  0  0  0  0  0  0  0
   -0.8462    4.2252    3.5957 F   0  0  0  0  0  0  0  0  0  0  0  0
   -0.7743    1.9461    2.8697 C   0  0  0  0  0  0  0  0  0  0  0  0
   -0.8488    1.0128    1.8323 C   0  0  0  0  0  0  0  0  0  0  0  0
   -0.7185   -0.3013    2.0943 F   0  0  0  0  0  0  0  0  0  0  0  0
   -3.8165   -4.5433    1.3592 H   0  0  0  0  0  0  0  0  0  0  0  0
   -2.1389   -3.9776    1.4613 H   0  0  0  0  0  0  0  0  0  0  0  0
   -2.4152   -5.5511    0.6939 H   0  0  0  0  0  0  0  0  0  0  0  0
   -3.9444   -4.3058   -0.9661 H   0  0  0  0  0  0  0  0  0  0  0  0
   -2.1407   -4.3154   -1.1720 H   0  0  0  0  0  0  0  0  0  0  0  0
   -4.9825    1.0771   -1.2858 H   0  0  0  0  0  0  0  0  0  0  0  0
   -5.4777    0.5116    0.3239 H   0  0  0  0  0  0  0  0  0  0  0  0
   -4.0919    1.6168    0.2325 H   0  0  0  0  0  0  0  0  0  0  0  0
    1.2596    0.1099   -3.0511 H   0  0  0  0  0  0  0  0  0  0  0  0
    4.2979   -0.1913   -3.9762 H   0  0  0  0  0  0  0  0  0  0  0  0
    4.6524    1.5109   -3.6198 H   0  0  0  0  0  0  0  0  0  0  0  0
    3.0171    1.0669   -4.3283 H   0  0  0  0  0  0  0  0  0  0  0  0
    4.9998    1.2418    2.8365 H   0  0  0  0  0  0  0  0  0  0  0  0
    3.3282    0.6484    2.7700 H   0  0  0  0  0  0  0  0  0  0  0  0
    4.7173   -0.5063    2.7576 H   0  0  0  0  0  0  0  0  0  0  0  0
    1.7704   -0.0544    1.1372 H   0  0  0  0  0  0  0  0  0  0  0  0
   -1.2360    1.1321   -1.5525 H   0  0  0  0  0  0  0  0  0  0  0  0
   -1.3683    3.1527   -0.7007 H   0  0  0  0  0  0  0  0  0  0  0  0
   -1.2463    4.7891    1.0565 H   0  0  0  0  0  0  0  0  0  0  0  0
   -0.6044    1.5833    3.8816 H   0  0  0  0  0  0  0  0  0  0  0  0
  1  2  1  0
  2  3  1  0
  3  4  1  0
  4  5  2  0
  5  6  1  0
  5  7  1  0
  7  8  2  0
  8  9  1  0
  9 10  2  0
  9 11  1  0
 11 12  1  0
 12 13  1  0
 13 14  2  0
 14 15  1  0
 14 16  1  0
 16 17  2  0
 17 18  1  0
 18 19  2  0
 19 20  1  0
 19 21  1  0
 21 22  1  0
 11 23  1  0
 23 24  1  0
 24 25  2  0
 25 26  1  0
 26 27  2  0
 27 28  1  0
 27 29  1  0
 29 30  2  0
 30 31  1  0
  8  3  1  0
 22 12  2  0
 30 24  1  0
 23  7  1  0
 21 16  1  0
  1 32  1  0
  1 33  1  0
  1 34  1  0
  2 35  1  0
  2 36  1  0
  6 37  1  0
  6 38  1  0
  6 39  1  0
 13 40  1  0
 15 41  1  0
 15 42  1  0
 15 43  1  0
 20 44  1  0
 20 45  1  0
 20 46  1  0
 22 47  1  0
 23 48  1  0
 25 49  1  0
 26 50  1  0
 29 51  1  0
M  END
$$$$
