@<TRIPOS>MOLECULE
*****
 55 57 0 0 0
SMALL
GASTEIGER

@<TRIPOS>ATOM
      1 C          -4.7864   -2.9943    0.1459 C.3     1  UNL1       -0.0256
      2 C          -4.8283   -1.4940   -0.0185 C.3     1  UNL1        0.1602
      3 C          -5.6504   -1.2425   -1.2869 C.3     1  UNL1       -0.0256
      4 O          -3.6106   -0.8972   -0.0600 O.3     1  UNL1       -0.3566
      5 C          -2.7842   -1.3063   -1.0876 C.3     1  UNL1        0.0928
      6 C          -1.4763   -0.5586   -1.0013 C.ar    1  UNL1        0.0892
      7 C          -0.3555   -0.9406   -0.3254 C.ar    1  UNL1       -0.0108
      8 C           0.6406    0.0568   -0.5080 C.ar    1  UNL1        0.0697
      9 C           1.9670   -0.1365    0.0993 C.ar    1  UNL1        0.0035
     10 C           2.4646    0.7707    0.9860 C.ar    1  UNL1       -0.0524
     11 C           3.7180    0.6130    1.5553 C.ar    1  UNL1       -0.0577
     12 C           4.5177   -0.4756    1.2462 C.ar    1  UNL1       -0.0199
     13 C           4.0405   -1.4054    0.3568 C.ar    1  UNL1        0.1216
     14 O           4.7626   -2.4886    0.0144 O.3     1  UNL1       -0.4830
     15 C           5.9244   -3.1025    0.2494 C.3     1  UNL1        0.1842
     16 C           6.2371   -3.6218    1.6222 C.3     1  UNL1        0.4236
     17 F           5.2888   -4.5596    2.0315 F       1  UNL1       -0.1671
     18 F           7.4061   -4.4066    1.4492 F       1  UNL1       -0.1671
     19 F           6.5419   -2.6995    2.5567 F       1  UNL1       -0.1671
     20 C           2.7572   -1.2135   -0.2061 C.ar    1  UNL1       -0.0108
     21 N           0.1093    0.9741   -1.2627 N.ar    1  UNL1       -0.2590
     22 C           0.6082    2.1822   -1.8352 C.3     1  UNL1        0.0685
     23 C           0.4661    3.4215   -1.0753 C.ar    1  UNL1       -0.0078
     24 C          -0.8156    3.9934   -0.9501 C.ar    1  UNL1       -0.0554
     25 C          -1.0589    5.0993   -0.1679 C.ar    1  UNL1       -0.0614
     26 C          -0.0408    5.6896    0.5267 C.ar    1  UNL1       -0.0604
     27 C           1.2261    5.1693    0.4342 C.ar    1  UNL1       -0.0431
     28 C           1.4463    4.0470   -0.3683 C.ar    1  UNL1        0.0459
     29 CL          3.1389    3.5781   -0.5222 Cl      1  UNL1       -0.0832
     30 N          -1.1683    0.6082   -1.5619 N.ar    1  UNL1       -0.1730
     31 C          -5.6234   -0.9286    1.0977 C.2     1  UNL1        0.3365
     32 O          -5.1242   -0.0323    1.8217 O.2     1  UNL1       -0.2478
     33 O          -6.9155   -1.3412    1.3955 O.3     1  UNL1       -0.4786
     34 H          -4.6179   -3.5320   -0.8101 H       1  UNL1        0.0263
     35 H          -4.0921   -3.3158    0.9524 H       1  UNL1        0.0263
     36 H          -5.8090   -3.3027    0.4854 H       1  UNL1        0.0263
     37 H          -6.6850   -1.5774   -1.0363 H       1  UNL1        0.0263
     38 H          -5.2770   -1.9434   -2.0673 H       1  UNL1        0.0263
     39 H          -5.6409   -0.1966   -1.5932 H       1  UNL1        0.0263
     40 H          -3.2422   -1.0083   -2.0519 H       1  UNL1        0.0626
     41 H          -2.5836   -2.3717   -1.1276 H       1  UNL1        0.0626
     42 H          -0.2293   -1.8354    0.2494 H       1  UNL1        0.0658
     43 H           1.8167    1.6215    1.2311 H       1  UNL1        0.0624
     44 H           4.0796    1.3627    2.2609 H       1  UNL1        0.0619
     45 H           5.4915   -0.5176    1.7234 H       1  UNL1        0.0654
     46 H           5.9796   -4.0275   -0.4298 H       1  UNL1        0.0788
     47 H           6.7765   -2.4251   -0.0561 H       1  UNL1        0.0788
     48 H           2.4163   -1.9650   -0.9010 H       1  UNL1        0.0661
     49 H           1.7313    2.0730   -2.0483 H       1  UNL1        0.0559
     50 H           0.2013    2.2783   -2.8840 H       1  UNL1        0.0559
     51 H          -1.6284    3.5357   -1.4942 H       1  UNL1        0.0621
     52 H          -2.0624    5.5340   -0.0798 H       1  UNL1        0.0618
     53 H          -0.2701    6.5627    1.1376 H       1  UNL1        0.0618
     54 H           2.0165    5.6407    0.9836 H       1  UNL1        0.0632
     55 H          -7.3943   -0.9481    2.2044 H       1  UNL1        0.2951
@<TRIPOS>BOND
     1     1     2    1
     2     2     3    1
     3     2     4    1
     4     4     5    1
     5     5     6    1
     6     6     7   ar
     7     7     8   ar
     8     8     9    1
     9     9    10   ar
    10    10    11   ar
    11    11    12   ar
    12    12    13   ar
    13    13    14    1
    14    14    15    1
    15    15    16    1
    16    16    17    1
    17    16    18    1
    18    16    19    1
    19    13    20   ar
    20     8    21   ar
    21    21    22    1
    22    22    23    1
    23    23    24   ar
    24    24    25   ar
    25    25    26   ar
    26    26    27   ar
    27    27    28   ar
    28    28    29    1
    29    21    30   ar
    30     2    31    1
    31    31    32    2
    32    31    33    1
    33    30     6   ar
    34    20     9   ar
    35    28    23   ar
    36     1    34    1
    37     1    35    1
    38     1    36    1
    39     3    37    1
    40     3    38    1
    41     3    39    1
    42     5    40    1
    43     5    41    1
    44     7    42    1
    45    10    43    1
    46    11    44    1
    47    12    45    1
    48    15    46    1
    49    15    47    1
    50    20    48    1
    51    22    49    1
    52    22    50    1
    53    24    51    1
    54    25    52    1
    55    26    53    1
    56    27    54    1
    57    33    55    1
