@<TRIPOS>MOLECULE
*****
 55 60 0 0 0
SMALL
GASTEIGER

@<TRIPOS>ATOM
      1 C          -4.3605    1.5417    2.7014 C.3     1  UNL1        0.0369
      2 O          -3.7534    0.7469    1.7484 O.3     1  UNL1       -0.3768
      3 C          -3.9580    1.1813    0.4505 C.3     1  UNL1        0.0913
      4 C          -3.2465    0.2291   -0.4542 C.ar    1  UNL1        0.0946
      5 N          -3.7398   -0.7513   -1.2268 N.ar    1  UNL1       -0.1726
      6 N          -2.7663   -1.3641   -1.8758 N.ar    1  UNL1       -0.2555
      7 C          -2.9063   -2.4792   -2.8075 C.3     1  UNL1        0.0537
      8 C          -3.5001   -3.7457   -2.2679 C.3     1  UNL1       -0.0285
      9 C          -2.0507   -3.6686   -2.6897 C.3     1  UNL1       -0.0285
     10 C          -1.5615   -0.8031   -1.5534 C.ar    1  UNL1        0.1297
     11 C          -1.8565    0.1899   -0.6669 C.ar    1  UNL1        0.0330
     12 C          -0.5814    0.8278   -0.2688 C.3     1  UNL1        0.0855
     13 C          -0.4420    0.9486    1.1638 C.ar    1  UNL1       -0.0221
     14 C          -0.7037    2.1443    1.7790 C.ar    1  UNL1       -0.0551
     15 C          -0.5966    2.3357    3.1387 C.ar    1  UNL1       -0.0431
     16 C          -0.2036    1.2598    3.9208 C.ar    1  UNL1        0.0410
     17 CL         -0.0606    1.4864    5.6706 Cl      1  UNL1       -0.0835
     18 C           0.0688    0.0378    3.3358 C.ar    1  UNL1       -0.0431
     19 C          -0.0553   -0.1011    1.9544 C.ar    1  UNL1       -0.0551
     20 N           0.4332    0.1938   -0.9926 N.am    1  UNL1       -0.2531
     21 C           1.8425    0.4165   -1.0605 C.ar    1  UNL1        0.0560
     22 C           2.3466    1.3106   -1.9621 C.ar    1  UNL1       -0.0145
     23 C           3.7069    1.5152   -2.0240 C.ar    1  UNL1        0.0716
     24 N           4.2724    2.4279   -2.9393 N.pl3   1  UNL1       -0.3550
     25 C           4.5120    0.8051   -1.1682 C.ar    1  UNL1        0.1820
     26 N           5.8502    0.8249   -1.0350 N.ar    1  UNL1       -0.1275
     27 N           6.2013   -0.0177   -0.0900 N.ar    1  UNL1       -0.1339
     28 C           5.0698   -0.5708    0.3731 C.ar    1  UNL1        0.1347
     29 C           5.0414   -1.5797    1.4508 C.3     1  UNL1       -0.0041
     30 N           3.9951   -0.0816   -0.2760 N.ar    1  UNL1       -0.2833
     31 C           2.6623   -0.2742   -0.2237 C.ar    1  UNL1        0.0345
     32 C          -0.1273   -0.8347   -1.7845 C.2     1  UNL1        0.2700
     33 O           0.4306   -1.6616   -2.5644 O.2     1  UNL1       -0.2679
     34 H          -5.4608    1.6102    2.5939 H       1  UNL1        0.0524
     35 H          -4.2065    1.0109    3.6865 H       1  UNL1        0.0524
     36 H          -3.8502    2.5056    2.7769 H       1  UNL1        0.0524
     37 H          -3.5097    2.1931    0.3694 H       1  UNL1        0.0626
     38 H          -5.0335    1.1648    0.1951 H       1  UNL1        0.0626
     39 H          -3.2708   -2.1402   -3.8063 H       1  UNL1        0.0545
     40 H          -4.2255   -4.3284   -2.8756 H       1  UNL1        0.0286
     41 H          -3.6251   -3.8775   -1.1625 H       1  UNL1        0.0286
     42 H          -1.2591   -3.7356   -1.9166 H       1  UNL1        0.0286
     43 H          -1.8511   -4.2287   -3.6406 H       1  UNL1        0.0286
     44 H          -0.6518    1.8902   -0.6884 H       1  UNL1        0.0606
     45 H          -1.0159    3.0149    1.1949 H       1  UNL1        0.0621
     46 H          -0.8125    3.3001    3.5938 H       1  UNL1        0.0632
     47 H           0.3725   -0.7869    3.9547 H       1  UNL1        0.0632
     48 H           0.1433   -1.0323    1.4552 H       1  UNL1        0.0621
     49 H           1.7053    1.8832   -2.6508 H       1  UNL1        0.0656
     50 H           4.4670    3.4064   -2.6180 H       1  UNL1        0.1424
     51 H           4.4835    2.1112   -3.9096 H       1  UNL1        0.1424
     52 H           5.4763   -1.0996    2.3546 H       1  UNL1        0.0308
     53 H           4.0547   -1.9783    1.6775 H       1  UNL1        0.0308
     54 H           5.7752   -2.3769    1.1484 H       1  UNL1        0.0308
     55 H           2.3317   -0.9963    0.5113 H       1  UNL1        0.0833
@<TRIPOS>BOND
     1     1     2    1
     2     2     3    1
     3     3     4    1
     4     4     5   ar
     5     5     6   ar
     6     6     7    1
     7     7     8    1
     8     8     9    1
     9     6    10   ar
    10    10    11   ar
    11    11    12    1
    12    12    13    1
    13    13    14   ar
    14    14    15   ar
    15    15    16   ar
    16    16    17    1
    17    16    18   ar
    18    18    19   ar
    19    12    20    1
    20    20    21    1
    21    21    22   ar
    22    22    23   ar
    23    23    24    1
    24    23    25   ar
    25    25    26   ar
    26    26    27   ar
    27    27    28   ar
    28    28    29    1
    29    28    30   ar
    30    30    31   ar
    31    20    32   am
    32    32    33    2
    33    11     4   ar
    34    19    13   ar
    35    31    21   ar
    36     9     7    1
    37    32    10    1
    38    30    25   ar
    39     1    34    1
    40     1    35    1
    41     1    36    1
    42     3    37    1
    43     3    38    1
    44     7    39    1
    45     8    40    1
    46     8    41    1
    47     9    42    1
    48     9    43    1
    49    12    44    1
    50    14    45    1
    51    15    46    1
    52    18    47    1
    53    19    48    1
    54    22    49    1
    55    24    50    1
    56    24    51    1
    57    29    52    1
    58    29    53    1
    59    29    54    1
    60    31    55    1
