
     RDKit          3D

 55 60  0  0  0  0  0  0  0  0999 V2000
   -4.3605    1.5417    2.7014 C   0  0  0  0  0  0  0  0  0  0  0  0
   -3.7534    0.7469    1.7484 O   0  0  0  0  0  0  0  0  0  0  0  0
   -3.9580    1.1813    0.4505 C   0  0  0  0  0  0  0  0  0  0  0  0
   -3.2465    0.2291   -0.4542 C   0  0  0  0  0  0  0  0  0  0  0  0
   -3.7398   -0.7513   -1.2268 N   0  0  0  0  0  0  0  0  0  0  0  0
   -2.7663   -1.3641   -1.8758 N   0  0  0  0  0  0  0  0  0  0  0  0
   -2.9063   -2.4792   -2.8075 C   0  0  0  0  0  0  0  0  0  0  0  0
   -3.5001   -3.7457   -2.2679 C   0  0  0  0  0  0  0  0  0  0  0  0
   -2.0507   -3.6686   -2.6897 C   0  0  0  0  0  0  0  0  0  0  0  0
   -1.5615   -0.8031   -1.5534 C   0  0  0  0  0  0  0  0  0  0  0  0
   -1.8565    0.1899   -0.6669 C   0  0  0  0  0  0  0  0  0  0  0  0
   -0.5814    0.8278   -0.2688 C   0  0  1  0  0  0  0  0  0  0  0  0
   -0.4420    0.9486    1.1638 C   0  0  0  0  0  0  0  0  0  0  0  0
   -0.7037    2.1443    1.7790 C   0  0  0  0  0  0  0  0  0  0  0  0
   -0.5966    2.3357    3.1387 C   0  0  0  0  0  0  0  0  0  0  0  0
   -0.2036    1.2598    3.9208 C   0  0  0  0  0  0  0  0  0  0  0  0
   -0.0606    1.4864    5.6706 Cl  0  0  0  0  0  0  0  0  0  0  0  0
    0.0688    0.0378    3.3358 C   0  0  0  0  0  0  0  0  0  0  0  0
   -0.0553   -0.1011    1.9544 C   0  0  0  0  0  0  0  0  0  0  0  0
    0.4332    0.1938   -0.9926 N   0  0  0  0  0  0  0  0  0  0  0  0
    1.8425    0.4165   -1.0605 C   0  0  0  0  0  0  0  0  0  0  0  0
    2.3466    1.3106   -1.9621 C   0  0  0  0  0  0  0  0  0  0  0  0
    3.7069    1.5152   -2.0240 C   0  0  0  0  0  0  0  0  0  0  0  0
    4.2724    2.4279   -2.9393 N   0  0  0  0  0  0  0  0  0  0  0  0
    4.5120    0.8051   -1.1682 C   0  0  0  0  0  0  0  0  0  0  0  0
    5.8502    0.8249   -1.0350 N   0  0  0  0  0  0  0  0  0  0  0  0
    6.2013   -0.0177   -0.0900 N   0  0  0  0  0  0  0  0  0  0  0  0
    5.0698   -0.5708    0.3731 C   0  0  0  0  0  0  0  0  0  0  0  0
    5.0414   -1.5797    1.4508 C   0  0  0  0  0  0  0  0  0  0  0  0
    3.9951   -0.0816   -0.2760 N   0  0  0  0  0  0  0  0  0  0  0  0
    2.6623   -0.2742   -0.2237 C   0  0  0  0  0  0  0  0  0  0  0  0
   -0.1273   -0.8347   -1.7845 C   0  0  0  0  0  0  0  0  0  0  0  0
    0.4306   -1.6616   -2.5644 O   0  0  0  0  0  0  0  0  0  0  0  0
   -5.4608    1.6102    2.5939 H   0  0  0  0  0  0  0  0  0  0  0  0
   -4.2065    1.0109    3.6865 H   0  0  0  0  0  0  0  0  0  0  0  0
   -3.8502    2.5056    2.7769 H   0  0  0  0  0  0  0  0  0  0  0  0
   -3.5097    2.1931    0.3694 H   0  0  0  0  0  0  0  0  0  0  0  0
   -5.0335    1.1648    0.1951 H   0  0  0  0  0  0  0  0  0  0  0  0
   -3.2708   -2.1402   -3.8063 H   0  0  0  0  0  0  0  0  0  0  0  0
   -4.2255   -4.3284   -2.8756 H   0  0  0  0  0  0  0  0  0  0  0  0
   -3.6251   -3.8775   -1.1625 H   0  0  0  0  0  0  0  0  0  0  0  0
   -1.2591   -3.7356   -1.9166 H   0  0  0  0  0  0  0  0  0  0  0  0
   -1.8511   -4.2287   -3.6406 H   0  0  0  0  0  0  0  0  0  0  0  0
   -0.6518    1.8902   -0.6884 H   0  0  0  0  0  0  0  0  0  0  0  0
   -1.0159    3.0149    1.1949 H   0  0  0  0  0  0  0  0  0  0  0  0
   -0.8125    3.3001    3.5938 H   0  0  0  0  0  0  0  0  0  0  0  0
    0.3725   -0.7869    3.9547 H   0  0  0  0  0  0  0  0  0  0  0  0
    0.1433   -1.0323    1.4552 H   0  0  0  0  0  0  0  0  0  0  0  0
    1.7053    1.8832   -2.6508 H   0  0  0  0  0  0  0  0  0  0  0  0
    4.4670    3.4064   -2.6180 H   0  0  0  0  0  0  0  0  0  0  0  0
    4.4835    2.1112   -3.9096 H   0  0  0  0  0  0  0  0  0  0  0  0
    5.4763   -1.0996    2.3546 H   0  0  0  0  0  0  0  0  0  0  0  0
    4.0547   -1.9783    1.6775 H   0  0  0  0  0  0  0  0  0  0  0  0
    5.7752   -2.3769    1.1484 H   0  0  0  0  0  0  0  0  0  0  0  0
    2.3317   -0.9963    0.5113 H   0  0  0  0  0  0  0  0  0  0  0  0
  1  2  1  0
  2  3  1  0
  3  4  1  0
  4  5  2  0
  5  6  1  0
  6  7  1  0
  7  8  1  0
  8  9  1  0
  6 10  1  0
 10 11  2  0
 11 12  1  0
 12 13  1  0
 13 14  2  0
 14 15  1  0
 15 16  2  0
 16 17  1  0
 16 18  1  0
 18 19  2  0
 12 20  1  0
 20 21  1  0
 21 22  1  0
 22 23  2  0
 23 24  1  0
 23 25  1  0
 25 26  2  0
 26 27  1  0
 27 28  2  0
 28 29  1  0
 28 30  1  0
 30 31  1  0
 20 32  1  0
 32 33  2  0
 11  4  1  0
 19 13  1  0
 31 21  2  0
  9  7  1  0
 32 10  1  0
 30 25  1  0
  1 34  1  0
  1 35  1  0
  1 36  1  0
  3 37  1  0
  3 38  1  0
  7 39  1  0
  8 40  1  0
  8 41  1  0
  9 42  1  0
  9 43  1  0
 12 44  1  6
 14 45  1  0
 15 46  1  0
 18 47  1  0
 19 48  1  0
 22 49  1  0
 24 50  1  0
 24 51  1  0
 29 52  1  0
 29 53  1  0
 29 54  1  0
 31 55  1  0
M  END
$$$$
