
     RDKit          3D

 54 57  0  0  0  0  0  0  0  0999 V2000
   -0.8962    5.9678   -3.3457 C   0  0  0  0  0  0  0  0  0  0  0  0
   -1.3209    4.6048   -2.9800 C   0  0  0  0  0  0  0  0  0  0  0  0
   -2.3251    3.8173   -3.5117 C   0  0  0  0  0  0  0  0  0  0  0  0
   -2.4408    2.6382   -2.9494 N   0  0  0  0  0  0  0  0  0  0  0  0
   -1.8387    2.1629   -2.0878 C   0  0  0  0  0  0  0  0  0  0  0  0
   -1.7376    0.9053   -1.2684 C   0  0  0  0  0  0  0  0  0  0  0  0
   -2.5910   -0.1097   -1.5251 C   0  0  0  0  0  0  0  0  0  0  0  0
   -2.5090   -1.2926   -0.7674 C   0  0  0  0  0  0  0  0  0  0  0  0
   -3.3793   -2.3133   -1.0376 O   0  0  0  0  0  0  0  0  0  0  0  0
   -3.4177   -3.5245   -0.3823 C   0  0  2  0  0  0  0  0  0  0  0  0
   -3.2167   -4.7070   -1.3183 C   0  0  0  0  0  0  0  0  0  0  0  0
   -4.4485   -5.5415   -1.0645 C   0  0  0  0  0  0  0  0  0  0  0  0
   -5.4415   -4.6051   -0.7459 O   0  0  0  0  0  0  0  0  0  0  0  0
   -4.8351   -3.7208    0.1453 C   0  0  0  0  0  0  0  0  0  0  0  0
   -1.5635   -1.3884    0.2155 C   0  0  0  0  0  0  0  0  0  0  0  0
   -0.6762   -0.3407    0.4868 C   0  0  0  0  0  0  0  0  0  0  0  0
    0.3147   -0.4673    1.5327 C   0  0  0  0  0  0  0  0  0  0  0  0
    0.3637   -1.5336    2.1926 O   0  0  0  0  0  0  0  0  0  0  0  0
    1.2195    0.5538    1.8352 N   0  0  0  0  0  0  0  0  0  0  0  0
    2.2246    0.4022    2.9096 C   0  0  2  0  0  0  0  0  0  0  0  0
    1.9375    1.4889    3.9257 C   0  0  0  0  0  0  0  0  0  0  0  0
    3.5404    0.5671    2.2585 C   0  0  0  0  0  0  0  0  0  0  0  0
    3.7439   -0.1004    1.0665 C   0  0  0  0  0  0  0  0  0  0  0  0
    4.9493    0.0139    0.4121 C   0  0  0  0  0  0  0  0  0  0  0  0
    5.9478    0.7909    0.9447 C   0  0  0  0  0  0  0  0  0  0  0  0
    7.2493    0.9159    0.2419 C   0  0  0  0  0  0  0  0  0  0  0  0
    7.6131    2.2539    0.2370 F   0  0  0  0  0  0  0  0  0  0  0  0
    8.2217    0.1429    0.8643 F   0  0  0  0  0  0  0  0  0  0  0  0
    7.0877    0.4754   -1.0577 F   0  0  0  0  0  0  0  0  0  0  0  0
    5.6962    1.4240    2.1160 N   0  0  0  0  0  0  0  0  0  0  0  0
    4.5366    1.3150    2.7471 N   0  0  0  0  0  0  0  0  0  0  0  0
   -0.8031    0.7943   -0.2875 C   0  0  0  0  0  0  0  0  0  0  0  0
   -0.6302    3.5600   -1.7054 S   0  0  0  0  0  0  0  0  0  0  0  0
    0.1812    6.0569   -3.1001 H   0  0  0  0  0  0  0  0  0  0  0  0
   -1.0531    6.0855   -4.4333 H   0  0  0  0  0  0  0  0  0  0  0  0
   -1.4087    6.7528   -2.7524 H   0  0  0  0  0  0  0  0  0  0  0  0
   -2.9293    4.2379   -4.3437 H   0  0  0  0  0  0  0  0  0  0  0  0
   -3.3297   -0.0231   -2.3000 H   0  0  0  0  0  0  0  0  0  0  0  0
   -2.6837   -3.6772    0.4323 H   0  0  0  0  0  0  0  0  0  0  0  0
   -3.1582   -4.3878   -2.3780 H   0  0  0  0  0  0  0  0  0  0  0  0
   -2.3248   -5.3006   -1.0747 H   0  0  0  0  0  0  0  0  0  0  0  0
   -4.7896   -6.0521   -1.9930 H   0  0  0  0  0  0  0  0  0  0  0  0
   -4.2902   -6.2250   -0.2263 H   0  0  0  0  0  0  0  0  0  0  0  0
   -4.7615   -4.1392    1.1492 H   0  0  0  0  0  0  0  0  0  0  0  0
   -5.4028   -2.7690    0.1783 H   0  0  0  0  0  0  0  0  0  0  0  0
   -1.4393   -2.2625    0.8381 H   0  0  0  0  0  0  0  0  0  0  0  0
    1.2231    1.4481    1.3254 H   0  0  0  0  0  0  0  0  0  0  0  0
    2.1278   -0.5783    3.3742 H   0  0  0  0  0  0  0  0  0  0  0  0
    2.1490    1.1330    4.9654 H   0  0  0  0  0  0  0  0  0  0  0  0
    0.8442    1.7401    3.9057 H   0  0  0  0  0  0  0  0  0  0  0  0
    2.5262    2.4208    3.7047 H   0  0  0  0  0  0  0  0  0  0  0  0
    2.9557   -0.7149    0.6442 H   0  0  0  0  0  0  0  0  0  0  0  0
    5.0919   -0.5138   -0.5175 H   0  0  0  0  0  0  0  0  0  0  0  0
   -0.1035    1.6187   -0.0726 H   0  0  0  0  0  0  0  0  0  0  0  0
  1  2  1  0
  2  3  2  0
  3  4  1  0
  4  5  2  0
  5  6  1  0
  6  7  2  0
  7  8  1  0
  8  9  1  0
  9 10  1  0
 10 11  1  0
 11 12  1  0
 12 13  1  0
 13 14  1  0
  8 15  2  0
 15 16  1  0
 16 17  1  0
 17 18  2  0
 17 19  1  0
 19 20  1  0
 20 21  1  0
 20 22  1  0
 22 23  2  0
 23 24  1  0
 24 25  2  0
 25 26  1  0
 26 27  1  0
 26 28  1  0
 26 29  1  0
 25 30  1  0
 30 31  2  0
 16 32  2  0
  5 33  1  0
 33  2  1  0
 32  6  1  0
 14 10  1  0
 31 22  1  0
  1 34  1  0
  1 35  1  0
  1 36  1  0
  3 37  1  0
  7 38  1  0
 10 39  1  1
 11 40  1  0
 11 41  1  0
 12 42  1  0
 12 43  1  0
 14 44  1  0
 14 45  1  0
 15 46  1  0
 19 47  1  0
 20 48  1  1
 21 49  1  0
 21 50  1  0
 21 51  1  0
 23 52  1  0
 24 53  1  0
 32 54  1  0
M  END
$$$$
