@<TRIPOS>MOLECULE
*****
 54 57 0 0 0
SMALL
GASTEIGER

@<TRIPOS>ATOM
      1 C          -0.8962    5.9678   -3.3457 C.3     1  UNL1       -0.0319
      2 C          -1.3209    4.6048   -2.9800 C.ar    1  UNL1        0.0068
      3 C          -2.3251    3.8173   -3.5117 C.ar    1  UNL1        0.0383
      4 N          -2.4408    2.6382   -2.9494 N.ar    1  UNL1       -0.2471
      5 C          -1.8387    2.1629   -2.0878 C.ar    1  UNL1        0.1086
      6 C          -1.7376    0.9053   -1.2684 C.ar    1  UNL1        0.0113
      7 C          -2.5910   -0.1097   -1.5251 C.ar    1  UNL1       -0.0102
      8 C          -2.5090   -1.2926   -0.7674 C.ar    1  UNL1        0.1224
      9 O          -3.3793   -2.3133   -1.0376 O.3     1  UNL1       -0.4864
     10 C          -3.4177   -3.5245   -0.3823 C.3     1  UNL1        0.1254
     11 C          -3.2167   -4.7070   -1.3183 C.3     1  UNL1        0.0099
     12 C          -4.4485   -5.5415   -1.0645 C.3     1  UNL1        0.0512
     13 O          -5.4415   -4.6051   -0.7459 O.3     1  UNL1       -0.3760
     14 C          -4.8351   -3.7208    0.1453 C.3     1  UNL1        0.0846
     15 C          -1.5635   -1.3884    0.2155 C.ar    1  UNL1       -0.0078
     16 C          -0.6762   -0.3407    0.4868 C.ar    1  UNL1        0.0408
     17 C           0.3147   -0.4673    1.5327 C.2     1  UNL1        0.2447
     18 O           0.3637   -1.5336    2.1926 O.2     1  UNL1       -0.2702
     19 N           1.2195    0.5538    1.8352 N.am    1  UNL1       -0.3032
     20 C           2.2246    0.4022    2.9096 C.3     1  UNL1        0.0646
     21 C           1.9375    1.4889    3.9257 C.3     1  UNL1       -0.0409
     22 C           3.5404    0.5671    2.2585 C.ar    1  UNL1        0.0835
     23 C           3.7439   -0.1004    1.0665 C.ar    1  UNL1       -0.0348
     24 C           4.9493    0.0139    0.4121 C.ar    1  UNL1       -0.0281
     25 C           5.9478    0.7909    0.9447 C.ar    1  UNL1        0.1658
     26 C           7.2493    0.9159    0.2419 C.3     1  UNL1        0.4359
     27 F           7.6131    2.2539    0.2370 F       1  UNL1       -0.1644
     28 F           8.2217    0.1429    0.8643 F       1  UNL1       -0.1644
     29 F           7.0877    0.4754   -1.0577 F       1  UNL1       -0.1644
     30 N           5.6962    1.4240    2.1160 N.ar    1  UNL1       -0.1449
     31 N           4.5366    1.3150    2.7471 N.ar    1  UNL1       -0.1519
     32 C          -0.8031    0.7943   -0.2875 C.ar    1  UNL1       -0.0397
     33 S          -0.6302    3.5600   -1.7054 S.2     1  UNL1       -0.0725
     34 H           0.1812    6.0569   -3.1001 H       1  UNL1        0.0283
     35 H          -1.0531    6.0855   -4.4333 H       1  UNL1        0.0283
     36 H          -1.4087    6.7528   -2.7524 H       1  UNL1        0.0283
     37 H          -2.9293    4.2379   -4.3437 H       1  UNL1        0.0838
     38 H          -3.3297   -0.0231   -2.3000 H       1  UNL1        0.0661
     39 H          -2.6837   -3.6772    0.4323 H       1  UNL1        0.0757
     40 H          -3.1582   -4.3878   -2.3780 H       1  UNL1        0.0324
     41 H          -2.3248   -5.3006   -1.0747 H       1  UNL1        0.0324
     42 H          -4.7896   -6.0521   -1.9930 H       1  UNL1        0.0561
     43 H          -4.2902   -6.2250   -0.2263 H       1  UNL1        0.0561
     44 H          -4.7615   -4.1392    1.1492 H       1  UNL1        0.0597
     45 H          -5.4028   -2.7690    0.1783 H       1  UNL1        0.0597
     46 H          -1.4393   -2.2625    0.8381 H       1  UNL1        0.0662
     47 H           1.2231    1.4481    1.3254 H       1  UNL1        0.1497
     48 H           2.1278   -0.5783    3.3742 H       1  UNL1        0.0561
     49 H           2.1490    1.1330    4.9654 H       1  UNL1        0.0251
     50 H           0.8442    1.7401    3.9057 H       1  UNL1        0.0251
     51 H           2.5262    2.4208    3.7047 H       1  UNL1        0.0251
     52 H           2.9557   -0.7149    0.6442 H       1  UNL1        0.0637
     53 H           5.0919   -0.5138   -0.5175 H       1  UNL1        0.0639
     54 H          -0.1035    1.6187   -0.0726 H       1  UNL1        0.0632
@<TRIPOS>BOND
     1     1     2    1
     2     2     3   ar
     3     3     4   ar
     4     4     5   ar
     5     5     6    1
     6     6     7   ar
     7     7     8   ar
     8     8     9    1
     9     9    10    1
    10    10    11    1
    11    11    12    1
    12    12    13    1
    13    13    14    1
    14     8    15   ar
    15    15    16   ar
    16    16    17    1
    17    17    18    2
    18    17    19   am
    19    19    20    1
    20    20    21    1
    21    20    22    1
    22    22    23   ar
    23    23    24   ar
    24    24    25   ar
    25    25    26    1
    26    26    27    1
    27    26    28    1
    28    26    29    1
    29    25    30   ar
    30    30    31   ar
    31    16    32   ar
    32     5    33   ar
    33    33     2   ar
    34    32     6   ar
    35    14    10    1
    36    31    22   ar
    37     1    34    1
    38     1    35    1
    39     1    36    1
    40     3    37    1
    41     7    38    1
    42    10    39    1
    43    11    40    1
    44    11    41    1
    45    12    42    1
    46    12    43    1
    47    14    44    1
    48    14    45    1
    49    15    46    1
    50    19    47    1
    51    20    48    1
    52    21    49    1
    53    21    50    1
    54    21    51    1
    55    23    52    1
    56    24    53    1
    57    32    54    1
