
     RDKit          3D

 41 43  0  0  0  0  0  0  0  0999 V2000
    6.7846    0.6953    0.4588 C   0  0  0  0  0  0  0  0  0  0  0  0
    5.8198   -0.3392    0.0623 N   0  0  0  0  0  0  0  0  0  0  0  0
    4.4488   -0.2413    0.3242 C   0  0  0  0  0  0  0  0  0  0  0  0
    4.0293    0.7831    0.9278 O   0  0  0  0  0  0  0  0  0  0  0  0
    3.5050   -1.1875   -0.0291 O   0  0  0  0  0  0  0  0  0  0  0  0
    2.1571   -1.0778    0.2356 C   0  0  0  0  0  0  0  0  0  0  0  0
    1.6637   -1.5778    1.4156 C   0  0  0  0  0  0  0  0  0  0  0  0
    0.2955   -1.4402    1.6315 C   0  0  0  0  0  0  0  0  0  0  0  0
   -0.5590   -0.8368    0.7288 C   0  0  0  0  0  0  0  0  0  0  0  0
   -0.0400   -0.3427   -0.4482 C   0  0  0  0  0  0  0  0  0  0  0  0
    1.3253   -0.4742   -0.6755 C   0  0  0  0  0  0  0  0  0  0  0  0
   -1.1454    0.2339   -1.1986 C   0  0  2  0  0  0  0  0  0  0  0  0
   -1.0189    0.1191   -2.6893 C   0  0  0  0  0  0  0  0  0  0  0  0
   -1.4755    1.6516   -0.8024 C   0  0  0  0  0  0  0  0  0  0  0  0
   -2.9875    1.6868   -0.8862 C   0  0  0  0  0  0  0  0  0  0  0  0
   -3.4154    0.3380   -0.9682 N   0  0  0  0  0  0  0  0  0  0  0  0
   -4.6925    0.0238   -0.4577 C   0  0  0  0  0  0  0  0  0  0  0  0
   -2.3411   -0.5198   -0.6503 C   0  0  2  0  0  0  0  0  0  0  0  0
   -1.9851   -0.5936    0.7482 N   0  0  0  0  0  0  0  0  0  0  0  0
   -2.7541   -0.4732    1.9450 C   0  0  0  0  0  0  0  0  0  0  0  0
    7.7598    0.4938    0.0173 H   0  0  0  0  0  0  0  0  0  0  0  0
    6.7697    0.7094    1.5675 H   0  0  0  0  0  0  0  0  0  0  0  0
    6.3337    1.6582    0.0975 H   0  0  0  0  0  0  0  0  0  0  0  0
    6.1745   -1.1763   -0.4328 H   0  0  0  0  0  0  0  0  0  0  0  0
    2.2747   -2.0644    2.1718 H   0  0  0  0  0  0  0  0  0  0  0  0
   -0.1182   -1.8334    2.5697 H   0  0  0  0  0  0  0  0  0  0  0  0
    1.7846   -0.0997   -1.5915 H   0  0  0  0  0  0  0  0  0  0  0  0
   -0.2103    0.7844   -3.0140 H   0  0  0  0  0  0  0  0  0  0  0  0
   -1.9749    0.5223   -3.1240 H   0  0  0  0  0  0  0  0  0  0  0  0
   -0.9424   -0.9169   -3.0175 H   0  0  0  0  0  0  0  0  0  0  0  0
   -1.2205    1.7457    0.2900 H   0  0  0  0  0  0  0  0  0  0  0  0
   -0.9895    2.4128   -1.4148 H   0  0  0  0  0  0  0  0  0  0  0  0
   -3.4377    2.2686   -0.0619 H   0  0  0  0  0  0  0  0  0  0  0  0
   -3.2318    2.1844   -1.8643 H   0  0  0  0  0  0  0  0  0  0  0  0
   -4.7203   -0.9614    0.0813 H   0  0  0  0  0  0  0  0  0  0  0  0
   -5.3838   -0.1375   -1.3377 H   0  0  0  0  0  0  0  0  0  0  0  0
   -5.1855    0.8319    0.1299 H   0  0  0  0  0  0  0  0  0  0  0  0
   -2.4149   -1.5194   -1.1210 H   0  0  0  0  0  0  0  0  0  0  0  0
   -3.6229    0.2331    1.8479 H   0  0  0  0  0  0  0  0  0  0  0  0
   -3.0900   -1.4882    2.2472 H   0  0  0  0  0  0  0  0  0  0  0  0
   -2.1689   -0.0750    2.8050 H   0  0  0  0  0  0  0  0  0  0  0  0
  1  2  1  0
  2  3  1  0
  3  4  2  0
  3  5  1  0
  5  6  1  0
  6  7  2  0
  7  8  1  0
  8  9  2  0
  9 10  1  0
 10 11  2  0
 10 12  1  0
 12 13  1  6
 12 14  1  0
 14 15  1  0
 15 16  1  0
 16 17  1  0
 16 18  1  0
 18 19  1  0
 19 20  1  0
 11  6  1  0
 18 12  1  0
 19  9  1  0
  1 21  1  0
  1 22  1  0
  1 23  1  0
  2 24  1  0
  7 25  1  0
  8 26  1  0
 11 27  1  0
 13 28  1  0
 13 29  1  0
 13 30  1  0
 14 31  1  0
 14 32  1  0
 15 33  1  0
 15 34  1  0
 17 35  1  0
 17 36  1  0
 17 37  1  0
 18 38  1  6
 20 39  1  0
 20 40  1  0
 20 41  1  0
M  END
$$$$
