@<TRIPOS>MOLECULE
*****
 41 43 0 0 0
SMALL
GASTEIGER

@<TRIPOS>ATOM
      1 C           6.7846    0.6953    0.4588 C.3     1  UNL1        0.0032
      2 N           5.8198   -0.3392    0.0623 N.am    1  UNL1       -0.2839
      3 C           4.4488   -0.2413    0.3242 C.2     1  UNL1        0.4053
      4 O           4.0293    0.7831    0.9278 O.2     1  UNL1       -0.2260
      5 O           3.5050   -1.1875   -0.0291 O.3     1  UNL1       -0.4115
      6 C           2.1571   -1.0778    0.2356 C.ar    1  UNL1        0.1336
      7 C           1.6637   -1.5778    1.4156 C.ar    1  UNL1       -0.0174
      8 C           0.2955   -1.4402    1.6315 C.ar    1  UNL1       -0.0369
      9 C          -0.5590   -0.8368    0.7288 C.ar    1  UNL1        0.0347
     10 C          -0.0400   -0.3427   -0.4482 C.ar    1  UNL1       -0.0139
     11 C           1.3253   -0.4742   -0.6755 C.ar    1  UNL1       -0.0136
     12 C          -1.1454    0.2339   -1.1986 C.3     1  UNL1        0.0279
     13 C          -1.0189    0.1191   -2.6893 C.3     1  UNL1       -0.0525
     14 C          -1.4755    1.6516   -0.8024 C.3     1  UNL1       -0.0277
     15 C          -2.9875    1.6868   -0.8862 C.3     1  UNL1        0.0012
     16 N          -3.4154    0.3380   -0.9682 N.3     1  UNL1       -0.2867
     17 C          -4.6925    0.0238   -0.4577 C.3     1  UNL1       -0.0111
     18 C          -2.3411   -0.5198   -0.6503 C.3     1  UNL1        0.0860
     19 N          -1.9851   -0.5936    0.7482 N.pl3   1  UNL1       -0.3162
     20 C          -2.7541   -0.4732    1.9450 C.3     1  UNL1        0.0022
     21 H           7.7598    0.4938    0.0173 H       1  UNL1        0.0427
     22 H           6.7697    0.7094    1.5675 H       1  UNL1        0.0427
     23 H           6.3337    1.6582    0.0975 H       1  UNL1        0.0427
     24 H           6.1745   -1.1763   -0.4328 H       1  UNL1        0.1517
     25 H           2.2747   -2.0644    2.1718 H       1  UNL1        0.0655
     26 H          -0.1182   -1.8334    2.5697 H       1  UNL1        0.0637
     27 H           1.7846   -0.0997   -1.5915 H       1  UNL1        0.0658
     28 H          -0.2103    0.7844   -3.0140 H       1  UNL1        0.0239
     29 H          -1.9749    0.5223   -3.1240 H       1  UNL1        0.0239
     30 H          -0.9424   -0.9169   -3.0175 H       1  UNL1        0.0239
     31 H          -1.2205    1.7457    0.2900 H       1  UNL1        0.0287
     32 H          -0.9895    2.4128   -1.4148 H       1  UNL1        0.0287
     33 H          -3.4377    2.2686   -0.0619 H       1  UNL1        0.0427
     34 H          -3.2318    2.1844   -1.8643 H       1  UNL1        0.0427
     35 H          -4.7203   -0.9614    0.0813 H       1  UNL1        0.0391
     36 H          -5.3838   -0.1375   -1.3377 H       1  UNL1        0.0391
     37 H          -5.1855    0.8319    0.1299 H       1  UNL1        0.0391
     38 H          -2.4149   -1.5194   -1.1210 H       1  UNL1        0.0680
     39 H          -3.6229    0.2331    1.8479 H       1  UNL1        0.0428
     40 H          -3.0900   -1.4882    2.2472 H       1  UNL1        0.0428
     41 H          -2.1689   -0.0750    2.8050 H       1  UNL1        0.0428
@<TRIPOS>BOND
     1     1     2    1
     2     2     3   am
     3     3     4    2
     4     3     5    1
     5     5     6    1
     6     6     7   ar
     7     7     8   ar
     8     8     9   ar
     9     9    10   ar
    10    10    11   ar
    11    10    12    1
    12    12    13    1
    13    12    14    1
    14    14    15    1
    15    15    16    1
    16    16    17    1
    17    16    18    1
    18    18    19    1
    19    19    20    1
    20    11     6   ar
    21    18    12    1
    22    19     9    1
    23     1    21    1
    24     1    22    1
    25     1    23    1
    26     2    24    1
    27     7    25    1
    28     8    26    1
    29    11    27    1
    30    13    28    1
    31    13    29    1
    32    13    30    1
    33    14    31    1
    34    14    32    1
    35    15    33    1
    36    15    34    1
    37    17    35    1
    38    17    36    1
    39    17    37    1
    40    18    38    1
    41    20    39    1
    42    20    40    1
    43    20    41    1
