
     RDKit          3D

 52 55  0  0  0  0  0  0  0  0999 V2000
    7.9546   -0.9143    1.7726 N   0  0  0  0  0  0  0  0  0  0  0  0
    6.6911   -0.5418    1.2818 C   0  0  0  0  0  0  0  0  0  0  0  0
    6.5709   -0.3264   -0.0340 N   0  0  0  0  0  0  0  0  0  0  0  0
    5.4138    0.0327   -0.6083 C   0  0  0  0  0  0  0  0  0  0  0  0
    5.3510    0.2393   -1.9685 C   0  0  0  0  0  0  0  0  0  0  0  0
    4.2104    0.6082   -2.6454 C   0  0  0  0  0  0  0  0  0  0  0  0
    3.1317    0.7489   -1.8061 C   0  0  0  0  0  0  0  0  0  0  0  0
    3.0216    0.5826   -0.4433 C   0  0  0  0  0  0  0  0  0  0  0  0
    2.0582    0.6992    0.4002 O   0  0  0  0  0  0  0  0  0  0  0  0
    0.8269    0.9242    0.8354 C   0  0  0  0  0  0  0  0  0  0  0  0
   -0.2304   -0.0352    0.4124 C   0  0  0  0  0  0  0  0  0  0  0  0
   -0.3829   -0.0959   -1.0681 C   0  0  0  0  0  0  0  0  0  0  0  0
   -1.3729   -1.2391   -1.3728 C   0  0  0  0  0  0  0  0  0  0  0  0
   -2.6234   -0.9648   -0.7782 N   0  0  0  0  0  0  0  0  0  0  0  0
   -3.5328   -0.1499   -1.5122 C   0  0  0  0  0  0  0  0  0  0  0  0
   -4.7723   -0.0099   -0.6764 C   0  0  0  0  0  0  0  0  0  0  0  0
   -5.1751    1.0981    0.0651 C   0  0  0  0  0  0  0  0  0  0  0  0
   -6.3425    1.0388    0.7671 C   0  0  0  0  0  0  0  0  0  0  0  0
   -7.1525   -0.0797    0.7774 C   0  0  0  0  0  0  0  0  0  0  0  0
   -6.7775   -1.2001    0.0477 C   0  0  0  0  0  0  0  0  0  0  0  0
   -5.6005   -1.1318   -0.6562 C   0  0  0  0  0  0  0  0  0  0  0  0
   -5.2835   -2.2530   -1.3499 F   0  0  0  0  0  0  0  0  0  0  0  0
   -2.5664   -0.7152    0.6400 C   0  0  0  0  0  0  0  0  0  0  0  0
   -1.5928    0.3830    0.9844 C   0  0  0  0  0  0  0  0  0  0  0  0
    4.2535    0.2092    0.1114 C   0  0  0  0  0  0  0  0  0  0  0  0
    4.4320   -0.0235    1.4496 C   0  0  0  0  0  0  0  0  0  0  0  0
    3.3858    0.0902    2.3880 N   0  0  0  0  0  0  0  0  0  0  0  0
    5.5854   -0.3820    2.0265 N   0  0  0  0  0  0  0  0  0  0  0  0
    8.1166   -0.5468    2.7281 H   0  0  0  0  0  0  0  0  0  0  0  0
    8.6199   -1.4958    1.2030 H   0  0  0  0  0  0  0  0  0  0  0  0
    6.2516    0.1070   -2.5640 H   0  0  0  0  0  0  0  0  0  0  0  0
    4.1313    0.7761   -3.7033 H   0  0  0  0  0  0  0  0  0  0  0  0
    2.2059    1.0641   -2.3134 H   0  0  0  0  0  0  0  0  0  0  0  0
    0.7556    1.0894    1.9787 H   0  0  0  0  0  0  0  0  0  0  0  0
    0.4202    1.9484    0.4458 H   0  0  0  0  0  0  0  0  0  0  0  0
   -0.0753   -1.0635    0.8643 H   0  0  0  0  0  0  0  0  0  0  0  0
   -0.7935    0.8724   -1.4201 H   0  0  0  0  0  0  0  0  0  0  0  0
    0.5948   -0.3621   -1.5331 H   0  0  0  0  0  0  0  0  0  0  0  0
   -1.4695   -1.2567   -2.4662 H   0  0  0  0  0  0  0  0  0  0  0  0
   -0.9231   -2.1564   -0.9559 H   0  0  0  0  0  0  0  0  0  0  0  0
   -3.1140    0.8337   -1.7861 H   0  0  0  0  0  0  0  0  0  0  0  0
   -3.8255   -0.6972   -2.4336 H   0  0  0  0  0  0  0  0  0  0  0  0
   -4.4836    1.9303    0.0020 H   0  0  0  0  0  0  0  0  0  0  0  0
   -6.6248    1.9141    1.3304 H   0  0  0  0  0  0  0  0  0  0  0  0
   -8.0851   -0.0760    1.3608 H   0  0  0  0  0  0  0  0  0  0  0  0
   -7.4063   -2.0858    0.0478 H   0  0  0  0  0  0  0  0  0  0  0  0
   -2.1669   -1.6351    1.1409 H   0  0  0  0  0  0  0  0  0  0  0  0
   -3.5855   -0.5370    0.9989 H   0  0  0  0  0  0  0  0  0  0  0  0
   -1.5024    0.4535    2.0760 H   0  0  0  0  0  0  0  0  0  0  0  0
   -1.8967    1.3596    0.5165 H   0  0  0  0  0  0  0  0  0  0  0  0
    2.7573   -0.7618    2.3692 H   0  0  0  0  0  0  0  0  0  0  0  0
    2.6181    0.1679    3.0731 H   0  0  0  0  0  0  0  0  0  0  0  0
  1  2  1  0
  2  3  2  0
  3  4  1  0
  4  5  2  0
  5  6  1  0
  6  7  2  0
  7  8  1  0
  8  9  1  0
  9 10  1  0
 10 11  1  0
 11 12  1  0
 12 13  1  0
 13 14  1  0
 14 15  1  0
 15 16  1  0
 16 17  2  0
 17 18  1  0
 18 19  2  0
 19 20  1  0
 20 21  2  0
 21 22  1  0
 14 23  1  0
 23 24  1  0
  8 25  2  0
 25 26  1  0
 26 27  1  0
 26 28  2  0
 28  2  1  0
 25  4  1  0
 24 11  1  0
 21 16  1  0
  1 29  1  0
  1 30  1  0
  5 31  1  0
  6 32  1  0
  7 33  1  0
 10 34  1  0
 10 35  1  0
 11 36  1  0
 12 37  1  0
 12 38  1  0
 13 39  1  0
 13 40  1  0
 15 41  1  0
 15 42  1  0
 17 43  1  0
 18 44  1  0
 19 45  1  0
 20 46  1  0
 23 47  1  0
 23 48  1  0
 24 49  1  0
 24 50  1  0
 27 51  1  0
 27 52  1  0
M  END
$$$$
