@<TRIPOS>MOLECULE
*****
 33 32 0 0 0
SMALL
GASTEIGER

@<TRIPOS>ATOM
      1 C           3.4818    0.3197    0.6030 C.3     1  UNL1       -0.0653
      2 C           2.9897   -0.8585   -0.1553 C.3     1  UNL1       -0.0552
      3 C           1.8635   -0.7108   -1.0819 C.3     1  UNL1       -0.0416
      4 C           0.5179   -0.3050   -0.6521 C.3     1  UNL1        0.0363
      5 C          -0.3411   -0.2962   -1.9346 C.3     1  UNL1       -0.0533
      6 C          -0.1798   -1.3060    0.2451 C.3     1  UNL1        0.1025
      7 O          -1.4543   -0.7504    0.5569 O.3     1  UNL1       -0.4499
      8 C          -2.3627   -1.4128    1.3683 C.2     1  UNL1        0.3977
      9 N          -3.6111   -0.7929    1.6315 N.am    1  UNL1       -0.2950
     10 O          -1.9067   -2.4981    1.7501 O.2     1  UNL1       -0.2267
     11 C           0.4768    1.0604   -0.0724 C.3     1  UNL1        0.1025
     12 O          -0.7300    1.5667    0.3745 O.3     1  UNL1       -0.4499
     13 C          -1.8863    1.9091   -0.2185 C.2     1  UNL1        0.3977
     14 N          -2.8931    2.3867    0.6686 N.am    1  UNL1       -0.2950
     15 O          -2.2255    1.8796   -1.4098 O.2     1  UNL1       -0.2267
     16 H           3.3916    1.2677    0.0763 H       1  UNL1        0.0230
     17 H           4.6129    0.1609    0.7227 H       1  UNL1        0.0230
     18 H           3.1587    0.3900    1.6611 H       1  UNL1        0.0230
     19 H           2.8954   -1.7405    0.5370 H       1  UNL1        0.0263
     20 H           3.8629   -1.1957   -0.8133 H       1  UNL1        0.0263
     21 H           2.2147    0.0166   -1.8898 H       1  UNL1        0.0273
     22 H           1.8209   -1.6789   -1.6878 H       1  UNL1        0.0273
     23 H          -1.3708   -0.6018   -1.7408 H       1  UNL1        0.0237
     24 H           0.0970   -1.1410   -2.5672 H       1  UNL1        0.0237
     25 H          -0.1602    0.5974   -2.5176 H       1  UNL1        0.0237
     26 H           0.3235   -1.4428    1.2236 H       1  UNL1        0.0704
     27 H          -0.3787   -2.2523   -0.2761 H       1  UNL1        0.0704
     28 H          -4.1448   -0.7547    0.7557 H       1  UNL1        0.1482
     29 H          -3.7706   -0.4950    2.6186 H       1  UNL1        0.1482
     30 H           0.9234    1.7677   -0.8510 H       1  UNL1        0.0704
     31 H           1.1810    1.1728    0.7797 H       1  UNL1        0.0704
     32 H          -3.7804    2.4176    1.2071 H       1  UNL1        0.1482
     33 H          -2.6153    3.3206    1.0888 H       1  UNL1        0.1482
@<TRIPOS>BOND
     1     1     2    1
     2     2     3    1
     3     3     4    1
     4     4     5    1
     5     4     6    1
     6     6     7    1
     7     7     8    1
     8     8     9   am
     9     8    10    2
    10     4    11    1
    11    11    12    1
    12    12    13    1
    13    13    14   am
    14    13    15    2
    15     1    16    1
    16     1    17    1
    17     1    18    1
    18     2    19    1
    19     2    20    1
    20     3    21    1
    21     3    22    1
    22     5    23    1
    23     5    24    1
    24     5    25    1
    25     6    26    1
    26     6    27    1
    27     9    28    1
    28     9    29    1
    29    11    30    1
    30    11    31    1
    31    14    32    1
    32    14    33    1
