@<TRIPOS>MOLECULE
*****
 61 64 0 0 0
SMALL
GASTEIGER

@<TRIPOS>ATOM
      1 C          -4.0121    1.9288    2.0382 C.3     1  UNL1       -0.0650
      2 C          -2.9952    2.7042    1.2249 C.3     1  UNL1       -0.0518
      3 C          -3.2234    2.4353   -0.2587 C.3     1  UNL1       -0.0244
      4 C          -3.0756    0.9883   -0.5568 C.ar    1  UNL1       -0.0022
      5 C          -4.1959    0.2284   -0.7666 C.ar    1  UNL1       -0.0127
      6 C          -4.0770   -1.1065   -1.0443 C.ar    1  UNL1        0.1289
      7 O          -5.2051   -1.8652   -1.2529 O.3     1  UNL1       -0.4560
      8 C          -6.4648   -1.2645   -1.1704 C.ar    1  UNL1        0.1284
      9 C          -7.1113   -0.7090   -2.2523 C.ar    1  UNL1       -0.0193
     10 C          -8.3710   -0.1287   -2.0724 C.ar    1  UNL1       -0.0583
     11 C          -8.9176   -0.1358   -0.8152 C.ar    1  UNL1       -0.0615
     12 C          -8.2709   -0.6890    0.2543 C.ar    1  UNL1       -0.0583
     13 C          -7.0391   -1.2576    0.0840 C.ar    1  UNL1       -0.0193
     14 C          -2.8350   -1.6793   -1.1123 C.ar    1  UNL1       -0.0159
     15 C          -1.6980   -0.8792   -0.8938 C.ar    1  UNL1       -0.0162
     16 C          -1.7757    0.4498   -0.6142 C.ar    1  UNL1        0.1239
     17 O          -0.7573    1.3057   -0.3912 O.3     1  UNL1       -0.4916
     18 C           0.5883    1.0363   -0.3619 C.3     1  UNL1        0.0927
     19 C           0.9716    0.1275    0.7690 C.3     1  UNL1        0.0157
     20 C           2.4762   -0.0723    0.6699 C.3     1  UNL1        0.0927
     21 O           2.9641   -0.9200    1.6877 O.3     1  UNL1       -0.4918
     22 C           4.3416   -1.1780    1.7140 C.ar    1  UNL1        0.1211
     23 C           4.9184   -1.9931    2.6638 C.ar    1  UNL1       -0.0199
     24 C           6.2683   -2.2549    2.7030 C.ar    1  UNL1       -0.0577
     25 C           7.1164   -1.6791    1.7452 C.ar    1  UNL1       -0.0531
     26 C           6.5704   -0.8721    0.7992 C.ar    1  UNL1       -0.0026
     27 C           7.4043   -0.2458   -0.2139 C.ar    1  UNL1        0.0838
     28 S           6.7809    0.8190   -1.4978 S.2     1  UNL1       -0.0230
     29 C           8.3997    1.1305   -2.2541 C.ar    1  UNL1        0.2913
     30 O           8.6158    1.8659   -3.2773 O.2     1  UNL1       -0.2596
     31 N           9.2211    0.4076   -1.4668 N.ar    1  UNL1       -0.2870
     32 C           8.7411   -0.2644   -0.4719 C.ar    1  UNL1        0.2081
     33 O           9.5924   -1.0457    0.3868 O.3     1  UNL1       -0.4928
     34 C           5.1950   -0.6259    0.7864 C.ar    1  UNL1       -0.0116
     35 H          -4.1285    2.3900    3.0378 H       1  UNL1        0.0230
     36 H          -3.6376    0.9018    2.1877 H       1  UNL1        0.0230
     37 H          -4.9847    1.8443    1.5188 H       1  UNL1        0.0230
     38 H          -1.9791    2.3322    1.4691 H       1  UNL1        0.0266
     39 H          -3.0788    3.7800    1.4547 H       1  UNL1        0.0266
     40 H          -2.4441    3.0080   -0.8078 H       1  UNL1        0.0314
     41 H          -4.1927    2.8339   -0.5956 H       1  UNL1        0.0314
     42 H          -5.1958    0.6515   -0.7204 H       1  UNL1        0.0658
     43 H          -6.6312   -0.7371   -3.2001 H       1  UNL1        0.0654
     44 H          -8.8566    0.2967   -2.9213 H       1  UNL1        0.0619
     45 H          -9.8864    0.3021   -0.6375 H       1  UNL1        0.0618
     46 H          -8.6921   -0.7029    1.2632 H       1  UNL1        0.0619
     47 H          -6.5135   -1.7046    0.9419 H       1  UNL1        0.0654
     48 H          -2.7121   -2.7494   -1.3340 H       1  UNL1        0.0655
     49 H          -0.7332   -1.3507   -0.9796 H       1  UNL1        0.0655
     50 H           0.9855    0.6412   -1.3429 H       1  UNL1        0.0697
     51 H           1.1820    1.9900   -0.2099 H       1  UNL1        0.0697
     52 H           0.4896   -0.8256    0.8035 H       1  UNL1        0.0331
     53 H           0.7391    0.6290    1.7596 H       1  UNL1        0.0331
     54 H           2.9762    0.9164    0.7107 H       1  UNL1        0.0697
     55 H           2.6691   -0.5432   -0.3216 H       1  UNL1        0.0697
     56 H           4.2626   -2.4368    3.4019 H       1  UNL1        0.0654
     57 H           6.7116   -2.9059    3.4657 H       1  UNL1        0.0619
     58 H           8.1640   -1.9190    1.8235 H       1  UNL1        0.0624
     59 H          10.2892    0.4162   -1.7034 H       1  UNL1        0.1723
     60 H          10.2861   -1.6458   -0.0210 H       1  UNL1        0.2937
     61 H           4.7710    0.0261    0.0180 H       1  UNL1        0.0660
@<TRIPOS>BOND
     1     1     2    1
     2     2     3    1
     3     3     4    1
     4     4     5   ar
     5     5     6   ar
     6     6     7    1
     7     7     8    1
     8     8     9   ar
     9     9    10   ar
    10    10    11   ar
    11    11    12   ar
    12    12    13   ar
    13     6    14   ar
    14    14    15   ar
    15    15    16   ar
    16    16    17    1
    17    17    18    1
    18    18    19    1
    19    19    20    1
    20    20    21    1
    21    21    22    1
    22    22    23   ar
    23    23    24   ar
    24    24    25   ar
    25    25    26   ar
    26    26    27    1
    27    27    28   ar
    28    28    29   ar
    29    29    30    2
    30    29    31   ar
    31    31    32   ar
    32    32    33    1
    33    26    34   ar
    34    16     4   ar
    35    34    22   ar
    36    13     8   ar
    37    32    27   ar
    38     1    35    1
    39     1    36    1
    40     1    37    1
    41     2    38    1
    42     2    39    1
    43     3    40    1
    44     3    41    1
    45     5    42    1
    46     9    43    1
    47    10    44    1
    48    11    45    1
    49    12    46    1
    50    13    47    1
    51    14    48    1
    52    15    49    1
    53    18    50    1
    54    18    51    1
    55    19    52    1
    56    19    53    1
    57    20    54    1
    58    20    55    1
    59    23    56    1
    60    24    57    1
    61    25    58    1
    62    31    59    1
    63    33    60    1
    64    34    61    1
