@<TRIPOS>MOLECULE
*****
 62 65 0 0 0
SMALL
GASTEIGER

@<TRIPOS>ATOM
      1 C          -9.5669    1.8649    0.7146 C.3     1  UNL1        0.0000
      2 N          -8.1716    1.4499    0.5422 N.am    1  UNL1        0.0000
      3 C          -7.5402    0.7634    1.6102 C.2     1  UNL1        0.0000
      4 O          -8.2295    0.5468    2.6677 O.2     1  UNL1        0.0000
      5 C          -6.1415    0.3179    1.5029 C.3     1  UNL1        0.0000
      6 C          -5.1332    1.3703    1.2274 C.3     1  UNL1        0.0000
      7 C          -5.4927    0.2981    0.2014 C.3     1  UNL1        0.0000
      8 C          -4.4276   -0.7055   -0.0484 C.3     1  UNL1        0.0000
      9 C          -5.0986   -1.9170   -0.7106 C.3     1  UNL1        0.0000
     10 C          -3.4916   -0.1657   -1.0817 C.ar    1  UNL1        0.0000
     11 C          -2.1128   -0.1335   -0.8385 C.ar    1  UNL1        0.0000
     12 C          -1.2209    0.3558   -1.7349 C.ar    1  UNL1        0.0000
     13 C           0.2259    0.3924   -1.5023 C.2     1  UNL1        0.0000
     14 C           0.8973   -0.5437   -0.8847 C.2     1  UNL1        0.0000
     15 F           0.2094   -1.6215   -0.4284 F       1  UNL1        0.0000
     16 C           2.3469   -0.4776   -0.6674 C.ar    1  UNL1        0.0000
     17 C           3.0064   -1.4942   -0.0123 C.ar    1  UNL1        0.0000
     18 N           4.3536   -1.4270    0.1873 N.ar    1  UNL1        0.0000
     19 C           5.0653   -0.3716   -0.2489 C.ar    1  UNL1        0.0000
     20 C           6.4887   -0.2591   -0.0599 C.1     1  UNL1        0.0000
     21 C           7.6960   -0.1658    0.1219 C.1     1  UNL1        0.0000
     22 SI          9.4919   -0.0421    0.3856 Si      1  UNL1        0.0000
     23 C          10.2661   -1.6278   -0.2204 C.3     1  UNL1        0.0000
     24 C          10.1313    1.3694   -0.6551 C.3     1  UNL1        0.0000
     25 C           9.8590    0.2766    2.1731 C.3     1  UNL1        0.0000
     26 C           4.4034    0.6513   -0.9077 C.ar    1  UNL1        0.0000
     27 N           3.0842    0.5630   -1.0913 N.ar    1  UNL1        0.0000
     28 C          -1.6541    0.8591   -2.9658 C.ar    1  UNL1        0.0000
     29 C          -3.0035    0.8411   -3.2349 C.ar    1  UNL1        0.0000
     30 C          -3.8943    0.3279   -2.2859 C.ar    1  UNL1        0.0000
     31 F          -5.1841    0.3351   -2.6389 F       1  UNL1        0.0000
     32 N          -3.6372   -1.1315    1.0380 N.2     1  UNL1        0.0000
     33 C          -3.9611   -1.3628    2.2494 C.2     1  UNL1        0.0000
     34 N          -3.0920   -1.7883    3.2644 N.pl3   1  UNL1        0.0000
     35 S          -5.7233   -1.0712    2.5880 S.3     1  UNL1        0.0000
     36 H          -9.9789    2.3189   -0.1868 H       1  UNL1        0.0000
     37 H         -10.1794    0.9478    0.9552 H       1  UNL1        0.0000
     38 H          -9.6885    2.5405    1.5816 H       1  UNL1        0.0000
     39 H          -7.7253    1.6909   -0.3673 H       1  UNL1        0.0000
     40 H          -5.4774    2.3932    0.9758 H       1  UNL1        0.0000
     41 H          -4.1342    1.3577    1.6946 H       1  UNL1        0.0000
     42 H          -6.1169    0.5446   -0.6657 H       1  UNL1        0.0000
     43 H          -4.3459   -2.4694   -1.3149 H       1  UNL1        0.0000
     44 H          -5.4533   -2.5851    0.0928 H       1  UNL1        0.0000
     45 H          -5.9511   -1.5929   -1.3548 H       1  UNL1        0.0000
     46 H          -1.7459   -0.5161    0.1064 H       1  UNL1        0.0000
     47 H           0.8005    1.2542   -1.8636 H       1  UNL1        0.0000
     48 H           2.4351   -2.3486    0.3412 H       1  UNL1        0.0000
     49 H          11.3420   -1.5647   -0.0238 H       1  UNL1        0.0000
     50 H           9.7628   -2.4572    0.3469 H       1  UNL1        0.0000
     51 H           9.9805   -1.7747   -1.2697 H       1  UNL1        0.0000
     52 H           9.8360    2.3544   -0.2806 H       1  UNL1        0.0000
     53 H          11.2466    1.3362   -0.6392 H       1  UNL1        0.0000
     54 H           9.8278    1.1672   -1.7046 H       1  UNL1        0.0000
     55 H          10.8755   -0.0038    2.4784 H       1  UNL1        0.0000
     56 H           9.1089   -0.2900    2.7821 H       1  UNL1        0.0000
     57 H           9.6589    1.3505    2.3775 H       1  UNL1        0.0000
     58 H           5.0044    1.5049   -1.2558 H       1  UNL1        0.0000
     59 H          -0.9248    1.2501   -3.6761 H       1  UNL1        0.0000
     60 H          -3.3619    1.2254   -4.1783 H       1  UNL1        0.0000
     61 H          -3.4422   -2.3960    4.0417 H       1  UNL1        0.0000
     62 H          -2.1017   -1.5149    3.2664 H       1  UNL1        0.0000
@<TRIPOS>BOND
     1     1     2    1
     2     2     3   am
     3     3     4    2
     4     5     3    1
     5     5     6    1
     6     6     7    1
     7     7     8    1
     8     8     9    1
     9     8    10    1
    10    10    11   ar
    11    11    12   ar
    12    12    13    1
    13    13    14    2
    14    14    15    1
    15    14    16    1
    16    16    17   ar
    17    17    18   ar
    18    18    19   ar
    19    19    20    1
    20    20    21    3
    21    21    22    1
    22    22    23    1
    23    22    24    1
    24    22    25    1
    25    19    26   ar
    26    26    27   ar
    27    12    28   ar
    28    28    29   ar
    29    29    30   ar
    30    30    31    1
    31     8    32    1
    32    32    33    2
    33    33    34    1
    34    33    35    1
    35     7     5    1
    36    30    10   ar
    37    35     5    1
    38    27    16   ar
    39     1    36    1
    40     1    37    1
    41     1    38    1
    42     2    39    1
    43     6    40    1
    44     6    41    1
    45     7    42    1
    46     9    43    1
    47     9    44    1
    48     9    45    1
    49    11    46    1
    50    13    47    1
    51    17    48    1
    52    23    49    1
    53    23    50    1
    54    23    51    1
    55    24    52    1
    56    24    53    1
    57    24    54    1
    58    25    55    1
    59    25    56    1
    60    25    57    1
    61    26    58    1
    62    28    59    1
    63    29    60    1
    64    34    61    1
    65    34    62    1
