
     RDKit          3D

 57 59  0  0  0  0  0  0  0  0999 V2000
   -4.4923   -1.3883   -1.9541 C   0  0  0  0  0  0  0  0  0  0  0  0
   -4.3668   -0.8254   -0.5398 C   0  0  0  0  0  0  0  0  0  0  0  0
   -2.9924   -0.3013   -0.3529 C   0  0  0  0  0  0  0  0  0  0  0  0
   -2.1755   -0.7984    0.5980 C   0  0  0  0  0  0  0  0  0  0  0  0
   -2.6683   -1.8626    1.4625 C   0  0  0  0  0  0  0  0  0  0  0  0
   -1.9881   -3.0595    1.5512 C   0  0  0  0  0  0  0  0  0  0  0  0
   -2.3911   -4.0671    2.4075 C   0  0  0  0  0  0  0  0  0  0  0  0
   -3.4969   -3.8952    3.2027 C   0  0  0  0  0  0  0  0  0  0  0  0
   -4.1890   -2.7142    3.1323 C   0  0  0  0  0  0  0  0  0  0  0  0
   -3.7684   -1.7370    2.2781 C   0  0  0  0  0  0  0  0  0  0  0  0
   -0.7931   -0.3133    0.7682 C   0  0  0  0  0  0  0  0  0  0  0  0
    0.0461   -0.0887   -0.2794 C   0  0  0  0  0  0  0  0  0  0  0  0
    1.3534    0.3762   -0.1062 C   0  0  0  0  0  0  0  0  0  0  0  0
    1.8357    0.6228    1.1559 C   0  0  0  0  0  0  0  0  0  0  0  0
    3.0939    1.0721    1.4028 O   0  0  0  0  0  0  0  0  0  0  0  0
    4.1781    1.3752    0.6395 C   0  0  0  0  0  0  0  0  0  0  0  0
    4.7768    0.2464   -0.1245 C   0  0  0  0  0  0  0  0  0  0  0  0
    5.9255    0.6399   -0.9148 N   0  0  0  0  0  0  0  0  0  0  0  0
    7.0700    1.0111   -0.1492 C   0  0  0  0  0  0  0  0  0  0  0  0
    5.6275    1.4592   -2.0424 C   0  0  0  0  0  0  0  0  0  0  0  0
    0.9488    0.3823    2.2213 C   0  0  0  0  0  0  0  0  0  0  0  0
   -0.3267   -0.0716    2.0384 C   0  0  0  0  0  0  0  0  0  0  0  0
   -2.4798    0.8432   -1.0885 C   0  0  0  0  0  0  0  0  0  0  0  0
   -2.5178    0.9649   -2.4387 C   0  0  0  0  0  0  0  0  0  0  0  0
   -2.0488    2.1130   -3.1019 C   0  0  0  0  0  0  0  0  0  0  0  0
   -1.5346    3.1505   -2.3879 C   0  0  0  0  0  0  0  0  0  0  0  0
   -1.4808    3.0595   -1.0224 C   0  0  0  0  0  0  0  0  0  0  0  0
   -1.9422    1.9348   -0.3940 C   0  0  0  0  0  0  0  0  0  0  0  0
   -4.9434   -0.6830   -2.6570 H   0  0  0  0  0  0  0  0  0  0  0  0
   -5.2050   -2.2886   -1.9243 H   0  0  0  0  0  0  0  0  0  0  0  0
   -3.5512   -1.8430   -2.3127 H   0  0  0  0  0  0  0  0  0  0  0  0
   -5.1207   -0.0493   -0.3507 H   0  0  0  0  0  0  0  0  0  0  0  0
   -4.5023   -1.7167    0.1019 H   0  0  0  0  0  0  0  0  0  0  0  0
   -1.1107   -3.2220    0.9353 H   0  0  0  0  0  0  0  0  0  0  0  0
   -1.8593   -5.0185    2.4862 H   0  0  0  0  0  0  0  0  0  0  0  0
   -3.8417   -4.6669    3.8876 H   0  0  0  0  0  0  0  0  0  0  0  0
   -5.0706   -2.5037    3.7257 H   0  0  0  0  0  0  0  0  0  0  0  0
   -4.3274   -0.7873    2.2386 H   0  0  0  0  0  0  0  0  0  0  0  0
   -0.2574   -0.2713   -1.2977 H   0  0  0  0  0  0  0  0  0  0  0  0
    1.9545    0.5476   -0.9869 H   0  0  0  0  0  0  0  0  0  0  0  0
    3.9973    2.2256   -0.0848 H   0  0  0  0  0  0  0  0  0  0  0  0
    4.9807    1.8178    1.3165 H   0  0  0  0  0  0  0  0  0  0  0  0
    5.1804   -0.4923    0.6214 H   0  0  0  0  0  0  0  0  0  0  0  0
    4.0677   -0.2580   -0.7825 H   0  0  0  0  0  0  0  0  0  0  0  0
    7.9248    0.2859   -0.2702 H   0  0  0  0  0  0  0  0  0  0  0  0
    6.8623    1.1366    0.9273 H   0  0  0  0  0  0  0  0  0  0  0  0
    7.4573    1.9962   -0.5384 H   0  0  0  0  0  0  0  0  0  0  0  0
    4.7455    2.0927   -1.9676 H   0  0  0  0  0  0  0  0  0  0  0  0
    6.4920    2.1555   -2.2505 H   0  0  0  0  0  0  0  0  0  0  0  0
    5.5759    0.7835   -2.9389 H   0  0  0  0  0  0  0  0  0  0  0  0
    1.3680    0.5893    3.2141 H   0  0  0  0  0  0  0  0  0  0  0  0
   -0.9329   -0.2287    2.9161 H   0  0  0  0  0  0  0  0  0  0  0  0
   -2.8872    0.2162   -3.1162 H   0  0  0  0  0  0  0  0  0  0  0  0
   -2.0859    2.1938   -4.1810 H   0  0  0  0  0  0  0  0  0  0  0  0
   -1.1657    4.0516   -2.8748 H   0  0  0  0  0  0  0  0  0  0  0  0
   -1.0656    3.8961   -0.4807 H   0  0  0  0  0  0  0  0  0  0  0  0
   -1.8827    1.9125    0.6825 H   0  0  0  0  0  0  0  0  0  0  0  0
  1  2  1  0
  2  3  1  0
  3  4  2  0
  4  5  1  0
  5  6  2  0
  6  7  1  0
  7  8  2  0
  8  9  1  0
  9 10  2  0
  4 11  1  0
 11 12  2  0
 12 13  1  0
 13 14  2  0
 14 15  1  0
 15 16  1  0
 16 17  1  0
 17 18  1  0
 18 19  1  0
 18 20  1  0
 14 21  1  0
 21 22  2  0
  3 23  1  0
 23 24  2  0
 24 25  1  0
 25 26  2  0
 26 27  1  0
 27 28  2  0
 10  5  1  0
 22 11  1  0
 28 23  1  0
  1 29  1  0
  1 30  1  0
  1 31  1  0
  2 32  1  0
  2 33  1  0
  6 34  1  0
  7 35  1  0
  8 36  1  0
  9 37  1  0
 10 38  1  0
 12 39  1  0
 13 40  1  0
 16 41  1  0
 16 42  1  0
 17 43  1  0
 17 44  1  0
 19 45  1  0
 19 46  1  0
 19 47  1  0
 20 48  1  0
 20 49  1  0
 20 50  1  0
 21 51  1  0
 22 52  1  0
 24 53  1  0
 25 54  1  0
 26 55  1  0
 27 56  1  0
 28 57  1  0
M  END
$$$$
