@<TRIPOS>MOLECULE
*****
 57 59 0 0 0
SMALL
GASTEIGER

@<TRIPOS>ATOM
      1 C          -4.4923   -1.3883   -1.9541 C.3     1  UNL1       -0.0612
      2 C          -4.3668   -0.8254   -0.5398 C.3     1  UNL1       -0.0294
      3 C          -2.9924   -0.3013   -0.3529 C.2     1  UNL1       -0.0322
      4 C          -2.1755   -0.7984    0.5980 C.2     1  UNL1       -0.0070
      5 C          -2.6683   -1.8626    1.4625 C.ar    1  UNL1       -0.0170
      6 C          -1.9881   -3.0595    1.5512 C.ar    1  UNL1       -0.0540
      7 C          -2.3911   -4.0671    2.4075 C.ar    1  UNL1       -0.0612
      8 C          -3.4969   -3.8952    3.2027 C.ar    1  UNL1       -0.0617
      9 C          -4.1890   -2.7142    3.1323 C.ar    1  UNL1       -0.0612
     10 C          -3.7684   -1.7370    2.2781 C.ar    1  UNL1       -0.0540
     11 C          -0.7931   -0.3133    0.7682 C.ar    1  UNL1       -0.0168
     12 C           0.0461   -0.0887   -0.2794 C.ar    1  UNL1       -0.0506
     13 C           1.3534    0.3762   -0.1062 C.ar    1  UNL1       -0.0194
     14 C           1.8357    0.6228    1.1559 C.ar    1  UNL1        0.1206
     15 O           3.0939    1.0721    1.4028 O.3     1  UNL1       -0.4907
     16 C           4.1781    1.3752    0.6395 C.3     1  UNL1        0.1022
     17 C           4.7768    0.2464   -0.1245 C.3     1  UNL1        0.0325
     18 N           5.9255    0.6399   -0.9148 N.3     1  UNL1       -0.3051
     19 C           7.0700    1.0111   -0.1492 C.3     1  UNL1       -0.0129
     20 C           5.6275    1.4592   -2.0424 C.3     1  UNL1       -0.0129
     21 C           0.9488    0.3823    2.2213 C.ar    1  UNL1       -0.0194
     22 C          -0.3267   -0.0716    2.0384 C.ar    1  UNL1       -0.0506
     23 C          -2.4798    0.8432   -1.0885 C.ar    1  UNL1       -0.0213
     24 C          -2.5178    0.9649   -2.4387 C.ar    1  UNL1       -0.0543
     25 C          -2.0488    2.1130   -3.1019 C.ar    1  UNL1       -0.0612
     26 C          -1.5346    3.1505   -2.3879 C.ar    1  UNL1       -0.0617
     27 C          -1.4808    3.0595   -1.0224 C.ar    1  UNL1       -0.0612
     28 C          -1.9422    1.9348   -0.3940 C.ar    1  UNL1       -0.0543
     29 H          -4.9434   -0.6830   -2.6570 H       1  UNL1        0.0233
     30 H          -5.2050   -2.2886   -1.9243 H       1  UNL1        0.0233
     31 H          -3.5512   -1.8430   -2.3127 H       1  UNL1        0.0233
     32 H          -5.1207   -0.0493   -0.3507 H       1  UNL1        0.0311
     33 H          -4.5023   -1.7167    0.1019 H       1  UNL1        0.0311
     34 H          -1.1107   -3.2220    0.9353 H       1  UNL1        0.0624
     35 H          -1.8593   -5.0185    2.4862 H       1  UNL1        0.0618
     36 H          -3.8417   -4.6669    3.8876 H       1  UNL1        0.0618
     37 H          -5.0706   -2.5037    3.7257 H       1  UNL1        0.0618
     38 H          -4.3274   -0.7873    2.2386 H       1  UNL1        0.0624
     39 H          -0.2574   -0.2713   -1.2977 H       1  UNL1        0.0625
     40 H           1.9545    0.5476   -0.9869 H       1  UNL1        0.0654
     41 H           3.9973    2.2256   -0.0848 H       1  UNL1        0.0709
     42 H           4.9807    1.8178    1.3165 H       1  UNL1        0.0709
     43 H           5.1804   -0.4923    0.6214 H       1  UNL1        0.0460
     44 H           4.0677   -0.2580   -0.7825 H       1  UNL1        0.0460
     45 H           7.9248    0.2859   -0.2702 H       1  UNL1        0.0391
     46 H           6.8623    1.1366    0.9273 H       1  UNL1        0.0391
     47 H           7.4573    1.9962   -0.5384 H       1  UNL1        0.0391
     48 H           4.7455    2.0927   -1.9676 H       1  UNL1        0.0391
     49 H           6.4920    2.1555   -2.2505 H       1  UNL1        0.0391
     50 H           5.5759    0.7835   -2.9389 H       1  UNL1        0.0391
     51 H           1.3680    0.5893    3.2141 H       1  UNL1        0.0654
     52 H          -0.9329   -0.2287    2.9161 H       1  UNL1        0.0625
     53 H          -2.8872    0.2162   -3.1162 H       1  UNL1        0.0624
     54 H          -2.0859    2.1938   -4.1810 H       1  UNL1        0.0618
     55 H          -1.1657    4.0516   -2.8748 H       1  UNL1        0.0618
     56 H          -1.0656    3.8961   -0.4807 H       1  UNL1        0.0618
     57 H          -1.8827    1.9125    0.6825 H       1  UNL1        0.0624
@<TRIPOS>BOND
     1     1     2    1
     2     2     3    1
     3     3     4    2
     4     4     5    1
     5     5     6   ar
     6     6     7   ar
     7     7     8   ar
     8     8     9   ar
     9     9    10   ar
    10     4    11    1
    11    11    12   ar
    12    12    13   ar
    13    13    14   ar
    14    14    15    1
    15    15    16    1
    16    16    17    1
    17    17    18    1
    18    18    19    1
    19    18    20    1
    20    14    21   ar
    21    21    22   ar
    22     3    23    1
    23    23    24   ar
    24    24    25   ar
    25    25    26   ar
    26    26    27   ar
    27    27    28   ar
    28    10     5   ar
    29    22    11   ar
    30    28    23   ar
    31     1    29    1
    32     1    30    1
    33     1    31    1
    34     2    32    1
    35     2    33    1
    36     6    34    1
    37     7    35    1
    38     8    36    1
    39     9    37    1
    40    10    38    1
    41    12    39    1
    42    13    40    1
    43    16    41    1
    44    16    42    1
    45    17    43    1
    46    17    44    1
    47    19    45    1
    48    19    46    1
    49    19    47    1
    50    20    48    1
    51    20    49    1
    52    20    50    1
    53    21    51    1
    54    22    52    1
    55    24    53    1
    56    25    54    1
    57    26    55    1
    58    27    56    1
    59    28    57    1
