@<TRIPOS>MOLECULE
*****
 42 43 0 0 0
SMALL
GASTEIGER

@<TRIPOS>ATOM
      1 C           1.3475   -0.5905    1.9978 C.3     1  UNL1       -0.0242
      2 C           1.1245   -0.6668    0.5008 C.3     1  UNL1        0.1726
      3 O           1.8030   -1.7650    0.0145 O.3     1  UNL1       -0.3764
      4 C           1.5892    0.6002   -0.1203 C.3     1  UNL1        0.1265
      5 O           2.8871    0.9118    0.0682 O.3     1  UNL1       -0.4886
      6 C           4.1152    0.4915   -0.1789 C.ar    1  UNL1        0.1208
      7 C           4.7291   -0.5436   -0.8078 C.ar    1  UNL1       -0.0172
      8 C           6.0828   -0.7610   -0.9262 C.ar    1  UNL1       -0.0230
      9 C           6.8908    0.1863   -0.3362 C.ar    1  UNL1        0.1236
     10 F           8.2270   -0.0246   -0.4511 F       1  UNL1       -0.2055
     11 C           6.3841    1.2884    0.3343 C.ar    1  UNL1       -0.0230
     12 C           4.9900    1.4283    0.4052 C.ar    1  UNL1       -0.0172
     13 C          -0.3300   -0.9371    0.2036 C.2     1  UNL1        0.2520
     14 O          -0.7432   -1.9835   -0.3783 O.2     1  UNL1       -0.2722
     15 N          -1.2189    0.0952    0.6362 N.am    1  UNL1       -0.2830
     16 C          -2.6241    0.0066    0.4373 C.ar    1  UNL1        0.0344
     17 C          -3.1654    0.5250   -0.7403 C.ar    1  UNL1       -0.0222
     18 C          -4.5426    0.4455   -0.9505 C.ar    1  UNL1        0.1333
     19 C          -5.3056   -0.1503    0.0319 C.ar    1  UNL1        0.2849
     20 C          -4.8148   -0.6658    1.1901 C.ar    1  UNL1        0.0179
     21 C          -3.4539   -0.5748    1.3733 C.ar    1  UNL1       -0.0340
     22 N          -6.7290   -0.2593   -0.1349 N.pl3   1  UNL1        0.0802
     23 O          -7.7487    0.3950   -0.7809 O.co2   1  UNL1       -0.5760
     24 O          -7.3962   -1.1822    0.4136 O.2     1  UNL1        0.0415
     25 C          -5.1292    0.9954   -2.2019 C.3     1  UNL1        0.4237
     26 F          -4.1144    1.5243   -2.9888 F       1  UNL1       -0.1656
     27 F          -6.0533    1.9923   -1.9095 F       1  UNL1       -0.1656
     28 F          -5.7646    0.0149   -2.9102 F       1  UNL1       -0.1656
     29 H           1.4188    0.4947    2.2907 H       1  UNL1        0.0263
     30 H           0.5451   -1.1147    2.5213 H       1  UNL1        0.0263
     31 H           2.3178   -1.0811    2.2082 H       1  UNL1        0.0263
     32 H           1.9857   -2.4574    0.7019 H       1  UNL1        0.2109
     33 H           1.2410    0.6608   -1.1959 H       1  UNL1        0.0731
     34 H           0.9650    1.4269    0.3620 H       1  UNL1        0.0731
     35 H           4.0590   -1.2341   -1.2535 H       1  UNL1        0.0655
     36 H           6.4214   -1.6229   -1.4511 H       1  UNL1        0.0647
     37 H           7.1371    1.9408    0.7425 H       1  UNL1        0.0647
     38 H           4.7865    2.3500    0.9684 H       1  UNL1        0.0655
     39 H          -0.8985    0.9637    1.1169 H       1  UNL1        0.1549
     40 H          -2.5564    0.9907   -1.5051 H       1  UNL1        0.0644
     41 H          -5.4392   -1.1317    1.9510 H       1  UNL1        0.0686
     42 H          -3.0200   -0.9816    2.2997 H       1  UNL1        0.0638
@<TRIPOS>UNITY_ATOM_ATTR
22 1
charge 1
23 1
charge -1
@<TRIPOS>BOND
     1     1     2    1
     2     2     3    1
     3     2     4    1
     4     4     5    1
     5     5     6    1
     6     6     7   ar
     7     7     8   ar
     8     8     9   ar
     9     9    10    1
    10     9    11   ar
    11    11    12   ar
    12     2    13    1
    13    13    14    2
    14    13    15   am
    15    15    16    1
    16    16    17   ar
    17    17    18   ar
    18    18    19   ar
    19    19    20   ar
    20    20    21   ar
    21    19    22    1
    22    22    23    1
    23    22    24    2
    24    18    25    1
    25    25    26    1
    26    25    27    1
    27    25    28    1
    28    12     6   ar
    29    21    16   ar
    30     1    29    1
    31     1    30    1
    32     1    31    1
    33     3    32    1
    34     4    33    1
    35     4    34    1
    36     7    35    1
    37     8    36    1
    38    11    37    1
    39    12    38    1
    40    15    39    1
    41    17    40    1
    42    20    41    1
    43    21    42    1
