@<TRIPOS>MOLECULE
*****
 32 34 0 0 0
SMALL
GASTEIGER

@<TRIPOS>ATOM
      1 C          -0.2899   -2.3403   -0.0483 C.3     1  UNL1       -0.0358
      2 C           0.1560   -0.8747   -0.2069 C.3     1  UNL1        0.1351
      3 C           1.6364   -0.8480   -0.2427 C.3     1  UNL1        0.0703
      4 N           2.2690    0.4126   -0.3838 N.ar    1  UNL1       -0.2495
      5 C           2.6719    1.2413    0.5855 C.ar    1  UNL1        0.0455
      6 C           3.2287    2.3501    0.0039 C.ar    1  UNL1        0.0693
      7 N           3.1497    2.1655   -1.3242 N.ar    1  UNL1       -0.1380
      8 N           2.5696    0.9950   -1.5272 N.ar    1  UNL1       -0.0657
      9 C          -0.4658    0.0086    0.7956 C.3     1  UNL1        0.1508
     10 C          -0.7196   -0.8227    2.0287 C.2     1  UNL1        0.3278
     11 O          -1.8738   -0.9116    2.5246 O.2     1  UNL1       -0.2488
     12 O           0.2928   -1.5144    2.6594 O.3     1  UNL1       -0.4793
     13 N          -1.6428    0.6210    0.3274 N.am    1  UNL1       -0.2632
     14 C          -2.7352    1.4929    0.2904 C.2     1  UNL1        0.2212
     15 O          -3.4665    2.0644    1.1289 O.2     1  UNL1       -0.2754
     16 C          -2.6649    1.4580   -1.2030 C.3     1  UNL1        0.0629
     17 C          -2.1480    0.0956   -0.9224 C.3     1  UNL1        0.1536
     18 S          -0.5994   -0.3377   -1.7248 S.O2    1  UNL1       -0.0022
     19 O          -0.7838   -1.4369   -2.6999 O.2     1  UNL1       -0.1719
     20 O           0.0011    0.8919   -2.2740 O.2     1  UNL1       -0.1719
     21 H          -1.3815   -2.4139   -0.0076 H       1  UNL1        0.0252
     22 H           0.2547   -2.8515    0.7414 H       1  UNL1        0.0252
     23 H           0.0202   -2.8231   -1.0199 H       1  UNL1        0.0252
     24 H           1.9917   -1.3705    0.6941 H       1  UNL1        0.0532
     25 H           1.9972   -1.5063   -1.0693 H       1  UNL1        0.0532
     26 H           2.6082    1.1266    1.6647 H       1  UNL1        0.0842
     27 H           3.6575    3.2223    0.5113 H       1  UNL1        0.0864
     28 H           0.3259    0.7403    1.1360 H       1  UNL1        0.0640
     29 H           0.3097   -1.6763    3.6782 H       1  UNL1        0.2951
     30 H          -1.8892    2.1259   -1.6123 H       1  UNL1        0.0393
     31 H          -3.6349    1.4409   -1.7179 H       1  UNL1        0.0393
     32 H          -2.8451   -0.7250   -0.7858 H       1  UNL1        0.0750
@<TRIPOS>BOND
     1     2     1    1
     2     2     3    1
     3     3     4    1
     4     4     5   ar
     5     5     6   ar
     6     6     7   ar
     7     7     8   ar
     8     2     9    1
     9     9    10    1
    10    10    11    2
    11    10    12    1
    12     9    13    1
    13    13    14   am
    14    14    15    2
    15    14    16    1
    16    16    17    1
    17    17    18    1
    18    18    19    2
    19    18    20    2
    20    18     2    1
    21     8     4   ar
    22    17    13    1
    23     1    21    1
    24     1    22    1
    25     1    23    1
    26     3    24    1
    27     3    25    1
    28     5    26    1
    29     6    27    1
    30     9    28    1
    31    12    29    1
    32    16    30    1
    33    16    31    1
    34    17    32    1
