
     RDKit          3D

 32 34  0  0  0  0  0  0  0  0999 V2000
   -0.2899   -2.3403   -0.0483 C   0  0  0  0  0  0  0  0  0  0  0  0
    0.1560   -0.8747   -0.2069 C   0  0  2  0  0  0  0  0  0  0  0  0
    1.6364   -0.8480   -0.2427 C   0  0  0  0  0  0  0  0  0  0  0  0
    2.2690    0.4126   -0.3838 N   0  0  0  0  0  0  0  0  0  0  0  0
    2.6719    1.2413    0.5855 C   0  0  0  0  0  0  0  0  0  0  0  0
    3.2287    2.3501    0.0039 C   0  0  0  0  0  0  0  0  0  0  0  0
    3.1497    2.1655   -1.3242 N   0  0  0  0  0  0  0  0  0  0  0  0
    2.5696    0.9950   -1.5272 N   0  0  0  0  0  0  0  0  0  0  0  0
   -0.4658    0.0086    0.7956 C   0  0  2  0  0  0  0  0  0  0  0  0
   -0.7196   -0.8227    2.0287 C   0  0  0  0  0  0  0  0  0  0  0  0
   -1.8738   -0.9116    2.5246 O   0  0  0  0  0  0  0  0  0  0  0  0
    0.2928   -1.5144    2.6594 O   0  0  0  0  0  0  0  0  0  0  0  0
   -1.6428    0.6210    0.3274 N   0  0  0  0  0  0  0  0  0  0  0  0
   -2.7352    1.4929    0.2904 C   0  0  0  0  0  0  0  0  0  0  0  0
   -3.4665    2.0644    1.1289 O   0  0  0  0  0  0  0  0  0  0  0  0
   -2.6649    1.4580   -1.2030 C   0  0  0  0  0  0  0  0  0  0  0  0
   -2.1480    0.0956   -0.9224 C   0  0  1  0  0  0  0  0  0  0  0  0
   -0.5994   -0.3377   -1.7248 S   0  0  0  0  0  6  0  0  0  0  0  0
   -0.7838   -1.4369   -2.6999 O   0  0  0  0  0  0  0  0  0  0  0  0
    0.0011    0.8919   -2.2740 O   0  0  0  0  0  0  0  0  0  0  0  0
   -1.3815   -2.4139   -0.0076 H   0  0  0  0  0  0  0  0  0  0  0  0
    0.2547   -2.8515    0.7414 H   0  0  0  0  0  0  0  0  0  0  0  0
    0.0202   -2.8231   -1.0199 H   0  0  0  0  0  0  0  0  0  0  0  0
    1.9917   -1.3705    0.6941 H   0  0  0  0  0  0  0  0  0  0  0  0
    1.9972   -1.5063   -1.0693 H   0  0  0  0  0  0  0  0  0  0  0  0
    2.6082    1.1266    1.6647 H   0  0  0  0  0  0  0  0  0  0  0  0
    3.6575    3.2223    0.5113 H   0  0  0  0  0  0  0  0  0  0  0  0
    0.3259    0.7403    1.1360 H   0  0  0  0  0  0  0  0  0  0  0  0
    0.3097   -1.6763    3.6782 H   0  0  0  0  0  0  0  0  0  0  0  0
   -1.8892    2.1259   -1.6123 H   0  0  0  0  0  0  0  0  0  0  0  0
   -3.6349    1.4409   -1.7179 H   0  0  0  0  0  0  0  0  0  0  0  0
   -2.8451   -0.7250   -0.7858 H   0  0  0  0  0  0  0  0  0  0  0  0
  2  1  1  1
  2  3  1  0
  3  4  1  0
  4  5  1  0
  5  6  2  0
  6  7  1  0
  7  8  2  0
  2  9  1  0
  9 10  1  0
 10 11  2  0
 10 12  1  0
  9 13  1  0
 13 14  1  0
 14 15  2  0
 14 16  1  0
 16 17  1  0
 17 18  1  0
 18 19  2  0
 18 20  2  0
 18  2  1  0
  8  4  1  0
 17 13  1  0
  1 21  1  0
  1 22  1  0
  1 23  1  0
  3 24  1  0
  3 25  1  0
  5 26  1  0
  6 27  1  0
  9 28  1  1
 12 29  1  0
 16 30  1  0
 16 31  1  0
 17 32  1  1
M  END
$$$$
