@<TRIPOS>MOLECULE
*****
 73 76 0 0 0
SMALL
GASTEIGER

@<TRIPOS>ATOM
      1 C          -0.5943    0.4908    3.3688 C.3     1  UNL1        0.0084
      2 N          -0.5928    0.4666    1.9168 N.am    1  UNL1       -0.2718
      3 C          -1.7310    0.6415    1.0871 C.2     1  UNL1        0.2296
      4 O          -1.2571    0.5413   -0.0726 O.2     1  UNL1       -0.2743
      5 C          -3.1389    0.8830    1.4114 C.3     1  UNL1        0.0667
      6 C          -3.8118   -0.1919    2.2113 C.3     1  UNL1       -0.0474
      7 C          -3.3214    2.2131    2.1248 C.3     1  UNL1       -0.0474
      8 C          -3.8926    0.9271    0.1023 C.ar    1  UNL1       -0.0319
      9 C          -4.8106    1.9549   -0.0991 C.ar    1  UNL1       -0.0459
     10 C          -5.4962    1.9772   -1.3051 C.ar    1  UNL1        0.0556
     11 C          -5.3102    1.0288   -2.3121 C.ar    1  UNL1       -0.0385
     12 C          -4.3904    0.0138   -2.0881 C.ar    1  UNL1        0.0556
     13 C          -3.7184   -0.0027   -0.8987 C.ar    1  UNL1       -0.0459
     14 C          -4.1802   -1.0034   -3.1509 C.3     1  UNL1        0.4174
     15 F          -3.2902   -0.6008   -4.1233 F       1  UNL1       -0.1659
     16 F          -3.7786   -2.2148   -2.5692 F       1  UNL1       -0.1659
     17 F          -5.3759   -1.2665   -3.7728 F       1  UNL1       -0.1659
     18 C          -6.4969    3.0202   -1.6337 C.3     1  UNL1        0.4174
     19 F          -6.2734    4.1517   -0.8643 F       1  UNL1       -0.1659
     20 F          -6.3038    3.4001   -2.9437 F       1  UNL1       -0.1659
     21 F          -7.7946    2.5935   -1.4275 F       1  UNL1       -0.1659
     22 C           0.6736    0.2485    1.3576 C.ar    1  UNL1        0.0620
     23 C           1.3344    1.4489    1.0717 C.ar    1  UNL1        0.0517
     24 N           2.5663    1.5455    0.5437 N.ar    1  UNL1       -0.2384
     25 C           3.2869    0.4270    0.2372 C.ar    1  UNL1        0.1220
     26 C           2.6630   -0.7729    0.5072 C.ar    1  UNL1       -0.0122
     27 C           1.3996   -0.8824    1.0489 C.ar    1  UNL1        0.0085
     28 C           0.7174   -2.1320    1.3414 C.ar    1  UNL1       -0.0130
     29 C           0.7678   -2.7204    2.6081 C.ar    1  UNL1       -0.0537
     30 C           0.1468   -3.8935    2.9795 C.ar    1  UNL1       -0.0612
     31 C          -0.5920   -4.5500    2.0179 C.ar    1  UNL1       -0.0615
     32 C          -0.6974   -4.0330    0.7211 C.ar    1  UNL1       -0.0583
     33 C          -0.0406   -2.8529    0.4435 C.ar    1  UNL1       -0.0427
     34 C          -0.1714   -2.3668   -0.9394 C.3     1  UNL1       -0.0391
     35 N           4.5769    0.5258   -0.3169 N.pl3   1  UNL1       -0.3127
     36 C           5.4471   -0.5708   -0.6844 C.3     1  UNL1        0.0263
     37 C           5.6650   -0.4512   -2.1932 C.3     1  UNL1        0.0144
     38 N           6.2676    0.8104   -2.4833 N.3     1  UNL1       -0.3024
     39 C           7.6791    0.8107   -2.2654 C.3     1  UNL1       -0.0126
     40 C           5.5618    1.9616   -2.0152 C.3     1  UNL1        0.0144
     41 C           5.1371    1.8388   -0.5679 C.3     1  UNL1        0.0263
     42 H           0.2068   -0.1523    3.7988 H       1  UNL1        0.0433
     43 H          -0.3223    1.5341    3.7112 H       1  UNL1        0.0433
     44 H          -1.5814    0.2829    3.8134 H       1  UNL1        0.0433
     45 H          -4.8967   -0.3243    1.9118 H       1  UNL1        0.0243
     46 H          -3.9065    0.0987    3.2964 H       1  UNL1        0.0243
     47 H          -3.3814   -1.2035    2.0902 H       1  UNL1        0.0243
     48 H          -4.3190    2.2816    2.5524 H       1  UNL1        0.0243
     49 H          -2.5663    2.2609    2.9299 H       1  UNL1        0.0243
     50 H          -3.1484    3.0174    1.3576 H       1  UNL1        0.0243
     51 H          -5.0191    2.7221    0.6112 H       1  UNL1        0.0626
     52 H          -5.8284    1.0321   -3.2414 H       1  UNL1        0.0629
     53 H          -3.0128   -0.8073   -0.7605 H       1  UNL1        0.0626
     54 H           0.9206    2.4545    1.2483 H       1  UNL1        0.0849
     55 H           3.1524   -1.6899    0.3010 H       1  UNL1        0.0658
     56 H           1.3395   -2.2357    3.3951 H       1  UNL1        0.0624
     57 H           0.2169   -4.2996    3.9575 H       1  UNL1        0.0618
     58 H          -1.1054   -5.4748    2.2356 H       1  UNL1        0.0618
     59 H          -1.2814   -4.5636   -0.0190 H       1  UNL1        0.0620
     60 H          -1.2035   -2.2729   -1.3066 H       1  UNL1        0.0278
     61 H           0.3601   -3.1052   -1.6111 H       1  UNL1        0.0278
     62 H           0.3482   -1.4115   -1.1474 H       1  UNL1        0.0278
     63 H           5.0663   -1.5524   -0.3856 H       1  UNL1        0.0477
     64 H           6.4335   -0.3375   -0.1885 H       1  UNL1        0.0477
     65 H           4.6973   -0.5669   -2.6776 H       1  UNL1        0.0442
     66 H           6.3952   -1.2320   -2.5145 H       1  UNL1        0.0442
     67 H           8.0001    0.5489   -1.2350 H       1  UNL1        0.0391
     68 H           8.0688    1.8380   -2.5188 H       1  UNL1        0.0391
     69 H           8.1349    0.1258   -3.0233 H       1  UNL1        0.0391
     70 H           6.2787    2.8224   -2.0602 H       1  UNL1        0.0442
     71 H           4.6874    2.1794   -2.6530 H       1  UNL1        0.0442
     72 H           6.0110    1.9540    0.1061 H       1  UNL1        0.0477
     73 H           4.4256    2.6615   -0.3476 H       1  UNL1        0.0477
@<TRIPOS>BOND
     1     1     2    1
     2     2     3   am
     3     3     4    2
     4     3     5    1
     5     5     6    1
     6     5     7    1
     7     5     8    1
     8     8     9   ar
     9     9    10   ar
    10    10    11   ar
    11    11    12   ar
    12    12    13   ar
    13    12    14    1
    14    14    15    1
    15    14    16    1
    16    14    17    1
    17    10    18    1
    18    18    19    1
    19    18    20    1
    20    18    21    1
    21     2    22    1
    22    22    23   ar
    23    23    24   ar
    24    24    25   ar
    25    25    26   ar
    26    26    27   ar
    27    27    28    1
    28    28    29   ar
    29    29    30   ar
    30    30    31   ar
    31    31    32   ar
    32    32    33   ar
    33    33    34    1
    34    25    35    1
    35    35    36    1
    36    36    37    1
    37    37    38    1
    38    38    39    1
    39    38    40    1
    40    40    41    1
    41    13     8   ar
    42    27    22   ar
    43    33    28   ar
    44    41    35    1
    45     1    42    1
    46     1    43    1
    47     1    44    1
    48     6    45    1
    49     6    46    1
    50     6    47    1
    51     7    48    1
    52     7    49    1
    53     7    50    1
    54     9    51    1
    55    11    52    1
    56    13    53    1
    57    23    54    1
    58    26    55    1
    59    29    56    1
    60    30    57    1
    61    31    58    1
    62    32    59    1
    63    34    60    1
    64    34    61    1
    65    34    62    1
    66    36    63    1
    67    36    64    1
    68    37    65    1
    69    37    66    1
    70    39    67    1
    71    39    68    1
    72    39    69    1
    73    40    70    1
    74    40    71    1
    75    41    72    1
    76    41    73    1
