
     RDKit          3D

 45 48  0  0  0  0  0  0  0  0999 V2000
    6.6123   -3.8218   -0.8995 O   0  0  0  0  0  0  0  0  0  0  0  0
    6.1900   -2.7917   -1.5414 C   0  0  0  0  0  0  0  0  0  0  0  0
    5.4005   -1.9443   -0.8064 O   0  0  0  0  0  0  0  0  0  0  0  0
    4.9623   -2.0153    0.4762 C   0  0  0  0  0  0  0  0  0  0  0  0
    3.7144   -1.1207    0.5447 C   0  0  0  0  0  0  0  0  0  0  0  0
    2.7354   -0.4438    0.6010 C   0  0  0  0  0  0  0  0  0  0  0  0
    1.5328    0.3867    0.6953 C   0  0  0  0  0  0  0  0  0  0  0  0
    1.0920    0.7610    2.4229 S   0  0  0  0  0  0  0  0  0  0  0  0
   -0.4324    1.7306    2.3478 C   0  0  0  0  0  0  0  0  0  0  0  0
   -0.6432    3.0337    2.2761 N   0  0  0  0  0  0  0  0  0  0  0  0
   -1.9592    3.2195    2.2460 N   0  0  0  0  0  0  0  0  0  0  0  0
   -2.5801    2.0398    2.2957 C   0  0  0  0  0  0  0  0  0  0  0  0
   -3.9900    1.7372    2.2820 C   0  0  0  0  0  0  0  0  0  0  0  0
   -4.4299    0.4311    2.3234 C   0  0  0  0  0  0  0  0  0  0  0  0
   -5.7872    0.1766    2.3287 C   0  0  0  0  0  0  0  0  0  0  0  0
   -6.7533    1.1421    2.2936 C   0  0  0  0  0  0  0  0  0  0  0  0
   -8.1028    0.8842    2.3262 C   0  0  0  0  0  0  0  0  0  0  0  0
   -9.0418    1.9137    2.3154 C   0  0  0  0  0  0  0  0  0  0  0  0
   -8.5614    3.1779    2.2674 C   0  0  0  0  0  0  0  0  0  0  0  0
   -7.2265    3.4933    2.2339 C   0  0  0  0  0  0  0  0  0  0  0  0
   -6.2845    2.4669    2.2505 C   0  0  0  0  0  0  0  0  0  0  0  0
   -4.9551    2.7563    2.2452 C   0  0  0  0  0  0  0  0  0  0  0  0
   -1.6296    1.1413    2.3590 O   0  0  0  0  0  0  0  0  0  0  0  0
    6.5342   -2.6045   -2.8970 C   0  0  0  0  0  0  0  0  0  0  0  0
    7.2697   -3.6072   -3.5575 C   0  0  0  0  0  0  0  0  0  0  0  0
    7.6099   -3.5356   -4.8950 C   0  0  0  0  0  0  0  0  0  0  0  0
    7.2292   -2.4551   -5.6294 C   0  0  0  0  0  0  0  0  0  0  0  0
    7.5672   -2.4060   -6.9619 F   0  0  0  0  0  0  0  0  0  0  0  0
    6.5144   -1.4425   -5.0532 C   0  0  0  0  0  0  0  0  0  0  0  0
    6.1833   -1.5283   -3.7232 C   0  0  0  0  0  0  0  0  0  0  0  0
    4.6991   -2.9553    0.9245 H   0  0  0  0  0  0  0  0  0  0  0  0
    5.6959   -1.4809    1.1486 H   0  0  0  0  0  0  0  0  0  0  0  0
    0.6994   -0.1067    0.1582 H   0  0  0  0  0  0  0  0  0  0  0  0
    1.6963    1.3814    0.1980 H   0  0  0  0  0  0  0  0  0  0  0  0
   -3.7141   -0.3870    2.3445 H   0  0  0  0  0  0  0  0  0  0  0  0
   -6.1324   -0.8686    2.3592 H   0  0  0  0  0  0  0  0  0  0  0  0
   -8.4410   -0.1269    2.3641 H   0  0  0  0  0  0  0  0  0  0  0  0
  -10.0953    1.6605    2.3484 H   0  0  0  0  0  0  0  0  0  0  0  0
   -9.2994    3.9888    2.2611 H   0  0  0  0  0  0  0  0  0  0  0  0
   -6.8599    4.4913    2.1847 H   0  0  0  0  0  0  0  0  0  0  0  0
   -4.6013    3.7519    2.2126 H   0  0  0  0  0  0  0  0  0  0  0  0
    7.5773   -4.4783   -2.9742 H   0  0  0  0  0  0  0  0  0  0  0  0
    8.1742   -4.3456   -5.3649 H   0  0  0  0  0  0  0  0  0  0  0  0
    6.2168   -0.5747   -5.6564 H   0  0  0  0  0  0  0  0  0  0  0  0
    5.6140   -0.7254   -3.2239 H   0  0  0  0  0  0  0  0  0  0  0  0
  1  2  2  0
  2  3  1  0
  3  4  1  0
  4  5  1  0
  5  6  3  0
  6  7  1  0
  7  8  1  0
  8  9  1  0
  9 10  2  0
 10 11  1  0
 11 12  2  0
 12 13  1  0
 13 14  2  0
 14 15  1  0
 15 16  2  0
 16 17  1  0
 17 18  2  0
 18 19  1  0
 19 20  2  0
 20 21  1  0
 21 22  2  0
 12 23  1  0
  2 24  1  0
 24 25  2  0
 25 26  1  0
 26 27  2  0
 27 28  1  0
 27 29  1  0
 29 30  2  0
 23  9  1  0
 30 24  1  0
 22 13  1  0
 21 16  1  0
  4 31  1  0
  4 32  1  0
  7 33  1  0
  7 34  1  0
 14 35  1  0
 15 36  1  0
 17 37  1  0
 18 38  1  0
 19 39  1  0
 20 40  1  0
 22 41  1  0
 25 42  1  0
 26 43  1  0
 29 44  1  0
 30 45  1  0
M  END
$$$$
