@<TRIPOS>MOLECULE
*****
 45 48 0 0 0
SMALL
GASTEIGER

@<TRIPOS>ATOM
      1 O           6.6123   -3.8218   -0.8995 O.2     1  UNL1       -0.2449
      2 C           6.1900   -2.7917   -1.5414 C.2     1  UNL1        0.3401
      3 O           5.4005   -1.9443   -0.8064 O.3     1  UNL1       -0.4482
      4 C           4.9623   -2.0153    0.4762 C.3     1  UNL1        0.1531
      5 C           3.7144   -1.1207    0.5447 C.1     1  UNL1       -0.0605
      6 C           2.7354   -0.4438    0.6010 C.1     1  UNL1       -0.0877
      7 C           1.5328    0.3867    0.6953 C.3     1  UNL1        0.0642
      8 S           1.0920    0.7610    2.4229 S.3     1  UNL1       -0.0528
      9 C          -0.4324    1.7306    2.3478 C.ar    1  UNL1        0.2785
     10 N          -0.6432    3.0337    2.2761 N.ar    1  UNL1       -0.1006
     11 N          -1.9592    3.2195    2.2460 N.ar    1  UNL1       -0.1065
     12 C          -2.5801    2.0398    2.2957 C.ar    1  UNL1        0.2492
     13 C          -3.9900    1.7372    2.2820 C.ar    1  UNL1        0.0391
     14 C          -4.4299    0.4311    2.3234 C.ar    1  UNL1       -0.0489
     15 C          -5.7872    0.1766    2.3287 C.ar    1  UNL1       -0.0533
     16 C          -6.7533    1.1421    2.2936 C.ar    1  UNL1       -0.0178
     17 C          -8.1028    0.8842    2.3262 C.ar    1  UNL1       -0.0540
     18 C          -9.0418    1.9137    2.3154 C.ar    1  UNL1       -0.0612
     19 C          -8.5614    3.1779    2.2674 C.ar    1  UNL1       -0.0612
     20 C          -7.2265    3.4933    2.2339 C.ar    1  UNL1       -0.0540
     21 C          -6.2845    2.4669    2.2505 C.ar    1  UNL1       -0.0172
     22 C          -4.9551    2.7563    2.2452 C.ar    1  UNL1       -0.0417
     23 O          -1.6296    1.1413    2.3590 O.2     1  UNL1       -0.4110
     24 C           6.5342   -2.6045   -2.8970 C.ar    1  UNL1        0.0592
     25 C           7.2697   -3.6072   -3.5575 C.ar    1  UNL1       -0.0451
     26 C           7.6099   -3.5356   -4.8950 C.ar    1  UNL1       -0.0257
     27 C           7.2292   -2.4551   -5.6294 C.ar    1  UNL1        0.1234
     28 F           7.5672   -2.4060   -6.9619 F       1  UNL1       -0.2055
     29 C           6.5144   -1.4425   -5.0532 C.ar    1  UNL1       -0.0257
     30 C           6.1833   -1.5283   -3.7232 C.ar    1  UNL1       -0.0451
     31 H           4.6991   -2.9553    0.9245 H       1  UNL1        0.0838
     32 H           5.6959   -1.4809    1.1486 H       1  UNL1        0.0838
     33 H           0.6994   -0.1067    0.1582 H       1  UNL1        0.0515
     34 H           1.6963    1.3814    0.1980 H       1  UNL1        0.0515
     35 H          -3.7141   -0.3870    2.3445 H       1  UNL1        0.0625
     36 H          -6.1324   -0.8686    2.3592 H       1  UNL1        0.0624
     37 H          -8.4410   -0.1269    2.3641 H       1  UNL1        0.0624
     38 H         -10.0953    1.6605    2.3484 H       1  UNL1        0.0618
     39 H          -9.2994    3.9888    2.2611 H       1  UNL1        0.0618
     40 H          -6.8599    4.4913    2.1847 H       1  UNL1        0.0624
     41 H          -4.6013    3.7519    2.2126 H       1  UNL1        0.0631
     42 H           7.5773   -4.4783   -2.9742 H       1  UNL1        0.0627
     43 H           8.1742   -4.3456   -5.3649 H       1  UNL1        0.0646
     44 H           6.2168   -0.5747   -5.6564 H       1  UNL1        0.0646
     45 H           5.6140   -0.7254   -3.2239 H       1  UNL1        0.0627
@<TRIPOS>BOND
     1     1     2    2
     2     2     3    1
     3     3     4    1
     4     4     5    1
     5     5     6    3
     6     6     7    1
     7     7     8    1
     8     8     9    1
     9     9    10   ar
    10    10    11   ar
    11    11    12   ar
    12    12    13    1
    13    13    14   ar
    14    14    15   ar
    15    15    16   ar
    16    16    17   ar
    17    17    18   ar
    18    18    19   ar
    19    19    20   ar
    20    20    21   ar
    21    21    22   ar
    22    12    23   ar
    23     2    24    1
    24    24    25   ar
    25    25    26   ar
    26    26    27   ar
    27    27    28    1
    28    27    29   ar
    29    29    30   ar
    30    23     9   ar
    31    30    24   ar
    32    22    13   ar
    33    21    16   ar
    34     4    31    1
    35     4    32    1
    36     7    33    1
    37     7    34    1
    38    14    35    1
    39    15    36    1
    40    17    37    1
    41    18    38    1
    42    19    39    1
    43    20    40    1
    44    22    41    1
    45    25    42    1
    46    26    43    1
    47    29    44    1
    48    30    45    1
