@<TRIPOS>MOLECULE
*****
 50 54 0 0 0
SMALL
GASTEIGER

@<TRIPOS>ATOM
      1 C           1.5368   -3.8614    1.5581 C.3     1  UNL1       -0.0124
      2 N           1.1053   -3.2175    0.3702 N.3     1  UNL1       -0.3003
      3 C          -0.2547   -2.8893    0.2425 C.3     1  UNL1        0.0241
      4 C          -0.5438   -1.4962   -0.1009 C.ar    1  UNL1       -0.0278
      5 C          -1.8078   -0.9914    0.2034 C.ar    1  UNL1       -0.0360
      6 C          -2.1491    0.3214   -0.0944 C.ar    1  UNL1        0.0301
      7 N          -3.4384    0.8507    0.2106 N.pl3   1  UNL1       -0.3255
      8 C          -3.6944    2.2226   -0.1199 C.3     1  UNL1        0.0357
      9 C          -5.1082    2.6643    0.0397 C.3     1  UNL1        0.0634
     10 O          -5.8673    1.9032    0.8948 O.3     1  UNL1       -0.3767
     11 C          -5.8056    0.5835    0.4113 C.3     1  UNL1        0.0634
     12 C          -4.4493    0.0524    0.8244 C.3     1  UNL1        0.0357
     13 C          -1.1705    1.0798   -0.7011 C.ar    1  UNL1       -0.0404
     14 C           0.0930    0.5708   -1.0037 C.ar    1  UNL1       -0.0559
     15 C           0.3992   -0.7226   -0.6992 C.ar    1  UNL1       -0.0342
     16 C           1.7295   -1.2615   -1.0170 C.3     1  UNL1        0.0223
     17 C           2.7149   -0.2559   -0.4716 C.ar    1  UNL1       -0.0381
     18 C           2.9963   -0.3731    0.8710 C.ar    1  UNL1       -0.0569
     19 C           3.8927    0.5271    1.3950 C.ar    1  UNL1       -0.0472
     20 C           4.4533    1.4836    0.5630 C.ar    1  UNL1        0.0193
     21 S           5.6251    2.7786    0.8997 S.2     1  UNL1       -0.0966
     22 C           5.6781    3.4299   -0.8311 C.ar    1  UNL1       -0.0232
     23 C           4.8048    2.5921   -1.4568 C.ar    1  UNL1       -0.0470
     24 C           4.1858    1.6173   -0.7782 C.ar    1  UNL1       -0.0105
     25 C           3.2607    0.6779   -1.2884 C.ar    1  UNL1       -0.0497
     26 C           2.0614   -2.5792   -0.4315 C.3     1  UNL1        0.0098
     27 H           2.6442   -3.6999    1.6642 H       1  UNL1        0.0391
     28 H           0.9906   -3.5430    2.4805 H       1  UNL1        0.0391
     29 H           1.4343   -4.9735    1.4008 H       1  UNL1        0.0391
     30 H          -0.7588   -3.0884    1.2346 H       1  UNL1        0.0476
     31 H          -0.7678   -3.5790   -0.4665 H       1  UNL1        0.0476
     32 H          -2.5143   -1.6411    0.6749 H       1  UNL1        0.0639
     33 H          -2.9696    2.8461    0.4502 H       1  UNL1        0.0486
     34 H          -3.4347    2.3394   -1.2122 H       1  UNL1        0.0486
     35 H          -5.6239    2.8133   -0.9538 H       1  UNL1        0.0575
     36 H          -5.0794    3.7054    0.4771 H       1  UNL1        0.0575
     37 H          -5.8697    0.6108   -0.7146 H       1  UNL1        0.0575
     38 H          -6.6370    0.0197    0.8371 H       1  UNL1        0.0575
     39 H          -4.4290    0.1243    1.9504 H       1  UNL1        0.0486
     40 H          -4.4418   -1.0184    0.5089 H       1  UNL1        0.0486
     41 H          -1.3985    2.1224   -0.9534 H       1  UNL1        0.0636
     42 H           0.7886    1.2575   -1.4825 H       1  UNL1        0.0621
     43 H           1.8716   -1.2564   -2.1287 H       1  UNL1        0.0410
     44 H           2.5255   -1.1438    1.4873 H       1  UNL1        0.0621
     45 H           4.1805    0.5221    2.4290 H       1  UNL1        0.0629
     46 H           6.2894    4.2659   -1.1277 H       1  UNL1        0.0694
     47 H           4.6534    2.7878   -2.5694 H       1  UNL1        0.0629
     48 H           2.9554    0.6615   -2.3226 H       1  UNL1        0.0627
     49 H           2.3034   -3.2796   -1.2907 H       1  UNL1        0.0436
     50 H           3.0397   -2.5606    0.1372 H       1  UNL1        0.0436
@<TRIPOS>BOND
     1     1     2    1
     2     2     3    1
     3     3     4    1
     4     4     5   ar
     5     5     6   ar
     6     6     7    1
     7     7     8    1
     8     8     9    1
     9     9    10    1
    10    10    11    1
    11    11    12    1
    12     6    13   ar
    13    13    14   ar
    14    14    15   ar
    15    15    16    1
    16    16    17    1
    17    17    18   ar
    18    18    19   ar
    19    19    20   ar
    20    20    21   ar
    21    21    22   ar
    22    22    23   ar
    23    23    24   ar
    24    24    25   ar
    25    16    26    1
    26    26     2    1
    27    15     4   ar
    28    25    17   ar
    29    12     7    1
    30    24    20   ar
    31     1    27    1
    32     1    28    1
    33     1    29    1
    34     3    30    1
    35     3    31    1
    36     5    32    1
    37     8    33    1
    38     8    34    1
    39     9    35    1
    40     9    36    1
    41    11    37    1
    42    11    38    1
    43    12    39    1
    44    12    40    1
    45    13    41    1
    46    14    42    1
    47    16    43    1
    48    18    44    1
    49    19    45    1
    50    22    46    1
    51    23    47    1
    52    25    48    1
    53    26    49    1
    54    26    50    1
