@<TRIPOS>MOLECULE
*****
 68 71 0 0 0
SMALL
GASTEIGER

@<TRIPOS>ATOM
      1 C          -8.9708   -0.8152   -0.8222 C.3     1  UNL1        0.0804
      2 O          -8.6730    0.2646    0.0412 O.3     1  UNL1       -0.4796
      3 C          -7.3343    0.6084    0.3221 C.ar    1  UNL1        0.2144
      4 C          -7.0543    1.6610    1.1640 C.ar    1  UNL1        0.0003
      5 C          -5.7484    1.9903    1.4328 C.ar    1  UNL1       -0.0494
      6 C          -4.6733    1.2892    0.8775 C.ar    1  UNL1        0.0022
      7 C          -3.3001    1.7094    1.2003 C.3     1  UNL1        0.0924
      8 O          -3.3493    2.4968    2.3853 O.3     1  UNL1       -0.3839
      9 C          -2.7312    2.6481    0.1533 C.3     1  UNL1       -0.0184
     10 C          -1.8132    1.8724   -0.8060 C.3     1  UNL1       -0.0344
     11 C          -0.5883    1.5012   -0.0490 C.3     1  UNL1        0.0107
     12 N           0.3120    0.6312   -0.6986 N.3     1  UNL1       -0.2976
     13 C           0.8113    1.0978   -1.9512 C.3     1  UNL1        0.0009
     14 C           0.5232    0.0032   -2.9629 C.3     1  UNL1       -0.0205
     15 C           0.5669   -1.2255   -2.1177 C.3     1  UNL1        0.0370
     16 N           1.8974   -1.7606   -1.9577 N.am    1  UNL1       -0.3099
     17 C           2.2701   -3.0833   -2.2638 C.2     1  UNL1        0.2305
     18 O           1.3614   -3.8340   -2.7111 O.2     1  UNL1       -0.2741
     19 C           3.6170   -3.6741   -2.1156 C.3     1  UNL1        0.0884
     20 N           4.6074   -2.7957   -1.5711 N.am    1  UNL1       -0.3028
     21 C           4.5464   -2.2349   -0.2756 C.2     1  UNL1        0.2445
     22 O           3.5534   -2.5322    0.4717 O.2     1  UNL1       -0.2702
     23 C           5.5585   -1.3242    0.2743 C.ar    1  UNL1        0.0372
     24 C           6.6440   -0.8792   -0.4401 C.ar    1  UNL1       -0.0496
     25 C           7.5763   -0.0250    0.1100 C.ar    1  UNL1       -0.0605
     26 C           7.4426    0.4095    1.4045 C.ar    1  UNL1       -0.0501
     27 C           6.3492   -0.0283    2.1502 C.ar    1  UNL1        0.0555
     28 C           6.2427    0.4648    3.5460 C.3     1  UNL1        0.4174
     29 F           6.7642   -0.4762    4.4241 F       1  UNL1       -0.1659
     30 F           6.9956    1.6244    3.7200 F       1  UNL1       -0.1659
     31 F           4.9444    0.7956    3.8752 F       1  UNL1       -0.1659
     32 C           5.4509   -0.8707    1.5722 C.ar    1  UNL1       -0.0380
     33 C          -0.0269   -0.7390   -0.8125 C.3     1  UNL1        0.0176
     34 C          -0.9449    0.9332    1.2946 C.3     1  UNL1       -0.0344
     35 C          -2.4021    0.5456    1.4262 C.3     1  UNL1       -0.0184
     36 C          -5.0108    0.2532    0.0484 C.ar    1  UNL1        0.0373
     37 N          -6.3125   -0.0673   -0.2131 N.ar    1  UNL1       -0.2210
     38 H         -10.0771   -0.8739   -0.8979 H       1  UNL1        0.0660
     39 H          -8.4854   -0.6661   -1.8083 H       1  UNL1        0.0660
     40 H          -8.6488   -1.7696   -0.3404 H       1  UNL1        0.0660
     41 H          -7.8746    2.2137    1.6023 H       1  UNL1        0.0671
     42 H          -5.5487    2.8218    2.0973 H       1  UNL1        0.0623
     43 H          -3.5940    1.8668    3.1149 H       1  UNL1        0.2106
     44 H          -2.2141    3.5133    0.5770 H       1  UNL1        0.0297
     45 H          -3.5830    3.0059   -0.4589 H       1  UNL1        0.0297
     46 H          -2.4078    1.0352   -1.1861 H       1  UNL1        0.0281
     47 H          -1.5803    2.6255   -1.6157 H       1  UNL1        0.0281
     48 H          -0.0293    2.4636    0.1482 H       1  UNL1        0.0462
     49 H           0.2827    2.0458   -2.1979 H       1  UNL1        0.0427
     50 H           1.9005    1.3604   -1.9311 H       1  UNL1        0.0427
     51 H           1.2599   -0.0030   -3.7926 H       1  UNL1        0.0296
     52 H          -0.5215    0.1495   -3.3043 H       1  UNL1        0.0296
     53 H          -0.0767   -2.0009   -2.5707 H       1  UNL1        0.0511
     54 H           2.6323   -1.1120   -1.6004 H       1  UNL1        0.1491
     55 H           3.4916   -4.5146   -1.3701 H       1  UNL1        0.0558
     56 H           3.9030   -4.0925   -3.1004 H       1  UNL1        0.0558
     57 H           5.4571   -2.5281   -2.1518 H       1  UNL1        0.1495
     58 H           6.7930   -1.1911   -1.4609 H       1  UNL1        0.0625
     59 H           8.4346    0.3332   -0.4397 H       1  UNL1        0.0618
     60 H           8.1685    1.0826    1.8516 H       1  UNL1        0.0623
     61 H           4.6057   -1.1909    2.1929 H       1  UNL1        0.0631
     62 H          -1.1361   -0.8947   -0.9207 H       1  UNL1        0.0445
     63 H           0.2698   -1.3716    0.0545 H       1  UNL1        0.0445
     64 H          -0.3491    0.0137    1.5206 H       1  UNL1        0.0281
     65 H          -0.7366    1.6456    2.1183 H       1  UNL1        0.0281
     66 H          -2.5323    0.2225    2.4858 H       1  UNL1        0.0297
     67 H          -2.6841   -0.2892    0.7936 H       1  UNL1        0.0297
     68 H          -4.2207   -0.3358   -0.4280 H       1  UNL1        0.0834
@<TRIPOS>BOND
     1     1     2    1
     2     2     3    1
     3     3     4   ar
     4     4     5   ar
     5     5     6   ar
     6     6     7    1
     7     7     8    1
     8     7     9    1
     9     9    10    1
    10    10    11    1
    11    11    12    1
    12    12    13    1
    13    13    14    1
    14    14    15    1
    15    15    16    1
    16    16    17   am
    17    17    18    2
    18    17    19    1
    19    19    20    1
    20    20    21   am
    21    21    22    2
    22    21    23    1
    23    23    24   ar
    24    24    25   ar
    25    25    26   ar
    26    26    27   ar
    27    27    28    1
    28    28    29    1
    29    28    30    1
    30    28    31    1
    31    27    32   ar
    32    15    33    1
    33    11    34    1
    34    34    35    1
    35     6    36   ar
    36    36    37   ar
    37    37     3   ar
    38    35     7    1
    39    33    12    1
    40    32    23   ar
    41     1    38    1
    42     1    39    1
    43     1    40    1
    44     4    41    1
    45     5    42    1
    46     8    43    1
    47     9    44    1
    48     9    45    1
    49    10    46    1
    50    10    47    1
    51    11    48    1
    52    13    49    1
    53    13    50    1
    54    14    51    1
    55    14    52    1
    56    15    53    1
    57    16    54    1
    58    19    55    1
    59    19    56    1
    60    20    57    1
    61    24    58    1
    62    25    59    1
    63    26    60    1
    64    32    61    1
    65    33    62    1
    66    33    63    1
    67    34    64    1
    68    34    65    1
    69    35    66    1
    70    35    67    1
    71    36    68    1
