@<TRIPOS>MOLECULE
*****
 102 107 0 0 0
SMALL
GASTEIGER

@<TRIPOS>ATOM
      1 C          -3.6015    4.9991   -1.0262 C.2     1  UNL1       -0.1023
      2 C          -2.6379    5.6239   -0.3864 C.2     1  UNL1       -0.0854
      3 C          -1.7705    5.0097    0.6249 C.3     1  UNL1        0.0111
      4 C          -0.9006    5.9978    1.4146 C.3     1  UNL1       -0.0119
      5 C          -0.3155    4.9230    0.4843 C.3     1  UNL1        0.1384
      6 N           0.3701    3.8645    1.2142 N.am    1  UNL1       -0.2979
      7 C           0.8758    2.6922    0.5939 C.2     1  UNL1        0.2345
      8 O           0.7162    2.5694   -0.6472 O.2     1  UNL1       -0.2737
      9 C           1.5773    1.5957    1.3197 C.3     1  UNL1        0.1057
     10 C           2.9801    1.4311    0.8074 C.3     1  UNL1        0.0129
     11 C           2.9863    0.0075    0.1318 C.3     1  UNL1        0.1180
     12 O           4.1207   -0.5742    0.1035 O.3     1  UNL1       -0.4865
     13 C           5.1673   -1.2279   -0.3039 C.ar    1  UNL1        0.1322
     14 C           6.2848   -1.4477    0.5294 C.ar    1  UNL1        0.0067
     15 C           7.3891   -2.1165    0.1412 C.ar    1  UNL1        0.0751
     16 C           8.5577   -2.3189    1.0337 C.ar    1  UNL1        0.0005
     17 C           9.6495   -3.0000    0.5530 C.ar    1  UNL1       -0.0526
     18 C          10.7489   -3.1908    1.3506 C.ar    1  UNL1       -0.0611
     19 C          10.8137   -2.7219    2.6405 C.ar    1  UNL1       -0.0617
     20 C           9.7124   -2.0342    3.1277 C.ar    1  UNL1       -0.0611
     21 C           8.5937   -1.8419    2.3123 C.ar    1  UNL1       -0.0526
     22 N           7.4292   -2.6030   -1.1099 N.ar    1  UNL1       -0.2465
     23 C           6.3974   -2.4385   -1.9784 C.ar    1  UNL1        0.0752
     24 C           6.5273   -2.9893   -3.2619 C.ar    1  UNL1       -0.0356
     25 C           5.5091   -2.8609   -4.1805 C.ar    1  UNL1       -0.0597
     26 C           4.3901   -2.1743   -3.7594 C.ar    1  UNL1       -0.0610
     27 C           4.2368   -1.6264   -2.5148 C.ar    1  UNL1       -0.0491
     28 C           5.2722   -1.7608   -1.5928 C.ar    1  UNL1        0.0421
     29 C           1.9713   -0.6534    1.1408 C.3     1  UNL1        0.0526
     30 N           0.9350    0.2951    0.9788 N.am    1  UNL1       -0.2847
     31 C          -0.3970    0.2133    0.6042 C.2     1  UNL1        0.2369
     32 O          -1.0841    1.3716    0.6289 O.2     1  UNL1       -0.2735
     33 C          -1.2727   -0.8678    0.1760 C.3     1  UNL1        0.1019
     34 N          -2.6792   -0.3449    0.1053 N.am    1  UNL1       -0.3022
     35 C          -3.6718   -0.8204    0.9833 C.2     1  UNL1        0.2342
     36 O          -3.3715   -1.6977    1.8304 O.2     1  UNL1       -0.2738
     37 C          -5.0368   -0.2785    0.8909 C.3     1  UNL1        0.1021
     38 N          -5.0882    0.7602   -0.1458 N.am    1  UNL1       -0.3040
     39 C          -5.5196    0.5578   -1.4697 C.2     1  UNL1        0.2105
     40 C          -5.5322    1.7344   -2.4198 C.3     1  UNL1        0.0122
     41 O          -5.8967   -0.5329   -1.9207 O.2     1  UNL1       -0.2761
     42 C          -6.1254   -1.2880    0.6756 C.3     1  UNL1       -0.0141
     43 C          -7.4477   -0.5434    0.6392 C.3     1  UNL1       -0.0481
     44 C          -8.5717   -1.5152    0.3510 C.3     1  UNL1       -0.0527
     45 C          -8.7006   -2.4904    1.5174 C.3     1  UNL1       -0.0530
     46 C          -7.3942   -3.1453    1.7940 C.3     1  UNL1       -0.0527
     47 C          -6.2154   -2.1974    1.8955 C.3     1  UNL1       -0.0481
     48 C          -1.0032   -1.5648   -1.1026 C.3     1  UNL1       -0.0197
     49 C           0.2764   -2.3057   -1.2588 C.3     1  UNL1       -0.0605
     50 C          -1.1091   -0.6268   -2.3040 C.3     1  UNL1       -0.0605
     51 C           0.4176    5.5143   -0.6774 C.2     1  UNL1        0.3291
     52 O           1.4552    4.9805   -1.1162 O.2     1  UNL1       -0.2486
     53 O          -0.0235    6.6690   -1.3066 O.3     1  UNL1       -0.4791
     54 H          -4.1980    5.5139   -1.7562 H       1  UNL1        0.0532
     55 H          -3.8059    3.9604   -0.8217 H       1  UNL1        0.0532
     56 H          -2.4904    6.6891   -0.6396 H       1  UNL1        0.0570
     57 H          -2.2536    4.1694    1.1957 H       1  UNL1        0.0370
     58 H          -0.8619    7.0324    1.0814 H       1  UNL1        0.0298
     59 H          -0.9163    5.8039    2.5039 H       1  UNL1        0.0298
     60 H           0.5181    3.9370    2.2515 H       1  UNL1        0.1498
     61 H           1.5816    1.6727    2.3943 H       1  UNL1        0.0598
     62 H           3.7429    1.4151    1.5971 H       1  UNL1        0.0324
     63 H           3.2637    2.1836    0.0418 H       1  UNL1        0.0324
     64 H           2.3592    0.2110   -0.7831 H       1  UNL1        0.0749
     65 H           6.1881   -1.0344    1.5191 H       1  UNL1        0.0676
     66 H           9.5973   -3.3737   -0.4701 H       1  UNL1        0.0624
     67 H          11.5976   -3.7285    0.9523 H       1  UNL1        0.0618
     68 H          11.6727   -2.8609    3.2865 H       1  UNL1        0.0618
     69 H           9.7256   -1.6499    4.1389 H       1  UNL1        0.0618
     70 H           7.7688   -1.3081    2.7348 H       1  UNL1        0.0624
     71 H           7.4332   -3.5081   -3.5089 H       1  UNL1        0.0639
     72 H           5.5622   -3.2676   -5.1842 H       1  UNL1        0.0618
     73 H           3.5617   -2.0634   -4.4773 H       1  UNL1        0.0618
     74 H           3.3620   -1.1044   -2.2050 H       1  UNL1        0.0625
     75 H           2.4363   -0.4426    2.1499 H       1  UNL1        0.0501
     76 H           1.8228   -1.6856    0.9553 H       1  UNL1        0.0501
     77 H          -1.3171   -1.6360    0.9861 H       1  UNL1        0.0597
     78 H          -2.8789    0.3902   -0.6303 H       1  UNL1        0.1495
     79 H          -5.3407    0.2655    1.8326 H       1  UNL1        0.0597
     80 H          -4.7768    1.7471    0.1016 H       1  UNL1        0.1495
     81 H          -4.4745    2.0116   -2.6541 H       1  UNL1        0.0322
     82 H          -5.9818    1.3884   -3.3551 H       1  UNL1        0.0322
     83 H          -6.0853    2.5906   -1.9941 H       1  UNL1        0.0322
     84 H          -6.0234   -1.9389   -0.1846 H       1  UNL1        0.0323
     85 H          -7.5055    0.2899   -0.0389 H       1  UNL1        0.0269
     86 H          -7.6545   -0.1679    1.6829 H       1  UNL1        0.0269
     87 H          -8.4463   -2.0817   -0.5781 H       1  UNL1        0.0265
     88 H          -9.5228   -0.9565    0.2969 H       1  UNL1        0.0265
     89 H          -9.4278   -3.2623    1.2456 H       1  UNL1        0.0265
     90 H          -9.0819   -1.8966    2.3785 H       1  UNL1        0.0265
     91 H          -7.1998   -3.8955    0.9895 H       1  UNL1        0.0265
     92 H          -7.4344   -3.7045    2.7391 H       1  UNL1        0.0265
     93 H          -5.3189   -2.8518    1.9484 H       1  UNL1        0.0269
     94 H          -6.3262   -1.5549    2.7723 H       1  UNL1        0.0269
     95 H          -1.8248   -2.3364   -1.2618 H       1  UNL1        0.0318
     96 H           0.2395   -2.9833   -2.1764 H       1  UNL1        0.0233
     97 H           0.4786   -2.9976   -0.3894 H       1  UNL1        0.0233
     98 H           1.1798   -1.7037   -1.3998 H       1  UNL1        0.0233
     99 H          -2.0943   -0.1798   -2.4223 H       1  UNL1        0.0233
    100 H          -0.9293   -1.2546   -3.2022 H       1  UNL1        0.0233
    101 H          -0.3365    0.1562   -2.2325 H       1  UNL1        0.0233
    102 H           0.4212    6.9908   -2.1733 H       1  UNL1        0.2951
@<TRIPOS>BOND
     1     1     2    2
     2     2     3    1
     3     3     4    1
     4     4     5    1
     5     5     6    1
     6     6     7   am
     7     7     8    2
     8     7     9    1
     9     9    10    1
    10    10    11    1
    11    11    12    1
    12    12    13    1
    13    13    14   ar
    14    14    15   ar
    15    15    16    1
    16    16    17   ar
    17    17    18   ar
    18    18    19   ar
    19    19    20   ar
    20    20    21   ar
    21    15    22   ar
    22    22    23   ar
    23    23    24   ar
    24    24    25   ar
    25    25    26   ar
    26    26    27   ar
    27    27    28   ar
    28    11    29    1
    29    29    30    1
    30    30    31   am
    31    31    32    2
    32    31    33    1
    33    33    34    1
    34    34    35   am
    35    35    36    2
    36    35    37    1
    37    37    38    1
    38    38    39   am
    39    39    40    1
    40    39    41    2
    41    37    42    1
    42    42    43    1
    43    43    44    1
    44    44    45    1
    45    45    46    1
    46    46    47    1
    47    33    48    1
    48    48    49    1
    49    48    50    1
    50     5    51    1
    51    51    52    2
    52    51    53    1
    53     5     3    1
    54    30     9    1
    55    47    42    1
    56    28    13   ar
    57    21    16   ar
    58    28    23   ar
    59     1    54    1
    60     1    55    1
    61     2    56    1
    62     3    57    1
    63     4    58    1
    64     4    59    1
    65     6    60    1
    66     9    61    1
    67    10    62    1
    68    10    63    1
    69    11    64    1
    70    14    65    1
    71    17    66    1
    72    18    67    1
    73    19    68    1
    74    20    69    1
    75    21    70    1
    76    24    71    1
    77    25    72    1
    78    26    73    1
    79    27    74    1
    80    29    75    1
    81    29    76    1
    82    33    77    1
    83    34    78    1
    84    37    79    1
    85    38    80    1
    86    40    81    1
    87    40    82    1
    88    40    83    1
    89    42    84    1
    90    43    85    1
    91    43    86    1
    92    44    87    1
    93    44    88    1
    94    45    89    1
    95    45    90    1
    96    46    91    1
    97    46    92    1
    98    47    93    1
    99    47    94    1
   100    48    95    1
   101    49    96    1
   102    49    97    1
   103    49    98    1
   104    50    99    1
   105    50   100    1
   106    50   101    1
   107    53   102    1
