
     RDKit          3D

102107  0  0  0  0  0  0  0  0999 V2000
   -3.6015    4.9991   -1.0262 C   0  0  0  0  0  0  0  0  0  0  0  0
   -2.6379    5.6239   -0.3864 C   0  0  0  0  0  0  0  0  0  0  0  0
   -1.7705    5.0097    0.6249 C   0  0  2  0  0  0  0  0  0  0  0  0
   -0.9006    5.9978    1.4146 C   0  0  0  0  0  0  0  0  0  0  0  0
   -0.3155    4.9230    0.4843 C   0  0  1  0  0  0  0  0  0  0  0  0
    0.3701    3.8645    1.2142 N   0  0  0  0  0  0  0  0  0  0  0  0
    0.8758    2.6922    0.5939 C   0  0  0  0  0  0  0  0  0  0  0  0
    0.7162    2.5694   -0.6472 O   0  0  0  0  0  0  0  0  0  0  0  0
    1.5773    1.5957    1.3197 C   0  0  2  0  0  0  0  0  0  0  0  0
    2.9801    1.4311    0.8074 C   0  0  0  0  0  0  0  0  0  0  0  0
    2.9863    0.0075    0.1318 C   0  0  1  0  0  0  0  0  0  0  0  0
    4.1207   -0.5742    0.1035 O   0  0  0  0  0  0  0  0  0  0  0  0
    5.1673   -1.2279   -0.3039 C   0  0  0  0  0  0  0  0  0  0  0  0
    6.2848   -1.4477    0.5294 C   0  0  0  0  0  0  0  0  0  0  0  0
    7.3891   -2.1165    0.1412 C   0  0  0  0  0  0  0  0  0  0  0  0
    8.5577   -2.3189    1.0337 C   0  0  0  0  0  0  0  0  0  0  0  0
    9.6495   -3.0000    0.5530 C   0  0  0  0  0  0  0  0  0  0  0  0
   10.7489   -3.1908    1.3506 C   0  0  0  0  0  0  0  0  0  0  0  0
   10.8137   -2.7219    2.6405 C   0  0  0  0  0  0  0  0  0  0  0  0
    9.7124   -2.0342    3.1277 C   0  0  0  0  0  0  0  0  0  0  0  0
    8.5937   -1.8419    2.3123 C   0  0  0  0  0  0  0  0  0  0  0  0
    7.4292   -2.6030   -1.1099 N   0  0  0  0  0  0  0  0  0  0  0  0
    6.3974   -2.4385   -1.9784 C   0  0  0  0  0  0  0  0  0  0  0  0
    6.5273   -2.9893   -3.2619 C   0  0  0  0  0  0  0  0  0  0  0  0
    5.5091   -2.8609   -4.1805 C   0  0  0  0  0  0  0  0  0  0  0  0
    4.3901   -2.1743   -3.7594 C   0  0  0  0  0  0  0  0  0  0  0  0
    4.2368   -1.6264   -2.5148 C   0  0  0  0  0  0  0  0  0  0  0  0
    5.2722   -1.7608   -1.5928 C   0  0  0  0  0  0  0  0  0  0  0  0
    1.9713   -0.6534    1.1408 C   0  0  0  0  0  0  0  0  0  0  0  0
    0.9350    0.2951    0.9788 N   0  0  0  0  0  0  0  0  0  0  0  0
   -0.3970    0.2133    0.6042 C   0  0  0  0  0  0  0  0  0  0  0  0
   -1.0841    1.3716    0.6289 O   0  0  0  0  0  0  0  0  0  0  0  0
   -1.2727   -0.8678    0.1760 C   0  0  1  0  0  0  0  0  0  0  0  0
   -2.6792   -0.3449    0.1053 N   0  0  0  0  0  0  0  0  0  0  0  0
   -3.6718   -0.8204    0.9833 C   0  0  0  0  0  0  0  0  0  0  0  0
   -3.3715   -1.6977    1.8304 O   0  0  0  0  0  0  0  0  0  0  0  0
   -5.0368   -0.2785    0.8909 C   0  0  1  0  0  0  0  0  0  0  0  0
   -5.0882    0.7602   -0.1458 N   0  0  0  0  0  0  0  0  0  0  0  0
   -5.5196    0.5578   -1.4697 C   0  0  0  0  0  0  0  0  0  0  0  0
   -5.5322    1.7344   -2.4198 C   0  0  0  0  0  0  0  0  0  0  0  0
   -5.8967   -0.5329   -1.9207 O   0  0  0  0  0  0  0  0  0  0  0  0
   -6.1254   -1.2880    0.6756 C   0  0  0  0  0  0  0  0  0  0  0  0
   -7.4477   -0.5434    0.6392 C   0  0  0  0  0  0  0  0  0  0  0  0
   -8.5717   -1.5152    0.3510 C   0  0  0  0  0  0  0  0  0  0  0  0
   -8.7006   -2.4904    1.5174 C   0  0  0  0  0  0  0  0  0  0  0  0
   -7.3942   -3.1453    1.7940 C   0  0  0  0  0  0  0  0  0  0  0  0
   -6.2154   -2.1974    1.8955 C   0  0  0  0  0  0  0  0  0  0  0  0
   -1.0032   -1.5648   -1.1026 C   0  0  0  0  0  0  0  0  0  0  0  0
    0.2764   -2.3057   -1.2588 C   0  0  0  0  0  0  0  0  0  0  0  0
   -1.1091   -0.6268   -2.3040 C   0  0  0  0  0  0  0  0  0  0  0  0
    0.4176    5.5143   -0.6774 C   0  0  0  0  0  0  0  0  0  0  0  0
    1.4552    4.9805   -1.1162 O   0  0  0  0  0  0  0  0  0  0  0  0
   -0.0235    6.6690   -1.3066 O   0  0  0  0  0  0  0  0  0  0  0  0
   -4.1980    5.5139   -1.7562 H   0  0  0  0  0  0  0  0  0  0  0  0
   -3.8059    3.9604   -0.8217 H   0  0  0  0  0  0  0  0  0  0  0  0
   -2.4904    6.6891   -0.6396 H   0  0  0  0  0  0  0  0  0  0  0  0
   -2.2536    4.1694    1.1957 H   0  0  0  0  0  0  0  0  0  0  0  0
   -0.8619    7.0324    1.0814 H   0  0  0  0  0  0  0  0  0  0  0  0
   -0.9163    5.8039    2.5039 H   0  0  0  0  0  0  0  0  0  0  0  0
    0.5181    3.9370    2.2515 H   0  0  0  0  0  0  0  0  0  0  0  0
    1.5816    1.6727    2.3943 H   0  0  0  0  0  0  0  0  0  0  0  0
    3.7429    1.4151    1.5971 H   0  0  0  0  0  0  0  0  0  0  0  0
    3.2637    2.1836    0.0418 H   0  0  0  0  0  0  0  0  0  0  0  0
    2.3592    0.2110   -0.7831 H   0  0  0  0  0  0  0  0  0  0  0  0
    6.1881   -1.0344    1.5191 H   0  0  0  0  0  0  0  0  0  0  0  0
    9.5973   -3.3737   -0.4701 H   0  0  0  0  0  0  0  0  0  0  0  0
   11.5976   -3.7285    0.9523 H   0  0  0  0  0  0  0  0  0  0  0  0
   11.6727   -2.8609    3.2865 H   0  0  0  0  0  0  0  0  0  0  0  0
    9.7256   -1.6499    4.1389 H   0  0  0  0  0  0  0  0  0  0  0  0
    7.7688   -1.3081    2.7348 H   0  0  0  0  0  0  0  0  0  0  0  0
    7.4332   -3.5081   -3.5089 H   0  0  0  0  0  0  0  0  0  0  0  0
    5.5622   -3.2676   -5.1842 H   0  0  0  0  0  0  0  0  0  0  0  0
    3.5617   -2.0634   -4.4773 H   0  0  0  0  0  0  0  0  0  0  0  0
    3.3620   -1.1044   -2.2050 H   0  0  0  0  0  0  0  0  0  0  0  0
    2.4363   -0.4426    2.1499 H   0  0  0  0  0  0  0  0  0  0  0  0
    1.8228   -1.6856    0.9553 H   0  0  0  0  0  0  0  0  0  0  0  0
   -1.3171   -1.6360    0.9861 H   0  0  0  0  0  0  0  0  0  0  0  0
   -2.8789    0.3902   -0.6303 H   0  0  0  0  0  0  0  0  0  0  0  0
   -5.3407    0.2655    1.8326 H   0  0  0  0  0  0  0  0  0  0  0  0
   -4.7768    1.7471    0.1016 H   0  0  0  0  0  0  0  0  0  0  0  0
   -4.4745    2.0116   -2.6541 H   0  0  0  0  0  0  0  0  0  0  0  0
   -5.9818    1.3884   -3.3551 H   0  0  0  0  0  0  0  0  0  0  0  0
   -6.0853    2.5906   -1.9941 H   0  0  0  0  0  0  0  0  0  0  0  0
   -6.0234   -1.9389   -0.1846 H   0  0  0  0  0  0  0  0  0  0  0  0
   -7.5055    0.2899   -0.0389 H   0  0  0  0  0  0  0  0  0  0  0  0
   -7.6545   -0.1679    1.6829 H   0  0  0  0  0  0  0  0  0  0  0  0
   -8.4463   -2.0817   -0.5781 H   0  0  0  0  0  0  0  0  0  0  0  0
   -9.5228   -0.9565    0.2969 H   0  0  0  0  0  0  0  0  0  0  0  0
   -9.4278   -3.2623    1.2456 H   0  0  0  0  0  0  0  0  0  0  0  0
   -9.0819   -1.8966    2.3785 H   0  0  0  0  0  0  0  0  0  0  0  0
   -7.1998   -3.8955    0.9895 H   0  0  0  0  0  0  0  0  0  0  0  0
   -7.4344   -3.7045    2.7391 H   0  0  0  0  0  0  0  0  0  0  0  0
   -5.3189   -2.8518    1.9484 H   0  0  0  0  0  0  0  0  0  0  0  0
   -6.3262   -1.5549    2.7723 H   0  0  0  0  0  0  0  0  0  0  0  0
   -1.8248   -2.3364   -1.2618 H   0  0  0  0  0  0  0  0  0  0  0  0
    0.2395   -2.9833   -2.1764 H   0  0  0  0  0  0  0  0  0  0  0  0
    0.4786   -2.9976   -0.3894 H   0  0  0  0  0  0  0  0  0  0  0  0
    1.1798   -1.7037   -1.3998 H   0  0  0  0  0  0  0  0  0  0  0  0
   -2.0943   -0.1798   -2.4223 H   0  0  0  0  0  0  0  0  0  0  0  0
   -0.9293   -1.2546   -3.2022 H   0  0  0  0  0  0  0  0  0  0  0  0
   -0.3365    0.1562   -2.2325 H   0  0  0  0  0  0  0  0  0  0  0  0
    0.4212    6.9908   -2.1733 H   0  0  0  0  0  0  0  0  0  0  0  0
  1  2  2  3
  2  3  1  0
  3  4  1  0
  4  5  1  0
  5  6  1  1
  6  7  1  0
  7  8  2  0
  7  9  1  0
  9 10  1  0
 10 11  1  0
 11 12  1  0
 12 13  1  0
 13 14  2  0
 14 15  1  0
 15 16  1  0
 16 17  2  0
 17 18  1  0
 18 19  2  0
 19 20  1  0
 20 21  2  0
 15 22  2  0
 22 23  1  0
 23 24  2  0
 24 25  1  0
 25 26  2  0
 26 27  1  0
 27 28  2  0
 11 29  1  0
 29 30  1  0
 30 31  1  0
 31 32  2  0
 31 33  1  0
 33 34  1  0
 34 35  1  0
 35 36  2  0
 35 37  1  0
 37 38  1  0
 38 39  1  0
 39 40  1  0
 39 41  2  0
 37 42  1  0
 42 43  1  0
 43 44  1  0
 44 45  1  0
 45 46  1  0
 46 47  1  0
 33 48  1  0
 48 49  1  0
 48 50  1  0
  5 51  1  0
 51 52  2  0
 51 53  1  0
  5  3  1  0
 30  9  1  0
 47 42  1  0
 28 13  1  0
 21 16  1  0
 28 23  1  0
  1 54  1  0
  1 55  1  0
  2 56  1  0
  3 57  1  1
  4 58  1  0
  4 59  1  0
  6 60  1  0
  9 61  1  1
 10 62  1  0
 10 63  1  0
 11 64  1  6
 14 65  1  0
 17 66  1  0
 18 67  1  0
 19 68  1  0
 20 69  1  0
 21 70  1  0
 24 71  1  0
 25 72  1  0
 26 73  1  0
 27 74  1  0
 29 75  1  0
 29 76  1  0
 33 77  1  1
 34 78  1  0
 37 79  1  1
 38 80  1  0
 40 81  1  0
 40 82  1  0
 40 83  1  0
 42 84  1  0
 43 85  1  0
 43 86  1  0
 44 87  1  0
 44 88  1  0
 45 89  1  0
 45 90  1  0
 46 91  1  0
 46 92  1  0
 47 93  1  0
 47 94  1  0
 48 95  1  0
 49 96  1  0
 49 97  1  0
 49 98  1  0
 50 99  1  0
 50100  1  0
 50101  1  0
 53102  1  0
M  END
$$$$
