
     RDKit          3D

 79 83  0  0  0  0  0  0  0  0999 V2000
    6.9729   -1.1271   -1.4104 C   0  0  0  0  0  0  0  0  0  0  0  0
    5.7955   -0.2401   -1.7990 C   0  0  1  0  0  0  0  0  0  0  0  0
    4.6634   -0.4620   -0.9401 N   0  0  0  0  0  0  0  0  0  0  0  0
    3.4855   -1.1402   -1.3669 C   0  0  0  0  0  0  0  0  0  0  0  0
    3.4804   -1.5527   -2.5499 O   0  0  0  0  0  0  0  0  0  0  0  0
    2.3949   -1.3012   -0.4238 C   0  0  0  0  0  0  0  0  0  0  0  0
    1.1749   -0.6536   -0.7004 C   0  0  0  0  0  0  0  0  0  0  0  0
    0.0939   -0.7412    0.1457 C   0  0  0  0  0  0  0  0  0  0  0  0
   -1.1654   -0.0514   -0.2087 C   0  0  0  0  0  0  0  0  0  0  0  0
   -1.1883    0.6498   -1.2802 O   0  0  0  0  0  0  0  0  0  0  0  0
   -2.3485   -0.1113    0.5482 N   0  0  0  0  0  0  0  0  0  0  0  0
   -3.6104    0.5199    0.2466 C   0  0  1  0  0  0  0  0  0  0  0  0
   -3.6384    1.8416    0.9368 C   0  0  0  0  0  0  0  0  0  0  0  0
   -4.8252    2.6628    0.7525 C   0  0  0  0  0  0  0  0  0  0  0  0
   -5.9299    2.5222    1.5574 C   0  0  0  0  0  0  0  0  0  0  0  0
   -7.0107    3.3400    1.3435 C   0  0  0  0  0  0  0  0  0  0  0  0
   -7.0224    4.2965    0.3483 C   0  0  0  0  0  0  0  0  0  0  0  0
   -5.9200    4.4432   -0.4613 C   0  0  0  0  0  0  0  0  0  0  0  0
   -4.8438    3.6180   -0.2371 C   0  0  0  0  0  0  0  0  0  0  0  0
   -4.0182    0.5163   -1.1984 C   0  0  2  0  0  0  0  0  0  0  0  0
   -5.2551    1.1627   -1.2930 O   0  0  0  0  0  0  0  0  0  0  0  0
   -4.0493   -0.8647   -1.7395 C   0  0  0  0  0  0  0  0  0  0  0  0
   -4.8297   -1.8578   -1.2138 N   0  0  0  0  0  0  0  0  0  0  0  0
   -6.2067   -1.9680   -1.2071 C   0  0  0  0  0  0  0  0  0  0  0  0
   -7.1529   -1.1713   -0.3476 C   0  0  0  0  0  0  0  0  0  0  0  0
   -6.7895   -2.5456    0.0923 C   0  0  0  0  0  0  0  0  0  0  0  0
    0.2641   -1.4923    1.2768 C   0  0  0  0  0  0  0  0  0  0  0  0
    1.4491   -2.1402    1.5766 C   0  0  0  0  0  0  0  0  0  0  0  0
    2.5227   -2.0433    0.7152 C   0  0  0  0  0  0  0  0  0  0  0  0
    3.8356   -2.6785    0.8289 C   0  0  0  0  0  0  0  0  0  0  0  0
    4.3754   -2.3535    2.2170 C   0  0  0  0  0  0  0  0  0  0  0  0
    3.7788   -3.3749    3.1612 C   0  0  0  0  0  0  0  0  0  0  0  0
    2.4522   -2.9799    3.7216 C   0  0  0  0  0  0  0  0  0  0  0  0
    1.4239   -2.8471    2.7701 O   0  0  0  0  0  0  0  0  0  0  0  0
    6.2627    1.1507   -1.6283 C   0  0  0  0  0  0  0  0  0  0  0  0
    6.4820    1.6895   -0.3579 C   0  0  0  0  0  0  0  0  0  0  0  0
    6.9160    2.9682   -0.1455 C   0  0  0  0  0  0  0  0  0  0  0  0
    7.1589    3.7957   -1.2186 C   0  0  0  0  0  0  0  0  0  0  0  0
    6.9539    3.3009   -2.4957 C   0  0  0  0  0  0  0  0  0  0  0  0
    6.5163    2.0088   -2.6966 C   0  0  0  0  0  0  0  0  0  0  0  0
    7.0865   -1.1119   -0.3080 H   0  0  0  0  0  0  0  0  0  0  0  0
    6.9183   -2.1159   -1.8628 H   0  0  0  0  0  0  0  0  0  0  0  0
    7.8993   -0.6437   -1.8289 H   0  0  0  0  0  0  0  0  0  0  0  0
    5.5927   -0.4516   -2.8481 H   0  0  0  0  0  0  0  0  0  0  0  0
    4.7108   -0.1121    0.0382 H   0  0  0  0  0  0  0  0  0  0  0  0
    1.0932   -0.0708   -1.6110 H   0  0  0  0  0  0  0  0  0  0  0  0
   -2.2561   -0.7065    1.4418 H   0  0  0  0  0  0  0  0  0  0  0  0
   -4.4534   -0.1076    0.7366 H   0  0  0  0  0  0  0  0  0  0  0  0
   -2.7184    2.4362    0.7171 H   0  0  0  0  0  0  0  0  0  0  0  0
   -3.5849    1.6127    2.0507 H   0  0  0  0  0  0  0  0  0  0  0  0
   -5.9825    1.7916    2.3543 H   0  0  0  0  0  0  0  0  0  0  0  0
   -7.9155    3.2804    1.9428 H   0  0  0  0  0  0  0  0  0  0  0  0
   -7.8953    4.9379    0.1969 H   0  0  0  0  0  0  0  0  0  0  0  0
   -5.9239    5.1832   -1.2322 H   0  0  0  0  0  0  0  0  0  0  0  0
   -3.9879    3.7757   -0.9125 H   0  0  0  0  0  0  0  0  0  0  0  0
   -3.3199    1.1340   -1.7737 H   0  0  0  0  0  0  0  0  0  0  0  0
   -5.5016    1.4340   -2.1975 H   0  0  0  0  0  0  0  0  0  0  0  0
   -4.2311   -0.8296   -2.8727 H   0  0  0  0  0  0  0  0  0  0  0  0
   -2.9747   -1.2542   -1.7251 H   0  0  0  0  0  0  0  0  0  0  0  0
   -4.3680   -2.4948   -0.5265 H   0  0  0  0  0  0  0  0  0  0  0  0
   -6.6831   -2.5029   -2.1007 H   0  0  0  0  0  0  0  0  0  0  0  0
   -6.7985   -0.3098    0.2332 H   0  0  0  0  0  0  0  0  0  0  0  0
   -8.2021   -1.0787   -0.7056 H   0  0  0  0  0  0  0  0  0  0  0  0
   -6.1313   -2.5872    0.9748 H   0  0  0  0  0  0  0  0  0  0  0  0
   -7.5218   -3.3495    0.0599 H   0  0  0  0  0  0  0  0  0  0  0  0
   -0.5692   -1.5896    1.9767 H   0  0  0  0  0  0  0  0  0  0  0  0
    3.6235   -3.7976    0.8273 H   0  0  0  0  0  0  0  0  0  0  0  0
    4.5321   -2.5126    0.0229 H   0  0  0  0  0  0  0  0  0  0  0  0
    5.4714   -2.4720    2.1545 H   0  0  0  0  0  0  0  0  0  0  0  0
    4.1411   -1.3278    2.5069 H   0  0  0  0  0  0  0  0  0  0  0  0
    4.4819   -3.4650    4.0303 H   0  0  0  0  0  0  0  0  0  0  0  0
    3.7494   -4.3803    2.6745 H   0  0  0  0  0  0  0  0  0  0  0  0
    2.1422   -3.8186    4.4115 H   0  0  0  0  0  0  0  0  0  0  0  0
    2.5408   -2.0979    4.3477 H   0  0  0  0  0  0  0  0  0  0  0  0
    6.2996    1.0509    0.4940 H   0  0  0  0  0  0  0  0  0  0  0  0
    7.0837    3.3715    0.8612 H   0  0  0  0  0  0  0  0  0  0  0  0
    7.5060    4.8150   -1.0275 H   0  0  0  0  0  0  0  0  0  0  0  0
    7.1484    3.9680   -3.3469 H   0  0  0  0  0  0  0  0  0  0  0  0
    6.3500    1.6083   -3.7028 H   0  0  0  0  0  0  0  0  0  0  0  0
  1  2  1  0
  2  3  1  0
  3  4  1  0
  4  5  2  0
  4  6  1  0
  6  7  2  0
  7  8  1  0
  8  9  1  0
  9 10  2  0
  9 11  1  0
 11 12  1  0
 12 13  1  0
 13 14  1  0
 14 15  2  0
 15 16  1  0
 16 17  2  0
 17 18  1  0
 18 19  2  0
 12 20  1  0
 20 21  1  0
 20 22  1  0
 22 23  1  0
 23 24  1  0
 24 25  1  0
 25 26  1  0
  8 27  2  0
 27 28  1  0
 28 29  2  0
 29 30  1  0
 30 31  1  0
 31 32  1  0
 32 33  1  0
 33 34  1  0
  2 35  1  0
 35 36  2  0
 36 37  1  0
 37 38  2  0
 38 39  1  0
 39 40  2  0
 29  6  1  0
 40 35  1  0
 19 14  1  0
 26 24  1  0
 34 28  1  0
  1 41  1  0
  1 42  1  0
  1 43  1  0
  2 44  1  6
  3 45  1  0
  7 46  1  0
 11 47  1  0
 12 48  1  1
 13 49  1  0
 13 50  1  0
 15 51  1  0
 16 52  1  0
 17 53  1  0
 18 54  1  0
 19 55  1  0
 20 56  1  6
 21 57  1  0
 22 58  1  0
 22 59  1  0
 23 60  1  0
 24 61  1  0
 25 62  1  0
 25 63  1  0
 26 64  1  0
 26 65  1  0
 27 66  1  0
 30 67  1  0
 30 68  1  0
 31 69  1  0
 31 70  1  0
 32 71  1  0
 32 72  1  0
 33 73  1  0
 33 74  1  0
 36 75  1  0
 37 76  1  0
 38 77  1  0
 39 78  1  0
 40 79  1  0
M  END
$$$$
