@<TRIPOS>MOLECULE
*****
 79 83 0 0 0
SMALL
GASTEIGER

@<TRIPOS>ATOM
      1 C           6.9729   -1.1271   -1.4104 C.3     1  UNL1       -0.0424
      2 C           5.7955   -0.2401   -1.7990 C.3     1  UNL1        0.0458
      3 N           4.6634   -0.4620   -0.9401 N.am    1  UNL1       -0.3048
      4 C           3.4855   -1.1402   -1.3669 C.2     1  UNL1        0.2449
      5 O           3.4804   -1.5527   -2.5499 O.2     1  UNL1       -0.2702
      6 C           2.3949   -1.3012   -0.4238 C.ar    1  UNL1        0.0440
      7 C           1.1749   -0.6536   -0.7004 C.ar    1  UNL1       -0.0370
      8 C           0.0939   -0.7412    0.1457 C.ar    1  UNL1        0.0409
      9 C          -1.1654   -0.0514   -0.2087 C.2     1  UNL1        0.2445
     10 O          -1.1883    0.6498   -1.2802 O.2     1  UNL1       -0.2702
     11 N          -2.3485   -0.1113    0.5482 N.am    1  UNL1       -0.3057
     12 C          -3.6104    0.5199    0.2466 C.3     1  UNL1        0.0545
     13 C          -3.6384    1.8416    0.9368 C.3     1  UNL1       -0.0067
     14 C          -4.8252    2.6628    0.7525 C.ar    1  UNL1       -0.0455
     15 C          -5.9299    2.5222    1.5574 C.ar    1  UNL1       -0.0585
     16 C          -7.0107    3.3400    1.3435 C.ar    1  UNL1       -0.0615
     17 C          -7.0224    4.2965    0.3483 C.ar    1  UNL1       -0.0617
     18 C          -5.9200    4.4432   -0.4613 C.ar    1  UNL1       -0.0615
     19 C          -4.8438    3.6180   -0.2371 C.ar    1  UNL1       -0.0585
     20 C          -4.0182    0.5163   -1.1984 C.3     1  UNL1        0.0862
     21 O          -5.2551    1.1627   -1.2930 O.3     1  UNL1       -0.3887
     22 C          -4.0493   -0.8647   -1.7395 C.3     1  UNL1        0.0240
     23 N          -4.8297   -1.8578   -1.2138 N.3     1  UNL1       -0.3107
     24 C          -6.2067   -1.9680   -1.2071 C.3     1  UNL1        0.0078
     25 C          -7.1529   -1.1713   -0.3476 C.3     1  UNL1       -0.0361
     26 C          -6.7895   -2.5456    0.0923 C.3     1  UNL1       -0.0361
     27 C           0.2641   -1.4923    1.2768 C.ar    1  UNL1       -0.0075
     28 C           1.4491   -2.1402    1.5766 C.ar    1  UNL1        0.1251
     29 C           2.5227   -2.0433    0.7152 C.ar    1  UNL1        0.0064
     30 C           3.8356   -2.6785    0.8289 C.3     1  UNL1       -0.0234
     31 C           4.3754   -2.3535    2.2170 C.3     1  UNL1       -0.0459
     32 C           3.7788   -3.3749    3.1612 C.3     1  UNL1       -0.0183
     33 C           2.4522   -2.9799    3.7216 C.3     1  UNL1        0.0896
     34 O           1.4239   -2.8471    2.7701 O.3     1  UNL1       -0.4916
     35 C           6.2627    1.1507   -1.6283 C.ar    1  UNL1       -0.0275
     36 C           6.4820    1.6895   -0.3579 C.ar    1  UNL1       -0.0568
     37 C           6.9160    2.9682   -0.1455 C.ar    1  UNL1       -0.0614
     38 C           7.1589    3.7957   -1.2186 C.ar    1  UNL1       -0.0617
     39 C           6.9539    3.3009   -2.4957 C.ar    1  UNL1       -0.0614
     40 C           6.5163    2.0088   -2.6966 C.ar    1  UNL1       -0.0568
     41 H           7.0865   -1.1119   -0.3080 H       1  UNL1        0.0251
     42 H           6.9183   -2.1159   -1.8628 H       1  UNL1        0.0251
     43 H           7.8993   -0.6437   -1.8289 H       1  UNL1        0.0251
     44 H           5.5927   -0.4516   -2.8481 H       1  UNL1        0.0545
     45 H           4.7108   -0.1121    0.0382 H       1  UNL1        0.1496
     46 H           1.0932   -0.0708   -1.6110 H       1  UNL1        0.0633
     47 H          -2.2561   -0.7065    1.4418 H       1  UNL1        0.1494
     48 H          -4.4534   -0.1076    0.7366 H       1  UNL1        0.0527
     49 H          -2.7184    2.4362    0.7171 H       1  UNL1        0.0332
     50 H          -3.5849    1.6127    2.0507 H       1  UNL1        0.0332
     51 H          -5.9825    1.7916    2.3543 H       1  UNL1        0.0620
     52 H          -7.9155    3.2804    1.9428 H       1  UNL1        0.0618
     53 H          -7.8953    4.9379    0.1969 H       1  UNL1        0.0618
     54 H          -5.9239    5.1832   -1.2322 H       1  UNL1        0.0618
     55 H          -3.9879    3.7757   -0.9125 H       1  UNL1        0.0620
     56 H          -3.3199    1.1340   -1.7737 H       1  UNL1        0.0624
     57 H          -5.5016    1.4340   -2.1975 H       1  UNL1        0.2099
     58 H          -4.2311   -0.8296   -2.8727 H       1  UNL1        0.0450
     59 H          -2.9747   -1.2542   -1.7251 H       1  UNL1        0.0450
     60 H          -4.3680   -2.4948   -0.5265 H       1  UNL1        0.1223
     61 H          -6.6831   -2.5029   -2.1007 H       1  UNL1        0.0460
     62 H          -6.7985   -0.3098    0.2332 H       1  UNL1        0.0281
     63 H          -8.2021   -1.0787   -0.7056 H       1  UNL1        0.0281
     64 H          -6.1313   -2.5872    0.9748 H       1  UNL1        0.0281
     65 H          -7.5218   -3.3495    0.0599 H       1  UNL1        0.0281
     66 H          -0.5692   -1.5896    1.9767 H       1  UNL1        0.0662
     67 H           3.6235   -3.7976    0.8273 H       1  UNL1        0.0315
     68 H           4.5321   -2.5126    0.0229 H       1  UNL1        0.0315
     69 H           5.4714   -2.4720    2.1545 H       1  UNL1        0.0269
     70 H           4.1411   -1.3278    2.5069 H       1  UNL1        0.0269
     71 H           4.4819   -3.4650    4.0303 H       1  UNL1        0.0298
     72 H           3.7494   -4.3803    2.6745 H       1  UNL1        0.0298
     73 H           2.1422   -3.8186    4.4115 H       1  UNL1        0.0696
     74 H           2.5408   -2.0979    4.3477 H       1  UNL1        0.0696
     75 H           6.2996    1.0509    0.4940 H       1  UNL1        0.0621
     76 H           7.0837    3.3715    0.8612 H       1  UNL1        0.0618
     77 H           7.5060    4.8150   -1.0275 H       1  UNL1        0.0618
     78 H           7.1484    3.9680   -3.3469 H       1  UNL1        0.0618
     79 H           6.3500    1.6083   -3.7028 H       1  UNL1        0.0621
@<TRIPOS>BOND
     1     1     2    1
     2     2     3    1
     3     3     4   am
     4     4     5    2
     5     4     6    1
     6     6     7   ar
     7     7     8   ar
     8     8     9    1
     9     9    10    2
    10     9    11   am
    11    11    12    1
    12    12    13    1
    13    13    14    1
    14    14    15   ar
    15    15    16   ar
    16    16    17   ar
    17    17    18   ar
    18    18    19   ar
    19    12    20    1
    20    20    21    1
    21    20    22    1
    22    22    23    1
    23    23    24    1
    24    24    25    1
    25    25    26    1
    26     8    27   ar
    27    27    28   ar
    28    28    29   ar
    29    29    30    1
    30    30    31    1
    31    31    32    1
    32    32    33    1
    33    33    34    1
    34     2    35    1
    35    35    36   ar
    36    36    37   ar
    37    37    38   ar
    38    38    39   ar
    39    39    40   ar
    40    29     6   ar
    41    40    35   ar
    42    19    14   ar
    43    26    24    1
    44    34    28    1
    45     1    41    1
    46     1    42    1
    47     1    43    1
    48     2    44    1
    49     3    45    1
    50     7    46    1
    51    11    47    1
    52    12    48    1
    53    13    49    1
    54    13    50    1
    55    15    51    1
    56    16    52    1
    57    17    53    1
    58    18    54    1
    59    19    55    1
    60    20    56    1
    61    21    57    1
    62    22    58    1
    63    22    59    1
    64    23    60    1
    65    24    61    1
    66    25    62    1
    67    25    63    1
    68    26    64    1
    69    26    65    1
    70    27    66    1
    71    30    67    1
    72    30    68    1
    73    31    69    1
    74    31    70    1
    75    32    71    1
    76    32    72    1
    77    33    73    1
    78    33    74    1
    79    36    75    1
    80    37    76    1
    81    38    77    1
    82    39    78    1
    83    40    79    1
