
     RDKit          3D

 47 50  0  0  0  0  0  0  0  0999 V2000
    2.9038    0.7328   -3.1264 O   0  0  0  0  0  0  0  0  0  0  0  0
    2.3478    0.3079   -2.0179 C   0  0  0  0  0  0  0  0  0  0  0  0
    1.1621   -0.4650   -2.2382 C   0  0  0  0  0  0  0  0  0  0  0  0
    0.3800   -1.0309   -1.2369 N   0  0  0  0  0  0  0  0  0  0  0  0
   -0.6998   -0.3185   -0.5872 C   0  0  0  0  0  0  0  0  0  0  0  0
   -0.7497    1.1229   -0.7732 C   0  0  0  0  0  0  0  0  0  0  0  0
    0.0624    1.6084   -1.6721 O   0  0  0  0  0  0  0  0  0  0  0  0
   -1.5274    2.1532   -0.1554 C   0  0  0  0  0  0  0  0  0  0  0  0
   -1.9083    3.2852   -0.9040 C   0  0  0  0  0  0  0  0  0  0  0  0
   -2.5121    4.3813   -0.3607 C   0  0  0  0  0  0  0  0  0  0  0  0
   -2.7652    4.3862    0.9937 C   0  0  0  0  0  0  0  0  0  0  0  0
   -2.3976    3.2921    1.7322 C   0  0  0  0  0  0  0  0  0  0  0  0
   -1.7815    2.1724    1.1906 C   0  0  0  0  0  0  0  0  0  0  0  0
   -1.6540   -0.9613    0.0965 C   0  0  0  0  0  0  0  0  0  0  0  0
   -2.6973   -0.1919    0.6787 O   0  0  0  0  0  0  0  0  0  0  0  0
   -1.7300   -2.3957    0.3280 C   0  0  0  0  0  0  0  0  0  0  0  0
   -2.8567   -2.9470    0.9655 C   0  0  0  0  0  0  0  0  0  0  0  0
   -3.0186   -4.3017    1.1263 C   0  0  0  0  0  0  0  0  0  0  0  0
   -2.0794   -5.1871    0.6676 C   0  0  0  0  0  0  0  0  0  0  0  0
   -0.9610   -4.6265    0.0358 C   0  0  0  0  0  0  0  0  0  0  0  0
   -0.8051   -3.2994   -0.1184 C   0  0  0  0  0  0  0  0  0  0  0  0
    0.6652   -2.6790   -0.8162 S   0  0  0  0  0  6  0  0  0  0  0  0
    1.7463   -2.8004    0.1786 O   0  0  0  0  0  0  0  0  0  0  0  0
    0.9389   -3.5061   -2.0504 O   0  0  0  0  0  0  0  0  0  0  0  0
    3.0362    0.7015   -0.8383 C   0  0  0  0  0  0  0  0  0  0  0  0
    4.2111    1.4632   -0.9027 C   0  0  0  0  0  0  0  0  0  0  0  0
    4.9096    1.8703    0.2087 C   0  0  0  0  0  0  0  0  0  0  0  0
    4.4540    1.5259    1.4641 C   0  0  0  0  0  0  0  0  0  0  0  0
    3.3034    0.7775    1.5885 C   0  0  0  0  0  0  0  0  0  0  0  0
    2.6223    0.3839    0.4236 C   0  0  0  0  0  0  0  0  0  0  0  0
    1.4981   -1.3825   -2.8987 H   0  0  0  0  0  0  0  0  0  0  0  0
    0.4807    0.0614   -2.9941 H   0  0  0  0  0  0  0  0  0  0  0  0
   -1.6875    3.2300   -1.9597 H   0  0  0  0  0  0  0  0  0  0  0  0
   -2.7975    5.2527   -0.9804 H   0  0  0  0  0  0  0  0  0  0  0  0
   -3.2409    5.2417    1.4337 H   0  0  0  0  0  0  0  0  0  0  0  0
   -2.5941    3.2941    2.7877 H   0  0  0  0  0  0  0  0  0  0  0  0
   -1.4753    1.4008    1.9062 H   0  0  0  0  0  0  0  0  0  0  0  0
   -2.9422   -0.4260    1.6296 H   0  0  0  0  0  0  0  0  0  0  0  0
   -3.6048   -2.2637    1.3273 H   0  0  0  0  0  0  0  0  0  0  0  0
   -3.9178   -4.6715    1.6314 H   0  0  0  0  0  0  0  0  0  0  0  0
   -2.2178   -6.2454    0.7981 H   0  0  0  0  0  0  0  0  0  0  0  0
   -0.2278   -5.3355   -0.3213 H   0  0  0  0  0  0  0  0  0  0  0  0
    4.6025    1.7554   -1.8912 H   0  0  0  0  0  0  0  0  0  0  0  0
    5.8127    2.4577    0.1152 H   0  0  0  0  0  0  0  0  0  0  0  0
    5.0026    1.8455    2.3398 H   0  0  0  0  0  0  0  0  0  0  0  0
    2.9635    0.5184    2.5798 H   0  0  0  0  0  0  0  0  0  0  0  0
    1.7462   -0.1873    0.6166 H   0  0  0  0  0  0  0  0  0  0  0  0
  1  2  2  0
  2  3  1  0
  3  4  1  0
  4  5  1  0
  5  6  1  0
  6  7  2  0
  6  8  1  0
  8  9  2  0
  9 10  1  0
 10 11  2  0
 11 12  1  0
 12 13  2  0
  5 14  2  0
 14 15  1  0
 14 16  1  0
 16 17  2  0
 17 18  1  0
 18 19  2  0
 19 20  1  0
 20 21  2  0
 21 22  1  0
 22 23  2  0
 22 24  2  0
  2 25  1  0
 25 26  2  0
 26 27  1  0
 27 28  2  0
 28 29  1  0
 29 30  2  0
 22  4  1  0
 30 25  1  0
 13  8  1  0
 21 16  1  0
  3 31  1  0
  3 32  1  0
  9 33  1  0
 10 34  1  0
 11 35  1  0
 12 36  1  0
 13 37  1  0
 15 38  1  0
 17 39  1  0
 18 40  1  0
 19 41  1  0
 20 42  1  0
 26 43  1  0
 27 44  1  0
 28 45  1  0
 29 46  1  0
 30 47  1  0
M  END
$$$$
