@<TRIPOS>MOLECULE
*****
 47 50 0 0 0
SMALL
GASTEIGER

@<TRIPOS>ATOM
      1 O           2.9038    0.7328   -3.1264 O.2     1  UNL1       -0.2903
      2 C           2.3478    0.3079   -2.0179 C.2     1  UNL1        0.1820
      3 C           1.1621   -0.4650   -2.2382 C.3     1  UNL1        0.0980
      4 N           0.3800   -1.0309   -1.2369 N.pl3   1  UNL1       -0.1882
      5 C          -0.6998   -0.3185   -0.5872 C.2     1  UNL1        0.1407
      6 C          -0.7497    1.1229   -0.7732 C.2     1  UNL1        0.2121
      7 O           0.0624    1.6084   -1.6721 O.2     1  UNL1       -0.2851
      8 C          -1.5274    2.1532   -0.1554 C.ar    1  UNL1        0.0237
      9 C          -1.9083    3.2852   -0.9040 C.ar    1  UNL1       -0.0509
     10 C          -2.5121    4.3813   -0.3607 C.ar    1  UNL1       -0.0611
     11 C          -2.7652    4.3862    0.9937 C.ar    1  UNL1       -0.0617
     12 C          -2.3976    3.2921    1.7322 C.ar    1  UNL1       -0.0611
     13 C          -1.7815    2.1724    1.1906 C.ar    1  UNL1       -0.0509
     14 C          -1.6540   -0.9613    0.0965 C.2     1  UNL1        0.1521
     15 O          -2.6973   -0.1919    0.6787 O.2     1  UNL1       -0.5041
     16 C          -1.7300   -2.3957    0.3280 C.ar    1  UNL1        0.0450
     17 C          -2.8567   -2.9470    0.9655 C.ar    1  UNL1       -0.0491
     18 C          -3.0186   -4.3017    1.1263 C.ar    1  UNL1       -0.0610
     19 C          -2.0794   -5.1871    0.6676 C.ar    1  UNL1       -0.0599
     20 C          -0.9610   -4.6265    0.0358 C.ar    1  UNL1       -0.0344
     21 C          -0.8051   -3.2994   -0.1184 C.ar    1  UNL1        0.1194
     22 S           0.6652   -2.6790   -0.8162 S.O2    1  UNL1        0.0760
     23 O           1.7463   -2.8004    0.1786 O.2     1  UNL1       -0.1497
     24 O           0.9389   -3.5061   -2.0504 O.2     1  UNL1       -0.1497
     25 C           3.0362    0.7015   -0.8383 C.ar    1  UNL1        0.0191
     26 C           4.2111    1.4632   -0.9027 C.ar    1  UNL1       -0.0512
     27 C           4.9096    1.8703    0.2087 C.ar    1  UNL1       -0.0611
     28 C           4.4540    1.5259    1.4641 C.ar    1  UNL1       -0.0617
     29 C           3.3034    0.7775    1.5885 C.ar    1  UNL1       -0.0611
     30 C           2.6223    0.3839    0.4236 C.ar    1  UNL1       -0.0512
     31 H           1.4981   -1.3825   -2.8987 H       1  UNL1        0.0565
     32 H           0.4807    0.0614   -2.9941 H       1  UNL1        0.0565
     33 H          -1.6875    3.2300   -1.9597 H       1  UNL1        0.0625
     34 H          -2.7975    5.2527   -0.9804 H       1  UNL1        0.0618
     35 H          -3.2409    5.2417    1.4337 H       1  UNL1        0.0618
     36 H          -2.5941    3.2941    2.7877 H       1  UNL1        0.0618
     37 H          -1.4753    1.4008    1.9062 H       1  UNL1        0.0625
     38 H          -2.9422   -0.4260    1.6296 H       1  UNL1        0.2923
     39 H          -3.6048   -2.2637    1.3273 H       1  UNL1        0.0625
     40 H          -3.9178   -4.6715    1.6314 H       1  UNL1        0.0618
     41 H          -2.2178   -6.2454    0.7981 H       1  UNL1        0.0618
     42 H          -0.2278   -5.3355   -0.3213 H       1  UNL1        0.0637
     43 H           4.6025    1.7554   -1.8912 H       1  UNL1        0.0625
     44 H           5.8127    2.4577    0.1152 H       1  UNL1        0.0618
     45 H           5.0026    1.8455    2.3398 H       1  UNL1        0.0618
     46 H           2.9635    0.5184    2.5798 H       1  UNL1        0.0618
     47 H           1.7462   -0.1873    0.6166 H       1  UNL1        0.0625
@<TRIPOS>BOND
     1     1     2    2
     2     2     3    1
     3     3     4    1
     4     4     5    1
     5     5     6    1
     6     6     7    2
     7     6     8    1
     8     8     9   ar
     9     9    10   ar
    10    10    11   ar
    11    11    12   ar
    12    12    13   ar
    13     5    14    2
    14    14    15    1
    15    14    16    1
    16    16    17   ar
    17    17    18   ar
    18    18    19   ar
    19    19    20   ar
    20    20    21   ar
    21    21    22    1
    22    22    23    2
    23    22    24    2
    24     2    25    1
    25    25    26   ar
    26    26    27   ar
    27    27    28   ar
    28    28    29   ar
    29    29    30   ar
    30    22     4    1
    31    30    25   ar
    32    13     8   ar
    33    21    16   ar
    34     3    31    1
    35     3    32    1
    36     9    33    1
    37    10    34    1
    38    11    35    1
    39    12    36    1
    40    13    37    1
    41    15    38    1
    42    17    39    1
    43    18    40    1
    44    19    41    1
    45    20    42    1
    46    26    43    1
    47    27    44    1
    48    28    45    1
    49    29    46    1
    50    30    47    1
