
     RDKit          3D

 50 52  0  0  0  0  0  0  0  0999 V2000
    4.3503    0.0381    1.4936 C   0  0  0  0  0  0  0  0  0  0  0  0
    4.0633   -0.7774    0.3448 N   0  0  0  0  0  0  0  0  0  0  0  0
    4.6269   -0.1265   -0.8225 C   0  0  0  0  0  0  0  0  0  0  0  0
    3.7066    1.0818   -0.9365 C   0  0  0  0  0  0  0  0  0  0  0  0
    2.3713    0.6045   -0.4053 C   0  0  0  0  0  0  0  0  0  0  0  0
    2.6394   -0.8064    0.0612 C   0  0  2  0  0  0  0  0  0  0  0  0
    1.9449   -1.1296    1.3516 C   0  0  0  0  0  0  0  0  0  0  0  0
    0.4370   -1.2015    1.2315 C   0  0  0  0  0  0  0  0  0  0  0  0
   -0.1247   -0.0269    0.8045 O   0  0  0  0  0  0  0  0  0  0  0  0
   -1.5107   -0.0737    0.6843 C   0  0  2  0  0  0  0  0  0  0  0  0
   -2.1276   -0.3962    2.0200 C   0  0  0  0  0  0  0  0  0  0  0  0
   -1.9513   -1.0893   -0.2987 C   0  0  0  0  0  0  0  0  0  0  0  0
   -1.4038   -0.9904   -1.5848 C   0  0  0  0  0  0  0  0  0  0  0  0
   -1.7888   -1.9271   -2.5506 C   0  0  0  0  0  0  0  0  0  0  0  0
   -2.6955   -2.9409   -2.2536 C   0  0  0  0  0  0  0  0  0  0  0  0
   -3.2380   -3.0431   -0.9883 C   0  0  0  0  0  0  0  0  0  0  0  0
   -2.8455   -2.1105   -0.0519 C   0  0  0  0  0  0  0  0  0  0  0  0
   -1.9987    1.2544    0.2459 C   0  0  0  0  0  0  0  0  0  0  0  0
   -1.2197    2.3364   -0.1048 C   0  0  0  0  0  0  0  0  0  0  0  0
   -1.7473    3.5410   -0.5060 C   0  0  0  0  0  0  0  0  0  0  0  0
   -3.1226    3.7309   -0.5793 C   0  0  0  0  0  0  0  0  0  0  0  0
   -3.8156    5.2408   -1.0817 Cl  0  0  0  0  0  0  0  0  0  0  0  0
   -3.9333    2.6687   -0.2354 C   0  0  0  0  0  0  0  0  0  0  0  0
   -3.3726    1.4781    0.1614 C   0  0  0  0  0  0  0  0  0  0  0  0
    5.4011    0.3961    1.4578 H   0  0  0  0  0  0  0  0  0  0  0  0
    3.6922    0.9124    1.5884 H   0  0  0  0  0  0  0  0  0  0  0  0
    4.2641   -0.6154    2.3843 H   0  0  0  0  0  0  0  0  0  0  0  0
    5.6681    0.2152   -0.6517 H   0  0  0  0  0  0  0  0  0  0  0  0
    4.5755   -0.7779   -1.6951 H   0  0  0  0  0  0  0  0  0  0  0  0
    3.6678    1.4783   -1.9585 H   0  0  0  0  0  0  0  0  0  0  0  0
    4.1662    1.8807   -0.3033 H   0  0  0  0  0  0  0  0  0  0  0  0
    1.6505    0.5985   -1.2393 H   0  0  0  0  0  0  0  0  0  0  0  0
    1.9967    1.2531    0.4108 H   0  0  0  0  0  0  0  0  0  0  0  0
    2.4548   -1.5595   -0.7045 H   0  0  0  0  0  0  0  0  0  0  0  0
    2.2059   -0.4075    2.1371 H   0  0  0  0  0  0  0  0  0  0  0  0
    2.3378   -2.1144    1.6771 H   0  0  0  0  0  0  0  0  0  0  0  0
    0.2011   -1.9781    0.4819 H   0  0  0  0  0  0  0  0  0  0  0  0
    0.0835   -1.4714    2.2662 H   0  0  0  0  0  0  0  0  0  0  0  0
   -1.7794    0.3034    2.8171 H   0  0  0  0  0  0  0  0  0  0  0  0
   -1.9471   -1.4576    2.3127 H   0  0  0  0  0  0  0  0  0  0  0  0
   -3.2261   -0.2964    1.9423 H   0  0  0  0  0  0  0  0  0  0  0  0
   -0.7060   -0.2301   -1.8551 H   0  0  0  0  0  0  0  0  0  0  0  0
   -1.4061   -1.9202   -3.5804 H   0  0  0  0  0  0  0  0  0  0  0  0
   -2.9913   -3.6657   -3.0062 H   0  0  0  0  0  0  0  0  0  0  0  0
   -3.9525   -3.8177   -0.7016 H   0  0  0  0  0  0  0  0  0  0  0  0
   -3.2612   -2.1790    0.9383 H   0  0  0  0  0  0  0  0  0  0  0  0
   -0.1550    2.2007   -0.0516 H   0  0  0  0  0  0  0  0  0  0  0  0
   -1.1158    4.3723   -0.7752 H   0  0  0  0  0  0  0  0  0  0  0  0
   -4.9863    2.8285   -0.2960 H   0  0  0  0  0  0  0  0  0  0  0  0
   -4.0825    0.7166    0.4054 H   0  0  0  0  0  0  0  0  0  0  0  0
  1  2  1  0
  2  3  1  0
  3  4  1  0
  4  5  1  0
  5  6  1  0
  6  7  1  0
  7  8  1  0
  8  9  1  0
 10  9  1  1
 10 11  1  0
 10 12  1  0
 12 13  2  0
 13 14  1  0
 14 15  2  0
 15 16  1  0
 16 17  2  0
 10 18  1  0
 18 19  2  0
 19 20  1  0
 20 21  2  0
 21 22  1  0
 21 23  1  0
 23 24  2  0
  6  2  1  0
 17 12  1  0
 24 18  1  0
  1 25  1  0
  1 26  1  0
  1 27  1  0
  3 28  1  0
  3 29  1  0
  4 30  1  0
  4 31  1  0
  5 32  1  0
  5 33  1  0
  6 34  1  6
  7 35  1  0
  7 36  1  0
  8 37  1  0
  8 38  1  0
 11 39  1  0
 11 40  1  0
 11 41  1  0
 13 42  1  0
 14 43  1  0
 15 44  1  0
 16 45  1  0
 17 46  1  0
 19 47  1  0
 20 48  1  0
 23 49  1  0
 24 50  1  0
M  END
$$$$
