@<TRIPOS>MOLECULE
*****
 50 52 0 0 0
SMALL
GASTEIGER

@<TRIPOS>ATOM
      1 C           4.3503    0.0381    1.4936 C.3     1  UNL1       -0.0125
      2 N           4.0633   -0.7774    0.3448 N.3     1  UNL1       -0.3023
      3 C           4.6269   -0.1265   -0.8225 C.3     1  UNL1       -0.0011
      4 C           3.7066    1.0818   -0.9365 C.3     1  UNL1       -0.0388
      5 C           2.3713    0.6045   -0.4053 C.3     1  UNL1       -0.0361
      6 C           2.6394   -0.8064    0.0612 C.3     1  UNL1        0.0122
      7 C           1.9449   -1.1296    1.3516 C.3     1  UNL1       -0.0137
      8 C           0.4370   -1.2015    1.2315 C.3     1  UNL1        0.0507
      9 O          -0.1247   -0.0269    0.8045 O.3     1  UNL1       -0.3643
     10 C          -1.5107   -0.0737    0.6843 C.3     1  UNL1        0.1165
     11 C          -2.1276   -0.3962    2.0200 C.3     1  UNL1       -0.0274
     12 C          -1.9513   -1.0893   -0.2987 C.ar    1  UNL1       -0.0117
     13 C          -1.4038   -0.9904   -1.5848 C.ar    1  UNL1       -0.0555
     14 C          -1.7888   -1.9271   -2.5506 C.ar    1  UNL1       -0.0614
     15 C          -2.6955   -2.9409   -2.2536 C.ar    1  UNL1       -0.0617
     16 C          -3.2380   -3.0431   -0.9883 C.ar    1  UNL1       -0.0614
     17 C          -2.8455   -2.1105   -0.0519 C.ar    1  UNL1       -0.0555
     18 C          -1.9987    1.2544    0.2459 C.ar    1  UNL1       -0.0116
     19 C          -1.2197    2.3364   -0.1048 C.ar    1  UNL1       -0.0541
     20 C          -1.7473    3.5410   -0.5060 C.ar    1  UNL1       -0.0430
     21 C          -3.1226    3.7309   -0.5793 C.ar    1  UNL1        0.0410
     22 CL         -3.8156    5.2408   -1.0817 Cl      1  UNL1       -0.0835
     23 C          -3.9333    2.6687   -0.2354 C.ar    1  UNL1       -0.0430
     24 C          -3.3726    1.4781    0.1614 C.ar    1  UNL1       -0.0541
     25 H           5.4011    0.3961    1.4578 H       1  UNL1        0.0391
     26 H           3.6922    0.9124    1.5884 H       1  UNL1        0.0391
     27 H           4.2641   -0.6154    2.3843 H       1  UNL1        0.0391
     28 H           5.6681    0.2152   -0.6517 H       1  UNL1        0.0426
     29 H           4.5755   -0.7779   -1.6951 H       1  UNL1        0.0426
     30 H           3.6678    1.4783   -1.9585 H       1  UNL1        0.0278
     31 H           4.1662    1.8807   -0.3033 H       1  UNL1        0.0278
     32 H           1.6505    0.5985   -1.2393 H       1  UNL1        0.0281
     33 H           1.9967    1.2531    0.4108 H       1  UNL1        0.0281
     34 H           2.4548   -1.5595   -0.7045 H       1  UNL1        0.0463
     35 H           2.2059   -0.4075    2.1371 H       1  UNL1        0.0302
     36 H           2.3378   -2.1144    1.6771 H       1  UNL1        0.0302
     37 H           0.2011   -1.9781    0.4819 H       1  UNL1        0.0561
     38 H           0.0835   -1.4714    2.2662 H       1  UNL1        0.0561
     39 H          -1.7794    0.3034    2.8171 H       1  UNL1        0.0264
     40 H          -1.9471   -1.4576    2.3127 H       1  UNL1        0.0264
     41 H          -3.2261   -0.2964    1.9423 H       1  UNL1        0.0264
     42 H          -0.7060   -0.2301   -1.8551 H       1  UNL1        0.0621
     43 H          -1.4061   -1.9202   -3.5804 H       1  UNL1        0.0618
     44 H          -2.9913   -3.6657   -3.0062 H       1  UNL1        0.0618
     45 H          -3.9525   -3.8177   -0.7016 H       1  UNL1        0.0618
     46 H          -3.2612   -2.1790    0.9383 H       1  UNL1        0.0621
     47 H          -0.1550    2.2007   -0.0516 H       1  UNL1        0.0622
     48 H          -1.1158    4.3723   -0.7752 H       1  UNL1        0.0632
     49 H          -4.9863    2.8285   -0.2960 H       1  UNL1        0.0632
     50 H          -4.0825    0.7166    0.4054 H       1  UNL1        0.0622
@<TRIPOS>BOND
     1     1     2    1
     2     2     3    1
     3     3     4    1
     4     4     5    1
     5     5     6    1
     6     6     7    1
     7     7     8    1
     8     8     9    1
     9    10     9    1
    10    10    11    1
    11    10    12    1
    12    12    13   ar
    13    13    14   ar
    14    14    15   ar
    15    15    16   ar
    16    16    17   ar
    17    10    18    1
    18    18    19   ar
    19    19    20   ar
    20    20    21   ar
    21    21    22    1
    22    21    23   ar
    23    23    24   ar
    24     6     2    1
    25    17    12   ar
    26    24    18   ar
    27     1    25    1
    28     1    26    1
    29     1    27    1
    30     3    28    1
    31     3    29    1
    32     4    30    1
    33     4    31    1
    34     5    32    1
    35     5    33    1
    36     6    34    1
    37     7    35    1
    38     7    36    1
    39     8    37    1
    40     8    38    1
    41    11    39    1
    42    11    40    1
    43    11    41    1
    44    13    42    1
    45    14    43    1
    46    15    44    1
    47    16    45    1
    48    17    46    1
    49    19    47    1
    50    20    48    1
    51    23    49    1
    52    24    50    1
