
     RDKit          3D

 24 25  0  0  0  0  0  0  0  0999 V2000
   -0.5441   -1.3145   -1.6816 O   0  0  0  0  0  0  0  0  0  0  0  0
   -1.4771   -0.7980   -0.7756 C   0  0  0  0  0  0  0  0  0  0  0  0
   -2.7610   -0.5623   -1.2624 C   0  0  0  0  0  0  0  0  0  0  0  0
   -3.7576   -0.0589   -0.4665 C   0  0  0  0  0  0  0  0  0  0  0  0
   -5.3736    0.2401   -1.0705 Cl  0  0  0  0  0  0  0  0  0  0  0  0
   -3.4506    0.2154    0.8608 C   0  0  0  0  0  0  0  0  0  0  0  0
   -2.1667   -0.0205    1.3466 C   0  0  0  0  0  0  0  0  0  0  0  0
   -1.1840   -0.5242    0.5344 C   0  0  0  0  0  0  0  0  0  0  0  0
    0.0824   -0.7604    1.0031 O   0  0  0  0  0  0  0  0  0  0  0  0
    1.2572   -0.2020    0.5870 C   0  0  0  0  0  0  0  0  0  0  0  0
    1.3660    0.7469   -0.4061 C   0  0  0  0  0  0  0  0  0  0  0  0
    2.5784    1.2793   -0.7903 C   0  0  0  0  0  0  0  0  0  0  0  0
    3.7431    0.8684   -0.1780 C   0  0  0  0  0  0  0  0  0  0  0  0
    5.3084    1.5287   -0.6452 Cl  0  0  0  0  0  0  0  0  0  0  0  0
    3.6306   -0.0802    0.8145 C   0  0  0  0  0  0  0  0  0  0  0  0
    2.4225   -0.6077    1.1940 C   0  0  0  0  0  0  0  0  0  0  0  0
    2.4163   -1.8095    2.4719 Cl  0  0  0  0  0  0  0  0  0  0  0  0
   -0.5729   -0.9404   -2.6209 H   0  0  0  0  0  0  0  0  0  0  0  0
   -2.9659   -0.7858   -2.2966 H   0  0  0  0  0  0  0  0  0  0  0  0
   -4.2398    0.6162    1.4992 H   0  0  0  0  0  0  0  0  0  0  0  0
   -2.0067    0.2196    2.3940 H   0  0  0  0  0  0  0  0  0  0  0  0
    0.4537    1.1009   -0.9132 H   0  0  0  0  0  0  0  0  0  0  0  0
    2.6695    2.0287   -1.5740 H   0  0  0  0  0  0  0  0  0  0  0  0
    4.5718   -0.3797    1.2747 H   0  0  0  0  0  0  0  0  0  0  0  0
  1  2  1  0
  2  3  2  0
  3  4  1  0
  4  5  1  0
  4  6  2  0
  6  7  1  0
  7  8  2  0
  8  9  1  0
  9 10  1  0
 10 11  2  0
 11 12  1  0
 12 13  2  0
 13 14  1  0
 13 15  1  0
 15 16  2  0
 16 17  1  0
  8  2  1  0
 16 10  1  0
  1 18  1  0
  3 19  1  0
  6 20  1  0
  7 21  1  0
 11 22  1  0
 12 23  1  0
 15 24  1  0
M  END
$$$$
