@<TRIPOS>MOLECULE
*****
 24 25 0 0 0
SMALL
GASTEIGER

@<TRIPOS>ATOM
      1 O          -0.5441   -1.3145   -1.6816 O.3     1  UNL1       -0.5032
      2 C          -1.4771   -0.7980   -0.7756 C.ar    1  UNL1        0.1605
      3 C          -2.7610   -0.5623   -1.2624 C.ar    1  UNL1        0.0018
      4 C          -3.7576   -0.0589   -0.4665 C.ar    1  UNL1        0.0447
      5 CL         -5.3736    0.2401   -1.0705 Cl      1  UNL1       -0.0834
      6 C          -3.4506    0.2154    0.8608 C.ar    1  UNL1       -0.0397
      7 C          -2.1667   -0.0205    1.3466 C.ar    1  UNL1       -0.0143
      8 C          -1.1840   -0.5242    0.5344 C.ar    1  UNL1        0.1697
      9 O           0.0824   -0.7604    1.0031 O.3     1  UNL1       -0.4509
     10 C           1.2572   -0.2020    0.5870 C.ar    1  UNL1        0.1469
     11 C           1.3660    0.7469   -0.4061 C.ar    1  UNL1       -0.0165
     12 C           2.5784    1.2793   -0.7903 C.ar    1  UNL1       -0.0398
     13 C           3.7431    0.8684   -0.1780 C.ar    1  UNL1        0.0426
     14 CL          5.3084    1.5287   -0.6452 Cl      1  UNL1       -0.0835
     15 C           3.6306   -0.0802    0.8145 C.ar    1  UNL1       -0.0215
     16 C           2.4225   -0.6077    1.1940 C.ar    1  UNL1        0.0845
     17 CL          2.4163   -1.8095    2.4719 Cl      1  UNL1       -0.0797
     18 H          -0.5729   -0.9404   -2.6209 H       1  UNL1        0.2923
     19 H          -2.9659   -0.7858   -2.2966 H       1  UNL1        0.0670
     20 H          -4.2398    0.6162    1.4992 H       1  UNL1        0.0633
     21 H          -2.0067    0.2196    2.3940 H       1  UNL1        0.0656
     22 H           0.4537    1.1009   -0.9132 H       1  UNL1        0.0655
     23 H           2.6695    2.0287   -1.5740 H       1  UNL1        0.0633
     24 H           4.5718   -0.3797    1.2747 H       1  UNL1        0.0648
@<TRIPOS>BOND
     1     1     2    1
     2     2     3   ar
     3     3     4   ar
     4     4     5    1
     5     4     6   ar
     6     6     7   ar
     7     7     8   ar
     8     8     9    1
     9     9    10    1
    10    10    11   ar
    11    11    12   ar
    12    12    13   ar
    13    13    14    1
    14    13    15   ar
    15    15    16   ar
    16    16    17    1
    17     8     2   ar
    18    16    10   ar
    19     1    18    1
    20     3    19    1
    21     6    20    1
    22     7    21    1
    23    11    22    1
    24    12    23    1
    25    15    24    1
