
     RDKit          3D

 31 33  0  0  0  0  0  0  0  0999 V2000
    3.6434   -1.6980   -0.3157 C   0  0  0  0  0  0  0  0  0  0  0  0
    3.2201   -0.2805   -0.5882 C   0  0  0  0  0  0  0  0  0  0  0  0
    3.8846    0.7070    0.3001 C   0  0  0  0  0  0  0  0  0  0  0  0
    4.4493    1.5681    1.2268 O   0  0  0  0  0  0  0  0  0  0  0  0
    4.6265    1.6190   -0.2015 O   0  0  0  0  0  0  0  0  0  0  0  0
    1.7387   -0.1761   -0.4091 C   0  0  0  0  0  0  0  0  0  0  0  0
    0.8667    0.1633   -1.4241 C   0  0  0  0  0  0  0  0  0  0  0  0
   -0.4764    0.2197   -1.1073 C   0  0  0  0  0  0  0  0  0  0  0  0
   -0.9451   -0.0491    0.1660 C   0  0  0  0  0  0  0  0  0  0  0  0
   -0.0633   -0.3884    1.1770 C   0  0  0  0  0  0  0  0  0  0  0  0
    1.3022   -0.4545    0.8903 C   0  0  0  0  0  0  0  0  0  0  0  0
   -2.3113    0.1093    0.0809 C   0  0  0  0  0  0  0  0  0  0  0  0
   -2.6526    0.4674   -1.2248 C   0  0  0  0  0  0  0  0  0  0  0  0
   -1.4973    0.5260   -1.9288 N   0  0  0  0  0  0  0  0  0  0  0  0
   -3.9916    0.6755   -1.5213 C   0  0  0  0  0  0  0  0  0  0  0  0
   -4.9549    0.5277   -0.5354 C   0  0  0  0  0  0  0  0  0  0  0  0
   -4.6138    0.1706    0.7664 C   0  0  0  0  0  0  0  0  0  0  0  0
   -5.9169    0.0103    1.9402 Cl  0  0  0  0  0  0  0  0  0  0  0  0
   -3.2874   -0.0370    1.0660 C   0  0  0  0  0  0  0  0  0  0  0  0
    2.7758   -2.3458   -0.5678 H   0  0  0  0  0  0  0  0  0  0  0  0
    3.8510   -1.8351    0.7477 H   0  0  0  0  0  0  0  0  0  0  0  0
    4.4965   -2.0230   -0.9482 H   0  0  0  0  0  0  0  0  0  0  0  0
    3.4874   -0.0469   -1.6378 H   0  0  0  0  0  0  0  0  0  0  0  0
    4.2394    1.4189    2.2230 H   0  0  0  0  0  0  0  0  0  0  0  0
    1.2564    0.3636   -2.3896 H   0  0  0  0  0  0  0  0  0  0  0  0
   -0.4435   -0.5973    2.1730 H   0  0  0  0  0  0  0  0  0  0  0  0
    1.9854   -0.7208    1.6872 H   0  0  0  0  0  0  0  0  0  0  0  0
   -1.4401    0.7718   -2.9427 H   0  0  0  0  0  0  0  0  0  0  0  0
   -4.1763    0.9471   -2.5414 H   0  0  0  0  0  0  0  0  0  0  0  0
   -5.9911    0.6999   -0.8096 H   0  0  0  0  0  0  0  0  0  0  0  0
   -3.0619   -0.3128    2.0865 H   0  0  0  0  0  0  0  0  0  0  0  0
  1  2  1  0
  2  3  1  0
  3  4  1  0
  3  5  2  0
  2  6  1  0
  6  7  2  0
  7  8  1  0
  8  9  2  0
  9 10  1  0
 10 11  2  0
  9 12  1  0
 12 13  2  0
 13 14  1  0
 13 15  1  0
 15 16  2  0
 16 17  1  0
 17 18  1  0
 17 19  2  0
 11  6  1  0
 19 12  1  0
 14  8  1  0
  1 20  1  0
  1 21  1  0
  1 22  1  0
  2 23  1  0
  4 24  1  0
  7 25  1  0
 10 26  1  0
 11 27  1  0
 14 28  1  0
 15 29  1  0
 16 30  1  0
 19 31  1  0
M  END
$$$$
