@<TRIPOS>MOLECULE
*****
 43 45 0 0 0
SMALL
GASTEIGER

@<TRIPOS>ATOM
      1 C          -1.2886    1.2700   -0.9680 C.3     1  UNL1        0.1005
      2 S          -0.8732   -0.4996   -1.0274 S.3     1  UNL1       -0.1273
      3 C          -2.5536   -1.1428   -0.6858 C.3     1  UNL1        0.0417
      4 C          -2.9669   -2.2378   -1.5739 C.3     1  UNL1       -0.0484
      5 C          -2.7236   -1.4848    0.7613 C.3     1  UNL1       -0.0484
      6 CA         -3.3434    0.1524   -0.9095 C.3     1  UNL1        0.1379
      7 N          -2.5430    1.1825   -0.2413 N.am    1  UNL1       -0.2708
      8 C          -2.0638    2.2047    0.6300 C.2     1  UNL1        0.2402
      9 O          -2.6403    2.9310    1.4865 O.2     1  UNL1       -0.2734
     10 CA         -0.6897    2.0545    0.1278 C.3     1  UNL1        0.1277
     11 N           0.2720    1.4022    0.9693 N.am    1  UNL1       -0.3002
     12 C           1.4688    2.0903    1.2056 C.2     1  UNL1        0.2350
     13 O           1.7416    3.2240    0.7316 O.2     1  UNL1       -0.2737
     14 CA          2.5313    1.4750    2.0783 C.3     1  UNL1        0.1079
     15 N           3.6733    2.3357    2.1934 N.3     1  UNL1       -0.3163
     16 C           2.9843    0.2439    1.3372 C.ar    1  UNL1       -0.0219
     17 C           3.7694    0.5468    0.2196 C.ar    1  UNL1       -0.0566
     18 C           4.2774   -0.4510   -0.5852 C.ar    1  UNL1       -0.0614
     19 C           4.0198   -1.7686   -0.3020 C.ar    1  UNL1       -0.0617
     20 C           3.2438   -2.0441    0.8043 C.ar    1  UNL1       -0.0614
     21 C           2.7194   -1.0821    1.6305 C.ar    1  UNL1       -0.0566
     22 C          -3.4033    0.5090   -2.3337 C.2     1  UNL1        0.3269
     23 O          -3.0847    1.3386   -3.4012 O.3     1  UNL1       -0.4793
     24 OXT        -4.0663   -0.2946   -3.0381 O.2     1  UNL1       -0.2489
     25 H          -1.3138    1.7766   -1.9397 H       1  UNL1        0.0640
     26 H          -4.0765   -2.2134   -1.6688 H       1  UNL1        0.0244
     27 H          -2.5761   -2.2249   -2.5921 H       1  UNL1        0.0244
     28 H          -2.7472   -3.2088   -1.0428 H       1  UNL1        0.0244
     29 H          -3.3533   -2.3989    0.9159 H       1  UNL1        0.0244
     30 H          -1.7148   -1.5824    1.2171 H       1  UNL1        0.0244
     31 H          -3.2597   -0.6962    1.3552 H       1  UNL1        0.0244
     32 HA         -4.3590    0.1111   -0.5100 H       1  UNL1        0.0631
     33 HA         -0.3356    3.0411   -0.2253 H       1  UNL1        0.0622
     34 H           0.0525    0.4476    1.3736 H       1  UNL1        0.1496
     35 HA          2.1039    1.1245    3.0245 H       1  UNL1        0.0605
     36 H1          3.7114    2.9387    1.3425 H       1  UNL1        0.1192
     37 H2          4.5248    1.7577    2.2191 H       1  UNL1        0.1192
     38 H           4.0473    1.5502   -0.1146 H       1  UNL1        0.0621
     39 H           4.8922   -0.2619   -1.4637 H       1  UNL1        0.0618
     40 H           4.4111   -2.5734   -0.9244 H       1  UNL1        0.0618
     41 H           3.0101   -3.0734    1.0726 H       1  UNL1        0.0618
     42 H           2.1174   -1.2055    2.4948 H       1  UNL1        0.0621
     43 H          -3.5950    2.1776   -3.6431 H       1  UNL1        0.2951
@<TRIPOS>BOND
     1     1     2    1
     2     2     3    1
     3     3     4    1
     4     3     5    1
     5     3     6    1
     6     6     7    1
     7     7     8   am
     8     8     9    2
     9     8    10    1
    10    10    11    1
    11    11    12   am
    12    12    13    2
    13    12    14    1
    14    14    15    1
    15    14    16    1
    16    16    17   ar
    17    17    18   ar
    18    18    19   ar
    19    19    20   ar
    20    20    21   ar
    21     6    22    1
    22    22    23    1
    23    22    24    2
    24     7     1    1
    25    21    16   ar
    26    10     1    1
    27     1    25    1
    28     4    26    1
    29     4    27    1
    30     4    28    1
    31     5    29    1
    32     5    30    1
    33     5    31    1
    34     6    32    1
    35    10    33    1
    36    11    34    1
    37    14    35    1
    38    15    36    1
    39    15    37    1
    40    17    38    1
    41    18    39    1
    42    19    40    1
    43    20    41    1
    44    21    42    1
    45    23    43    1
