@<TRIPOS>MOLECULE
*****
 51 55 0 0 0
SMALL
GASTEIGER

@<TRIPOS>ATOM
      1 C           7.4130   -1.7970    0.5256 C.3     1  UNL1       -0.0073
      2 P           6.7758   -1.1819   -1.0606 P.3     1  UNL1        0.1106
      3 C           8.0551   -0.0598   -1.7216 C.3     1  UNL1       -0.0073
      4 O           6.4553   -2.2903   -1.9951 O.2     1  UNL1       -0.3167
      5 C           5.3542   -0.1549   -0.6963 C.ar    1  UNL1        0.0115
      6 C           5.5234    0.9467    0.1250 C.ar    1  UNL1       -0.0496
      7 C           4.4700    1.7817    0.4439 C.ar    1  UNL1       -0.0398
      8 C           3.1931    1.5528   -0.0457 C.ar    1  UNL1        0.0325
      9 N           2.1064    2.4121    0.2622 N.pl3   1  UNL1       -0.2976
     10 C           0.8194    2.0523   -0.2381 C.ar    1  UNL1        0.1539
     11 N           0.4525    2.2499   -1.4970 N.ar    1  UNL1       -0.2183
     12 C          -0.7781    1.8979   -1.9214 C.ar    1  UNL1        0.1205
     13 N          -1.6558    1.3391   -1.0724 N.ar    1  UNL1       -0.2157
     14 C          -1.3366    1.1165    0.2140 C.ar    1  UNL1        0.1693
     15 C          -0.0580    1.4807    0.6608 C.ar    1  UNL1        0.1481
     16 N          -0.0304    1.1528    1.9501 N.ar    1  UNL1       -0.2303
     17 C          -1.2087    0.6184    2.2954 C.ar    1  UNL1        0.1024
     18 N          -2.0453    0.5873    1.2111 N.ar    1  UNL1       -0.2899
     19 C          -3.3928    0.0610    1.2507 C.2     1  UNL1        0.0132
     20 C          -4.1730    0.0213    0.2085 C.2     1  UNL1       -0.0373
     21 C          -5.5244   -0.4577    0.0739 C.ar    1  UNL1       -0.0130
     22 C          -5.9558   -0.6126   -1.2628 C.ar    1  UNL1       -0.0538
     23 C          -7.2076   -1.0378   -1.5955 C.ar    1  UNL1       -0.0592
     24 C          -8.0893   -1.3286   -0.6003 C.ar    1  UNL1       -0.0363
     25 C          -7.6882   -1.1820    0.7169 C.ar    1  UNL1        0.0663
     26 N          -8.3481   -1.3730    1.8805 N.ar    1  UNL1       -0.2769
     27 N          -7.5572   -1.0814    2.8835 N.ar    1  UNL1       -0.1812
     28 C          -6.3382   -0.6852    2.4114 C.ar    1  UNL1        0.0574
     29 C          -6.4187   -0.7504    1.0511 C.ar    1  UNL1        0.0266
     30 C           3.0283    0.4514   -0.8656 C.ar    1  UNL1       -0.0398
     31 C           4.0944   -0.3929   -1.1879 C.ar    1  UNL1       -0.0496
     32 H           6.6847   -2.5277    0.9457 H       1  UNL1        0.0309
     33 H           7.4860   -0.9791    1.2553 H       1  UNL1        0.0309
     34 H           8.3548   -2.3539    0.3522 H       1  UNL1        0.0309
     35 H           9.0715   -0.4903   -1.5528 H       1  UNL1        0.0309
     36 H           7.9733    0.8847   -1.1327 H       1  UNL1        0.0309
     37 H           7.8634    0.2198   -2.7720 H       1  UNL1        0.0309
     38 H           6.5103    1.1789    0.5422 H       1  UNL1        0.0625
     39 H           4.5809    2.6525    1.0894 H       1  UNL1        0.0636
     40 H           2.1779    3.2781    0.8209 H       1  UNL1        0.1536
     41 H          -0.9947    2.0939   -2.9637 H       1  UNL1        0.1048
     42 H          -1.4652    0.2628    3.2881 H       1  UNL1        0.1033
     43 H          -3.7436   -0.3423    2.1639 H       1  UNL1        0.0814
     44 H          -3.6741    0.4559   -0.7010 H       1  UNL1        0.0638
     45 H          -5.2923   -0.3949   -2.1013 H       1  UNL1        0.0624
     46 H          -7.5271   -1.1554   -2.6195 H       1  UNL1        0.0618
     47 H          -9.0818   -1.6667   -0.8318 H       1  UNL1        0.0639
     48 H          -9.3533   -1.7100    1.8977 H       1  UNL1        0.1889
     49 H          -5.5096   -0.3717    3.0067 H       1  UNL1        0.0854
     50 H           2.0507    0.2455   -1.2624 H       1  UNL1        0.0636
     51 H           3.9532   -1.2477   -1.8291 H       1  UNL1        0.0625
@<TRIPOS>BOND
     1     1     2    1
     2     2     3    1
     3     2     4    2
     4     2     5    1
     5     5     6   ar
     6     6     7   ar
     7     7     8   ar
     8     8     9    1
     9     9    10    1
    10    10    11   ar
    11    11    12   ar
    12    12    13   ar
    13    13    14   ar
    14    14    15   ar
    15    15    16   ar
    16    16    17   ar
    17    17    18   ar
    18    18    19    1
    19    19    20    2
    20    20    21    1
    21    21    22   ar
    22    22    23   ar
    23    23    24   ar
    24    24    25   ar
    25    25    26   ar
    26    26    27   ar
    27    27    28   ar
    28    28    29   ar
    29     8    30   ar
    30    30    31   ar
    31    31     5   ar
    32    15    10   ar
    33    29    21   ar
    34    18    14   ar
    35    29    25   ar
    36     1    32    1
    37     1    33    1
    38     1    34    1
    39     3    35    1
    40     3    36    1
    41     3    37    1
    42     6    38    1
    43     7    39    1
    44     9    40    1
    45    12    41    1
    46    17    42    1
    47    19    43    1
    48    20    44    1
    49    22    45    1
    50    23    46    1
    51    24    47    1
    52    26    48    1
    53    28    49    1
    54    30    50    1
    55    31    51    1
