
     RDKit          3D

 51 55  0  0  0  0  0  0  0  0999 V2000
    7.4130   -1.7970    0.5256 C   0  0  0  0  0  0  0  0  0  0  0  0
    6.7758   -1.1819   -1.0606 P   0  0  0  0  0  5  0  0  0  0  0  0
    8.0551   -0.0598   -1.7216 C   0  0  0  0  0  0  0  0  0  0  0  0
    6.4553   -2.2903   -1.9951 O   0  0  0  0  0  0  0  0  0  0  0  0
    5.3542   -0.1549   -0.6963 C   0  0  0  0  0  0  0  0  0  0  0  0
    5.5234    0.9467    0.1250 C   0  0  0  0  0  0  0  0  0  0  0  0
    4.4700    1.7817    0.4439 C   0  0  0  0  0  0  0  0  0  0  0  0
    3.1931    1.5528   -0.0457 C   0  0  0  0  0  0  0  0  0  0  0  0
    2.1064    2.4121    0.2622 N   0  0  0  0  0  0  0  0  0  0  0  0
    0.8194    2.0523   -0.2381 C   0  0  0  0  0  0  0  0  0  0  0  0
    0.4525    2.2499   -1.4970 N   0  0  0  0  0  0  0  0  0  0  0  0
   -0.7781    1.8979   -1.9214 C   0  0  0  0  0  0  0  0  0  0  0  0
   -1.6558    1.3391   -1.0724 N   0  0  0  0  0  0  0  0  0  0  0  0
   -1.3366    1.1165    0.2140 C   0  0  0  0  0  0  0  0  0  0  0  0
   -0.0580    1.4807    0.6608 C   0  0  0  0  0  0  0  0  0  0  0  0
   -0.0304    1.1528    1.9501 N   0  0  0  0  0  0  0  0  0  0  0  0
   -1.2087    0.6184    2.2954 C   0  0  0  0  0  0  0  0  0  0  0  0
   -2.0453    0.5873    1.2111 N   0  0  0  0  0  0  0  0  0  0  0  0
   -3.3928    0.0610    1.2507 C   0  0  0  0  0  0  0  0  0  0  0  0
   -4.1730    0.0213    0.2085 C   0  0  0  0  0  0  0  0  0  0  0  0
   -5.5244   -0.4577    0.0739 C   0  0  0  0  0  0  0  0  0  0  0  0
   -5.9558   -0.6126   -1.2628 C   0  0  0  0  0  0  0  0  0  0  0  0
   -7.2076   -1.0378   -1.5955 C   0  0  0  0  0  0  0  0  0  0  0  0
   -8.0893   -1.3286   -0.6003 C   0  0  0  0  0  0  0  0  0  0  0  0
   -7.6882   -1.1820    0.7169 C   0  0  0  0  0  0  0  0  0  0  0  0
   -8.3481   -1.3730    1.8805 N   0  0  0  0  0  0  0  0  0  0  0  0
   -7.5572   -1.0814    2.8835 N   0  0  0  0  0  0  0  0  0  0  0  0
   -6.3382   -0.6852    2.4114 C   0  0  0  0  0  0  0  0  0  0  0  0
   -6.4187   -0.7504    1.0511 C   0  0  0  0  0  0  0  0  0  0  0  0
    3.0283    0.4514   -0.8656 C   0  0  0  0  0  0  0  0  0  0  0  0
    4.0944   -0.3929   -1.1879 C   0  0  0  0  0  0  0  0  0  0  0  0
    6.6847   -2.5277    0.9457 H   0  0  0  0  0  0  0  0  0  0  0  0
    7.4860   -0.9791    1.2553 H   0  0  0  0  0  0  0  0  0  0  0  0
    8.3548   -2.3539    0.3522 H   0  0  0  0  0  0  0  0  0  0  0  0
    9.0715   -0.4903   -1.5528 H   0  0  0  0  0  0  0  0  0  0  0  0
    7.9733    0.8847   -1.1327 H   0  0  0  0  0  0  0  0  0  0  0  0
    7.8634    0.2198   -2.7720 H   0  0  0  0  0  0  0  0  0  0  0  0
    6.5103    1.1789    0.5422 H   0  0  0  0  0  0  0  0  0  0  0  0
    4.5809    2.6525    1.0894 H   0  0  0  0  0  0  0  0  0  0  0  0
    2.1779    3.2781    0.8209 H   0  0  0  0  0  0  0  0  0  0  0  0
   -0.9947    2.0939   -2.9637 H   0  0  0  0  0  0  0  0  0  0  0  0
   -1.4652    0.2628    3.2881 H   0  0  0  0  0  0  0  0  0  0  0  0
   -3.7436   -0.3423    2.1639 H   0  0  0  0  0  0  0  0  0  0  0  0
   -3.6741    0.4559   -0.7010 H   0  0  0  0  0  0  0  0  0  0  0  0
   -5.2923   -0.3949   -2.1013 H   0  0  0  0  0  0  0  0  0  0  0  0
   -7.5271   -1.1554   -2.6195 H   0  0  0  0  0  0  0  0  0  0  0  0
   -9.0818   -1.6667   -0.8318 H   0  0  0  0  0  0  0  0  0  0  0  0
   -9.3533   -1.7100    1.8977 H   0  0  0  0  0  0  0  0  0  0  0  0
   -5.5096   -0.3717    3.0067 H   0  0  0  0  0  0  0  0  0  0  0  0
    2.0507    0.2455   -1.2624 H   0  0  0  0  0  0  0  0  0  0  0  0
    3.9532   -1.2477   -1.8291 H   0  0  0  0  0  0  0  0  0  0  0  0
  1  2  1  0
  2  3  1  0
  2  4  2  0
  2  5  1  0
  5  6  2  0
  6  7  1  0
  7  8  2  0
  8  9  1  0
  9 10  1  0
 10 11  2  0
 11 12  1  0
 12 13  2  0
 13 14  1  0
 14 15  2  0
 15 16  1  0
 16 17  2  0
 17 18  1  0
 18 19  1  0
 19 20  2  0
 20 21  1  0
 21 22  2  0
 22 23  1  0
 23 24  2  0
 24 25  1  0
 25 26  1  0
 26 27  1  0
 27 28  2  0
 28 29  1  0
  8 30  1  0
 30 31  2  0
 31  5  1  0
 15 10  1  0
 29 21  1  0
 18 14  1  0
 29 25  2  0
  1 32  1  0
  1 33  1  0
  1 34  1  0
  3 35  1  0
  3 36  1  0
  3 37  1  0
  6 38  1  0
  7 39  1  0
  9 40  1  0
 12 41  1  0
 17 42  1  0
 19 43  1  0
 20 44  1  0
 22 45  1  0
 23 46  1  0
 24 47  1  0
 26 48  1  0
 28 49  1  0
 30 50  1  0
 31 51  1  0
M  END
$$$$
