
     RDKit          3D

 45 46  0  0  0  0  0  0  0  0999 V2000
    3.5573    0.1195    2.2474 C   0  0  0  0  0  0  0  0  0  0  0  0
    4.0879   -0.6365    1.0603 C   0  0  0  0  0  0  0  0  0  0  0  0
    3.7743    0.0264   -0.1286 N   0  0  0  0  0  0  0  0  0  0  0  0
    4.2699   -0.5600   -1.3356 C   0  0  0  0  0  0  0  0  0  0  0  0
    3.5274    0.1063   -2.4654 C   0  0  0  0  0  0  0  0  0  0  0  0
    2.3621    0.8311   -1.8326 C   0  0  0  0  0  0  0  0  0  0  0  0
    2.4719    0.5335   -0.3460 C   0  0  1  0  0  0  0  0  0  0  0  0
    1.3347   -0.3340    0.0739 C   0  0  0  0  0  0  0  0  0  0  0  0
    0.0996    0.3606   -0.2348 N   0  0  0  0  0  0  0  0  0  0  0  0
   -1.0552   -0.3678    0.1245 C   0  0  0  0  0  0  0  0  0  0  0  0
   -0.7137   -1.4717    0.6333 O   0  0  0  0  0  0  0  0  0  0  0  0
   -2.4585   -0.0683    0.0062 C   0  0  0  0  0  0  0  0  0  0  0  0
   -3.3298   -1.0997    0.3422 C   0  0  0  0  0  0  0  0  0  0  0  0
   -2.9014   -2.3458    0.7772 O   0  0  0  0  0  0  0  0  0  0  0  0
   -3.8098   -3.3671    1.1096 C   0  0  0  0  0  0  0  0  0  0  0  0
   -4.6950   -0.8924    0.2446 C   0  0  0  0  0  0  0  0  0  0  0  0
   -5.2594    0.2890   -0.1709 C   0  0  0  0  0  0  0  0  0  0  0  0
   -4.3955    1.3137   -0.5038 C   0  0  0  0  0  0  0  0  0  0  0  0
   -5.1279    2.9552   -1.0788 Br  0  0  0  0  0  0  0  0  0  0  0  0
   -3.0409    1.0861   -0.3987 C   0  0  0  0  0  0  0  0  0  0  0  0
   -2.2538    2.1733   -0.7470 O   0  0  0  0  0  0  0  0  0  0  0  0
   -1.9243    3.1494    0.2597 C   0  0  0  0  0  0  0  0  0  0  0  0
    2.9524   -0.5377    2.9126 H   0  0  0  0  0  0  0  0  0  0  0  0
    4.3933    0.5573    2.8543 H   0  0  0  0  0  0  0  0  0  0  0  0
    2.9223    0.9850    1.9901 H   0  0  0  0  0  0  0  0  0  0  0  0
    5.2143   -0.6574    1.1469 H   0  0  0  0  0  0  0  0  0  0  0  0
    3.8010   -1.7091    1.1089 H   0  0  0  0  0  0  0  0  0  0  0  0
    5.3573   -0.2998   -1.3606 H   0  0  0  0  0  0  0  0  0  0  0  0
    4.1576   -1.6564   -1.3418 H   0  0  0  0  0  0  0  0  0  0  0  0
    3.1257   -0.6207   -3.2015 H   0  0  0  0  0  0  0  0  0  0  0  0
    4.1857    0.8501   -2.9707 H   0  0  0  0  0  0  0  0  0  0  0  0
    2.4164    1.9208   -2.0534 H   0  0  0  0  0  0  0  0  0  0  0  0
    1.3937    0.4693   -2.2051 H   0  0  0  0  0  0  0  0  0  0  0  0
    2.3817    1.5201    0.1539 H   0  0  0  0  0  0  0  0  0  0  0  0
    1.3881   -1.2519   -0.5801 H   0  0  0  0  0  0  0  0  0  0  0  0
    1.3734   -0.6154    1.1283 H   0  0  0  0  0  0  0  0  0  0  0  0
   -0.0671    1.2739   -0.6719 H   0  0  0  0  0  0  0  0  0  0  0  0
   -4.4228   -3.6836    0.2411 H   0  0  0  0  0  0  0  0  0  0  0  0
   -3.2730   -4.2150    1.5529 H   0  0  0  0  0  0  0  0  0  0  0  0
   -4.5365   -2.9771    1.8769 H   0  0  0  0  0  0  0  0  0  0  0  0
   -5.3684   -1.7102    0.5117 H   0  0  0  0  0  0  0  0  0  0  0  0
   -6.3223    0.4338   -0.2420 H   0  0  0  0  0  0  0  0  0  0  0  0
   -2.8187    3.2697    0.9099 H   0  0  0  0  0  0  0  0  0  0  0  0
   -1.6765    4.0699   -0.2839 H   0  0  0  0  0  0  0  0  0  0  0  0
   -1.0975    2.7836    0.8873 H   0  0  0  0  0  0  0  0  0  0  0  0
  1  2  1  0
  2  3  1  0
  3  4  1  0
  4  5  1  0
  5  6  1  0
  6  7  1  0
  7  8  1  0
  8  9  1  0
  9 10  1  0
 10 11  2  0
 10 12  1  0
 12 13  2  0
 13 14  1  0
 14 15  1  0
 13 16  1  0
 16 17  2  0
 17 18  1  0
 18 19  1  0
 18 20  2  0
 20 21  1  0
 21 22  1  0
  7  3  1  0
 20 12  1  0
  1 23  1  0
  1 24  1  0
  1 25  1  0
  2 26  1  0
  2 27  1  0
  4 28  1  0
  4 29  1  0
  5 30  1  0
  5 31  1  0
  6 32  1  0
  6 33  1  0
  7 34  1  1
  8 35  1  0
  8 36  1  0
  9 37  1  0
 15 38  1  0
 15 39  1  0
 15 40  1  0
 16 41  1  0
 17 42  1  0
 22 43  1  0
 22 44  1  0
 22 45  1  0
M  END
$$$$
