@<TRIPOS>MOLECULE
*****
 45 46 0 0 0
SMALL
GASTEIGER

@<TRIPOS>ATOM
      1 C           3.5573    0.1195    2.2474 C.3     1  UNL1       -0.0523
      2 C           4.0879   -0.6365    1.0603 C.3     1  UNL1       -0.0036
      3 N           3.7743    0.0264   -0.1286 N.3     1  UNL1       -0.2982
      4 C           4.2699   -0.5600   -1.3356 C.3     1  UNL1       -0.0007
      5 C           3.5274    0.1063   -2.4654 C.3     1  UNL1       -0.0387
      6 C           2.3621    0.8311   -1.8326 C.3     1  UNL1       -0.0347
      7 C           2.4719    0.5335   -0.3460 C.3     1  UNL1        0.0260
      8 C           1.3347   -0.3340    0.0739 C.3     1  UNL1        0.0275
      9 N           0.0996    0.3606   -0.2348 N.am    1  UNL1       -0.3097
     10 C          -1.0552   -0.3678    0.1245 C.2     1  UNL1        0.2513
     11 O          -0.7137   -1.4717    0.6333 O.2     1  UNL1       -0.2699
     12 C          -2.4585   -0.0683    0.0062 C.ar    1  UNL1        0.1208
     13 C          -3.3298   -1.0997    0.3422 C.ar    1  UNL1        0.1358
     14 O          -2.9014   -2.3458    0.7772 O.3     1  UNL1       -0.4942
     15 C          -3.8098   -3.3671    1.1096 C.3     1  UNL1        0.0788
     16 C          -4.6950   -0.8924    0.2446 C.ar    1  UNL1       -0.0179
     17 C          -5.2594    0.2890   -0.1709 C.ar    1  UNL1       -0.0407
     18 C          -4.3955    1.3137   -0.5038 C.ar    1  UNL1        0.0604
     19 BR         -5.1279    2.9552   -1.0788 Br      1  UNL1       -0.0465
     20 C          -3.0409    1.0861   -0.3987 C.ar    1  UNL1        0.1496
     21 O          -2.2538    2.1733   -0.7470 O.3     1  UNL1       -0.4931
     22 C          -1.9243    3.1494    0.2597 C.3     1  UNL1        0.0789
     23 H           2.9524   -0.5377    2.9126 H       1  UNL1        0.0242
     24 H           4.3933    0.5573    2.8543 H       1  UNL1        0.0242
     25 H           2.9223    0.9850    1.9901 H       1  UNL1        0.0242
     26 H           5.2143   -0.6574    1.1469 H       1  UNL1        0.0424
     27 H           3.8010   -1.7091    1.1089 H       1  UNL1        0.0424
     28 H           5.3573   -0.2998   -1.3606 H       1  UNL1        0.0427
     29 H           4.1576   -1.6564   -1.3418 H       1  UNL1        0.0427
     30 H           3.1257   -0.6207   -3.2015 H       1  UNL1        0.0278
     31 H           4.1857    0.8501   -2.9707 H       1  UNL1        0.0278
     32 H           2.4164    1.9208   -2.0534 H       1  UNL1        0.0281
     33 H           1.3937    0.4693   -2.2051 H       1  UNL1        0.0281
     34 H           2.3817    1.5201    0.1539 H       1  UNL1        0.0478
     35 H           1.3881   -1.2519   -0.5801 H       1  UNL1        0.0477
     36 H           1.3734   -0.6154    1.1283 H       1  UNL1        0.0477
     37 H          -0.0671    1.2739   -0.6719 H       1  UNL1        0.1491
     38 H          -4.4228   -3.6836    0.2411 H       1  UNL1        0.0660
     39 H          -3.2730   -4.2150    1.5529 H       1  UNL1        0.0660
     40 H          -4.5365   -2.9771    1.8769 H       1  UNL1        0.0660
     41 H          -5.3684   -1.7102    0.5117 H       1  UNL1        0.0655
     42 H          -6.3223    0.4338   -0.2420 H       1  UNL1        0.0631
     43 H          -2.8187    3.2697    0.9099 H       1  UNL1        0.0660
     44 H          -1.6765    4.0699   -0.2839 H       1  UNL1        0.0660
     45 H          -1.0975    2.7836    0.8873 H       1  UNL1        0.0660
@<TRIPOS>BOND
     1     1     2    1
     2     2     3    1
     3     3     4    1
     4     4     5    1
     5     5     6    1
     6     6     7    1
     7     7     8    1
     8     8     9    1
     9     9    10   am
    10    10    11    2
    11    10    12    1
    12    12    13   ar
    13    13    14    1
    14    14    15    1
    15    13    16   ar
    16    16    17   ar
    17    17    18   ar
    18    18    19    1
    19    18    20   ar
    20    20    21    1
    21    21    22    1
    22     7     3    1
    23    20    12   ar
    24     1    23    1
    25     1    24    1
    26     1    25    1
    27     2    26    1
    28     2    27    1
    29     4    28    1
    30     4    29    1
    31     5    30    1
    32     5    31    1
    33     6    32    1
    34     6    33    1
    35     7    34    1
    36     8    35    1
    37     8    36    1
    38     9    37    1
    39    15    38    1
    40    15    39    1
    41    15    40    1
    42    16    41    1
    43    17    42    1
    44    22    43    1
    45    22    44    1
    46    22    45    1
