
     RDKit          3D

 43 45  0  0  0  0  0  0  0  0999 V2000
   -4.1832   -2.7756    1.1363 C   0  0  0  0  0  0  0  0  0  0  0  0
   -3.4836   -2.5818   -0.1905 C   0  0  0  0  0  0  0  0  0  0  0  0
   -3.7105   -3.8269   -1.0225 C   0  0  0  0  0  0  0  0  0  0  0  0
   -2.0519   -2.4242   -0.0227 N   0  0  0  0  0  0  0  0  0  0  0  0
   -1.2054   -3.4467    0.1895 C   0  0  0  0  0  0  0  0  0  0  0  0
    0.0139   -2.8907    0.2898 N   0  0  0  0  0  0  0  0  0  0  0  0
   -0.0315   -1.5551    0.1487 C   0  0  0  0  0  0  0  0  0  0  0  0
    0.9095   -0.5275    0.1655 C   0  0  0  0  0  0  0  0  0  0  0  0
    2.2599   -0.8731    0.3815 N   0  0  0  0  0  0  0  0  0  0  0  0
    3.3632    0.0081    0.4048 C   0  0  0  0  0  0  0  0  0  0  0  0
    3.3591    1.3211    0.0110 C   0  0  0  0  0  0  0  0  0  0  0  0
    4.5186    2.1069    0.0892 C   0  0  0  0  0  0  0  0  0  0  0  0
    5.7082    1.6030    0.5611 C   0  0  0  0  0  0  0  0  0  0  0  0
    5.7223    0.2850    0.9587 C   0  0  0  0  0  0  0  0  0  0  0  0
    7.2382   -0.3588    1.5608 Cl  0  0  0  0  0  0  0  0  0  0  0  0
    4.5824   -0.4857    0.8814 C   0  0  0  0  0  0  0  0  0  0  0  0
    0.4416    0.7152   -0.0204 N   0  0  0  0  0  0  0  0  0  0  0  0
   -0.8419    1.0344   -0.2176 C   0  0  0  0  0  0  0  0  0  0  0  0
   -1.2657    2.4003   -0.4102 N   0  0  0  0  0  0  0  0  0  0  0  0
   -0.3521    3.4948   -0.4041 C   0  0  0  0  0  0  0  0  0  0  0  0
   -1.1256    4.7760   -0.6311 C   0  0  0  0  0  0  0  0  0  0  0  0
   -1.7739    4.7161   -1.8481 O   0  0  0  0  0  0  0  0  0  0  0  0
   -1.7314    0.0250   -0.2296 N   0  0  0  0  0  0  0  0  0  0  0  0
   -1.3806   -1.2584   -0.0546 C   0  0  0  0  0  0  0  0  0  0  0  0
   -3.5308   -2.5370    1.9968 H   0  0  0  0  0  0  0  0  0  0  0  0
   -5.0854   -2.1160    1.1981 H   0  0  0  0  0  0  0  0  0  0  0  0
   -4.5399   -3.8181    1.2524 H   0  0  0  0  0  0  0  0  0  0  0  0
   -3.9099   -1.7050   -0.6843 H   0  0  0  0  0  0  0  0  0  0  0  0
   -4.7428   -3.7650   -1.4463 H   0  0  0  0  0  0  0  0  0  0  0  0
   -3.5949   -4.7053   -0.3390 H   0  0  0  0  0  0  0  0  0  0  0  0
   -2.9497   -3.8401   -1.8293 H   0  0  0  0  0  0  0  0  0  0  0  0
   -1.4860   -4.4911    0.2594 H   0  0  0  0  0  0  0  0  0  0  0  0
    2.4435   -1.9185    0.5397 H   0  0  0  0  0  0  0  0  0  0  0  0
    2.4427    1.7452   -0.3687 H   0  0  0  0  0  0  0  0  0  0  0  0
    4.4525    3.1426   -0.2385 H   0  0  0  0  0  0  0  0  0  0  0  0
    6.5756    2.2446    0.6034 H   0  0  0  0  0  0  0  0  0  0  0  0
    4.6275   -1.5341    1.2075 H   0  0  0  0  0  0  0  0  0  0  0  0
   -2.2836    2.5695   -0.5577 H   0  0  0  0  0  0  0  0  0  0  0  0
    0.1584    3.5023    0.5901 H   0  0  0  0  0  0  0  0  0  0  0  0
    0.4101    3.3509   -1.2128 H   0  0  0  0  0  0  0  0  0  0  0  0
   -0.4724    5.6694   -0.5201 H   0  0  0  0  0  0  0  0  0  0  0  0
   -1.9012    4.8736    0.1528 H   0  0  0  0  0  0  0  0  0  0  0  0
   -1.5934    3.8505   -2.3304 H   0  0  0  0  0  0  0  0  0  0  0  0
  1  2  1  0
  2  3  1  0
  2  4  1  0
  4  5  1  0
  5  6  2  0
  6  7  1  0
  7  8  2  0
  8  9  1  0
  9 10  1  0
 10 11  2  0
 11 12  1  0
 12 13  2  0
 13 14  1  0
 14 15  1  0
 14 16  2  0
  8 17  1  0
 17 18  2  0
 18 19  1  0
 19 20  1  0
 20 21  1  0
 21 22  1  0
 18 23  1  0
 23 24  2  0
 24  4  1  0
 24  7  1  0
 16 10  1  0
  1 25  1  0
  1 26  1  0
  1 27  1  0
  2 28  1  0
  3 29  1  0
  3 30  1  0
  3 31  1  0
  5 32  1  0
  9 33  1  0
 11 34  1  0
 12 35  1  0
 13 36  1  0
 16 37  1  0
 19 38  1  0
 20 39  1  0
 20 40  1  0
 21 41  1  0
 21 42  1  0
 22 43  1  0
M  END
$$$$
