@<TRIPOS>MOLECULE
*****
 43 45 0 0 0
SMALL
GASTEIGER

@<TRIPOS>ATOM
      1 C          -4.1832   -2.7756    1.1363 C.3     1  UNL1       -0.0444
      2 C          -3.4836   -2.5818   -0.1905 C.3     1  UNL1        0.0317
      3 C          -3.7105   -3.8269   -1.0225 C.3     1  UNL1       -0.0444
      4 N          -2.0519   -2.4242   -0.0227 N.ar    1  UNL1       -0.3123
      5 C          -1.2054   -3.4467    0.1895 C.ar    1  UNL1        0.0986
      6 N           0.0139   -2.8907    0.2898 N.ar    1  UNL1       -0.2306
      7 C          -0.0315   -1.5551    0.1487 C.ar    1  UNL1        0.1479
      8 C           0.9095   -0.5275    0.1655 C.ar    1  UNL1        0.1558
      9 N           2.2599   -0.8731    0.3815 N.pl3   1  UNL1       -0.2975
     10 C           3.3632    0.0081    0.4048 C.ar    1  UNL1        0.0338
     11 C           3.3591    1.3211    0.0110 C.ar    1  UNL1       -0.0404
     12 C           4.5186    2.1069    0.0892 C.ar    1  UNL1       -0.0586
     13 C           5.7082    1.6030    0.5611 C.ar    1  UNL1       -0.0433
     14 C           5.7223    0.2850    0.9587 C.ar    1  UNL1        0.0427
     15 CL          7.2382   -0.3588    1.5608 Cl      1  UNL1       -0.0835
     16 C           4.5824   -0.4857    0.8814 C.ar    1  UNL1       -0.0222
     17 N           0.4416    0.7152   -0.0204 N.ar    1  UNL1       -0.1971
     18 C          -0.8419    1.0344   -0.2176 C.ar    1  UNL1        0.2189
     19 N          -1.2657    2.4003   -0.4102 N.pl3   1  UNL1       -0.3112
     20 C          -0.3521    3.4948   -0.4041 C.3     1  UNL1        0.0350
     21 C          -1.1256    4.7760   -0.6311 C.3     1  UNL1        0.0597
     22 O          -1.7739    4.7161   -1.8481 O.3     1  UNL1       -0.3935
     23 N          -1.7314    0.0250   -0.2296 N.ar    1  UNL1       -0.1947
     24 C          -1.3806   -1.2584   -0.0546 C.ar    1  UNL1        0.1675
     25 H          -3.5308   -2.5370    1.9968 H       1  UNL1        0.0249
     26 H          -5.0854   -2.1160    1.1981 H       1  UNL1        0.0249
     27 H          -4.5399   -3.8181    1.2524 H       1  UNL1        0.0249
     28 H          -3.9099   -1.7050   -0.6843 H       1  UNL1        0.0523
     29 H          -4.7428   -3.7650   -1.4463 H       1  UNL1        0.0249
     30 H          -3.5949   -4.7053   -0.3390 H       1  UNL1        0.0249
     31 H          -2.9497   -3.8401   -1.8293 H       1  UNL1        0.0249
     32 H          -1.4860   -4.4911    0.2594 H       1  UNL1        0.1029
     33 H           2.4435   -1.9185    0.5397 H       1  UNL1        0.1536
     34 H           2.4427    1.7452   -0.3687 H       1  UNL1        0.0636
     35 H           4.4525    3.1426   -0.2385 H       1  UNL1        0.0619
     36 H           6.5756    2.2446    0.6034 H       1  UNL1        0.0632
     37 H           4.6275   -1.5341    1.2075 H       1  UNL1        0.0651
     38 H          -2.2836    2.5695   -0.5577 H       1  UNL1        0.1490
     39 H           0.1584    3.5023    0.5901 H       1  UNL1        0.0484
     40 H           0.4101    3.3509   -1.2128 H       1  UNL1        0.0484
     41 H          -0.4724    5.6694   -0.5201 H       1  UNL1        0.0573
     42 H          -1.9012    4.8736    0.1528 H       1  UNL1        0.0573
     43 H          -1.5934    3.8505   -2.3304 H       1  UNL1        0.2095
@<TRIPOS>BOND
     1     1     2    1
     2     2     3    1
     3     2     4    1
     4     4     5   ar
     5     5     6   ar
     6     6     7   ar
     7     7     8   ar
     8     8     9    1
     9     9    10    1
    10    10    11   ar
    11    11    12   ar
    12    12    13   ar
    13    13    14   ar
    14    14    15    1
    15    14    16   ar
    16     8    17   ar
    17    17    18   ar
    18    18    19    1
    19    19    20    1
    20    20    21    1
    21    21    22    1
    22    18    23   ar
    23    23    24   ar
    24    24     4   ar
    25    24     7   ar
    26    16    10   ar
    27     1    25    1
    28     1    26    1
    29     1    27    1
    30     2    28    1
    31     3    29    1
    32     3    30    1
    33     3    31    1
    34     5    32    1
    35     9    33    1
    36    11    34    1
    37    12    35    1
    38    13    36    1
    39    16    37    1
    40    19    38    1
    41    20    39    1
    42    20    40    1
    43    21    41    1
    44    21    42    1
    45    22    43    1
