@<TRIPOS>MOLECULE
*****
 45 47 0 0 0
SMALL
GASTEIGER

@<TRIPOS>ATOM
      1 C          -4.4752   -1.8027   -1.7422 C.3     1  UNL1       -0.0494
      2 C          -4.0376   -1.6430   -0.3213 C.3     1  UNL1        0.0094
      3 N          -3.2405   -0.4567   -0.0895 N.pl3   1  UNL1       -0.3299
      4 C          -3.8375    0.8553   -0.1927 C.3     1  UNL1        0.0127
      5 C          -2.8732    1.9413    0.1495 C.3     1  UNL1       -0.0306
      6 C          -2.0430    1.5701    1.3652 C.3     1  UNL1       -0.0155
      7 C          -1.2157    2.7638    1.7980 C.3     1  UNL1       -0.0583
      8 C          -1.2038    0.4111    0.9771 C.ar    1  UNL1       -0.0232
      9 C           0.1362    0.2937    1.3036 C.ar    1  UNL1       -0.0531
     10 C           0.8552   -0.8156    0.9084 C.ar    1  UNL1       -0.0425
     11 C           2.2807   -0.9656    1.2430 C.3     1  UNL1        0.0023
     12 C           3.1872   -0.3961    0.2300 C.ar    1  UNL1        0.0146
     13 C           2.7758    0.2327   -0.9160 C.ar    1  UNL1        0.0379
     14 N           3.6995    0.7171   -1.7725 N.ar    1  UNL1       -0.2227
     15 C           5.0266    0.6157   -1.5609 C.ar    1  UNL1        0.2142
     16 N           5.9762    1.1446   -2.4981 N.pl3   1  UNL1       -0.3274
     17 N           5.4333   -0.0037   -0.4324 N.ar    1  UNL1       -0.1999
     18 C           4.5445   -0.5078    0.4605 C.ar    1  UNL1        0.1247
     19 N           5.0668   -1.1449    1.6219 N.pl3   1  UNL1       -0.3428
     20 C           0.1810   -1.7784    0.1871 C.ar    1  UNL1       -0.0565
     21 C          -1.1452   -1.6856   -0.1488 C.ar    1  UNL1       -0.0401
     22 C          -1.8565   -0.5868    0.2428 C.ar    1  UNL1        0.0332
     23 H          -4.3134   -0.8513   -2.2723 H       1  UNL1        0.0245
     24 H          -3.8916   -2.5961   -2.2485 H       1  UNL1        0.0245
     25 H          -5.5560   -2.1202   -1.7862 H       1  UNL1        0.0245
     26 H          -3.5633   -2.5558    0.0873 H       1  UNL1        0.0461
     27 H          -4.9673   -1.5025    0.3045 H       1  UNL1        0.0461
     28 H          -4.1090    0.9850   -1.2717 H       1  UNL1        0.0464
     29 H          -4.7840    0.9403    0.3641 H       1  UNL1        0.0464
     30 H          -3.4480    2.8731    0.3262 H       1  UNL1        0.0286
     31 H          -2.1799    2.1159   -0.7010 H       1  UNL1        0.0286
     32 H          -2.7734    1.2986    2.1639 H       1  UNL1        0.0347
     33 H          -1.9438    3.6143    1.8989 H       1  UNL1        0.0236
     34 H          -0.8428    2.5492    2.8092 H       1  UNL1        0.0236
     35 H          -0.4339    2.9667    1.0649 H       1  UNL1        0.0236
     36 H           0.5858    1.1034    1.8765 H       1  UNL1        0.0624
     37 H           2.5246   -2.0529    1.3215 H       1  UNL1        0.0363
     38 H           2.5112   -0.5008    2.2211 H       1  UNL1        0.0363
     39 H           1.7209    0.3289   -1.1130 H       1  UNL1        0.0834
     40 H           6.7811    0.5010   -2.7173 H       1  UNL1        0.1452
     41 H           5.8755    2.0818   -2.9219 H       1  UNL1        0.1452
     42 H           5.1039   -2.1920    1.6261 H       1  UNL1        0.1437
     43 H           5.4035   -0.6230    2.4436 H       1  UNL1        0.1437
     44 H           0.7300   -2.6626   -0.1342 H       1  UNL1        0.0621
     45 H          -1.6649   -2.4596   -0.7211 H       1  UNL1        0.0636
@<TRIPOS>BOND
     1     1     2    1
     2     2     3    1
     3     3     4    1
     4     4     5    1
     5     5     6    1
     6     6     7    1
     7     6     8    1
     8     8     9   ar
     9     9    10   ar
    10    10    11    1
    11    11    12    1
    12    12    13   ar
    13    13    14   ar
    14    14    15   ar
    15    15    16    1
    16    15    17   ar
    17    17    18   ar
    18    18    19    1
    19    10    20   ar
    20    20    21   ar
    21    21    22   ar
    22    22     3    1
    23    22     8   ar
    24    18    12   ar
    25     1    23    1
    26     1    24    1
    27     1    25    1
    28     2    26    1
    29     2    27    1
    30     4    28    1
    31     4    29    1
    32     5    30    1
    33     5    31    1
    34     6    32    1
    35     7    33    1
    36     7    34    1
    37     7    35    1
    38     9    36    1
    39    11    37    1
    40    11    38    1
    41    13    39    1
    42    16    40    1
    43    16    41    1
    44    19    42    1
    45    19    43    1
    46    20    44    1
    47    21    45    1
