
     RDKit          3D

 57 60  0  0  0  0  0  0  0  0999 V2000
   -6.4121   -1.9700   -1.1060 C   0  0  0  0  0  0  0  0  0  0  0  0
   -5.7152   -0.6705   -0.8965 C   0  0  0  0  0  0  0  0  0  0  0  0
   -4.6667   -0.5348   -1.9962 C   0  0  0  0  0  0  0  0  0  0  0  0
   -6.6959    0.4708   -1.1030 C   0  0  0  0  0  0  0  0  0  0  0  0
   -5.0526   -0.5641    0.3734 N   0  0  0  0  0  0  0  0  0  0  0  0
   -4.0188   -1.4437    0.7851 C   0  0  0  0  0  0  0  0  0  0  0  0
   -3.6998   -2.3495   -0.0424 O   0  0  0  0  0  0  0  0  0  0  0  0
   -3.3540   -1.3291    2.0739 C   0  0  0  0  0  0  0  0  0  0  0  0
   -3.8397   -1.5926    3.3364 C   0  0  0  0  0  0  0  0  0  0  0  0
   -2.9141   -1.3611    4.2700 N   0  0  0  0  0  0  0  0  0  0  0  0
   -1.8096   -0.9415    3.6157 C   0  0  0  0  0  0  0  0  0  0  0  0
   -0.6032   -0.5790    4.0798 N   0  0  0  0  0  0  0  0  0  0  0  0
    0.3592   -0.1902    3.2190 C   0  0  0  0  0  0  0  0  0  0  0  0
    0.1420   -0.1518    1.8602 C   0  0  0  0  0  0  0  0  0  0  0  0
    1.2239    0.2786    0.9833 C   0  0  0  0  0  0  0  0  0  0  0  0
    2.4608    0.6635    1.2958 N   0  0  0  0  0  0  0  0  0  0  0  0
    3.1502    0.9812    0.2141 N   0  0  0  0  0  0  0  0  0  0  0  0
    4.5190    1.4329    0.2450 C   0  0  0  0  0  0  0  0  0  0  0  0
    5.5026    0.2934    0.1525 C   0  0  0  0  0  0  0  0  0  0  0  0
    6.9253    0.8109    0.1944 C   0  0  0  0  0  0  0  0  0  0  0  0
    7.7337   -0.3495    0.1019 O   0  0  0  0  0  0  0  0  0  0  0  0
    7.1699    1.5681   -1.0986 C   0  0  0  0  0  0  0  0  0  0  0  0
    8.5159    1.9055   -1.2439 O   0  0  0  0  0  0  0  0  0  0  0  0
    2.3381    0.7973   -0.8371 C   0  0  0  0  0  0  0  0  0  0  0  0
    2.5585    0.9799   -2.1794 C   0  0  0  0  0  0  0  0  0  0  0  0
    1.5533    0.7201   -3.0851 C   0  0  0  0  0  0  0  0  0  0  0  0
    1.7991    0.9118   -4.4221 F   0  0  0  0  0  0  0  0  0  0  0  0
    0.3301    0.2772   -2.6350 C   0  0  0  0  0  0  0  0  0  0  0  0
    0.1196    0.0967   -1.2818 C   0  0  0  0  0  0  0  0  0  0  0  0
    1.1171    0.3548   -0.3839 C   0  0  0  0  0  0  0  0  0  0  0  0
   -1.0716   -0.5195    1.4311 N   0  0  0  0  0  0  0  0  0  0  0  0
   -2.0545   -0.9126    2.2569 C   0  0  0  0  0  0  0  0  0  0  0  0
   -5.8241   -2.6555   -1.7833 H   0  0  0  0  0  0  0  0  0  0  0  0
   -6.6885   -2.4942   -0.1635 H   0  0  0  0  0  0  0  0  0  0  0  0
   -7.3588   -1.7829   -1.6544 H   0  0  0  0  0  0  0  0  0  0  0  0
   -5.1485   -0.0759   -2.8813 H   0  0  0  0  0  0  0  0  0  0  0  0
   -3.8807    0.1271   -1.5923 H   0  0  0  0  0  0  0  0  0  0  0  0
   -4.2902   -1.5247   -2.3191 H   0  0  0  0  0  0  0  0  0  0  0  0
   -6.1680    1.4244   -1.2924 H   0  0  0  0  0  0  0  0  0  0  0  0
   -7.3038    0.6094   -0.1731 H   0  0  0  0  0  0  0  0  0  0  0  0
   -7.3581    0.2859   -1.9690 H   0  0  0  0  0  0  0  0  0  0  0  0
   -5.3488    0.1956    1.0175 H   0  0  0  0  0  0  0  0  0  0  0  0
   -4.8505   -1.9474    3.5736 H   0  0  0  0  0  0  0  0  0  0  0  0
   -3.0028   -1.4756    5.3162 H   0  0  0  0  0  0  0  0  0  0  0  0
    1.3223    0.0975    3.6009 H   0  0  0  0  0  0  0  0  0  0  0  0
    4.7128    2.1956   -0.5443 H   0  0  0  0  0  0  0  0  0  0  0  0
    4.6874    1.9385    1.2165 H   0  0  0  0  0  0  0  0  0  0  0  0
    5.3738   -0.1385   -0.8769 H   0  0  0  0  0  0  0  0  0  0  0  0
    5.3899   -0.4459    0.9401 H   0  0  0  0  0  0  0  0  0  0  0  0
    7.1538    1.3988    1.0874 H   0  0  0  0  0  0  0  0  0  0  0  0
    8.5837   -0.2336    0.5605 H   0  0  0  0  0  0  0  0  0  0  0  0
    6.8980    0.9040   -1.9438 H   0  0  0  0  0  0  0  0  0  0  0  0
    6.6144    2.5126   -1.1450 H   0  0  0  0  0  0  0  0  0  0  0  0
    8.6536    2.8552   -1.4814 H   0  0  0  0  0  0  0  0  0  0  0  0
    3.5324    1.3278   -2.4881 H   0  0  0  0  0  0  0  0  0  0  0  0
   -0.4601    0.0718   -3.3404 H   0  0  0  0  0  0  0  0  0  0  0  0
   -0.8499   -0.2532   -0.9358 H   0  0  0  0  0  0  0  0  0  0  0  0
  1  2  1  0
  2  3  1  0
  2  4  1  0
  2  5  1  0
  5  6  1  0
  6  7  2  0
  6  8  1  0
  8  9  2  0
  9 10  1  0
 10 11  1  0
 11 12  2  0
 12 13  1  0
 13 14  2  0
 14 15  1  0
 15 16  2  0
 16 17  1  0
 17 18  1  0
 18 19  1  0
 19 20  1  0
 20 21  1  0
 20 22  1  0
 22 23  1  0
 17 24  1  0
 24 25  2  0
 25 26  1  0
 26 27  1  0
 26 28  2  0
 28 29  1  0
 29 30  2  0
 14 31  1  0
 31 32  2  0
 32  8  1  0
 32 11  1  0
 30 15  1  0
 30 24  1  0
  1 33  1  0
  1 34  1  0
  1 35  1  0
  3 36  1  0
  3 37  1  0
  3 38  1  0
  4 39  1  0
  4 40  1  0
  4 41  1  0
  5 42  1  0
  9 43  1  0
 10 44  1  0
 13 45  1  0
 18 46  1  0
 18 47  1  0
 19 48  1  0
 19 49  1  0
 20 50  1  0
 21 51  1  0
 22 52  1  0
 22 53  1  0
 23 54  1  0
 25 55  1  0
 28 56  1  0
 29 57  1  0
M  END
$$$$
