@<TRIPOS>MOLECULE
*****
 57 60 0 0 0
SMALL
GASTEIGER

@<TRIPOS>ATOM
      1 C          -6.4121   -1.9700   -1.1060 C.3     1  UNL1       -0.0442
      2 C          -5.7152   -0.6705   -0.8965 C.3     1  UNL1        0.0265
      3 C          -4.6667   -0.5348   -1.9962 C.3     1  UNL1       -0.0442
      4 C          -6.6959    0.4708   -1.1030 C.3     1  UNL1       -0.0442
      5 N          -5.0526   -0.5641    0.3734 N.am    1  UNL1       -0.3065
      6 C          -4.0188   -1.4437    0.7851 C.2     1  UNL1        0.2480
      7 O          -3.6998   -2.3495   -0.0424 O.2     1  UNL1       -0.2701
      8 C          -3.3540   -1.3291    2.0739 C.ar    1  UNL1        0.0815
      9 C          -3.8397   -1.5926    3.3364 C.ar    1  UNL1        0.0178
     10 N          -2.9141   -1.3611    4.2700 N.ar    1  UNL1       -0.3438
     11 C          -1.8096   -0.9415    3.6157 C.ar    1  UNL1        0.1574
     12 N          -0.6032   -0.5790    4.0798 N.ar    1  UNL1       -0.2338
     13 C           0.3592   -0.1902    3.2190 C.ar    1  UNL1        0.0575
     14 C           0.1420   -0.1518    1.8602 C.ar    1  UNL1        0.1104
     15 C           1.2239    0.2786    0.9833 C.ar    1  UNL1        0.1201
     16 N           2.4608    0.6635    1.2958 N.ar    1  UNL1       -0.1685
     17 N           3.1502    0.9812    0.2141 N.ar    1  UNL1       -0.2629
     18 C           4.5190    1.4329    0.2450 C.3     1  UNL1        0.0446
     19 C           5.5026    0.2934    0.1525 C.3     1  UNL1       -0.0050
     20 C           6.9253    0.8109    0.1944 C.3     1  UNL1        0.0799
     21 O           7.7337   -0.3495    0.1019 O.3     1  UNL1       -0.3895
     22 C           7.1699    1.5681   -1.0986 C.3     1  UNL1        0.0702
     23 O           8.5159    1.9055   -1.2439 O.3     1  UNL1       -0.3925
     24 C           2.3381    0.7973   -0.8371 C.ar    1  UNL1        0.0723
     25 C           2.5585    0.9799   -2.1794 C.ar    1  UNL1       -0.0008
     26 C           1.5533    0.7201   -3.0851 C.ar    1  UNL1        0.1254
     27 F           1.7991    0.9118   -4.4221 F       1  UNL1       -0.2054
     28 C           0.3301    0.2772   -2.6350 C.ar    1  UNL1       -0.0257
     29 C           0.1196    0.0967   -1.2818 C.ar    1  UNL1       -0.0477
     30 C           1.1171    0.3548   -0.3839 C.ar    1  UNL1        0.0293
     31 N          -1.0716   -0.5195    1.4311 N.ar    1  UNL1       -0.2397
     32 C          -2.0545   -0.9126    2.2569 C.ar    1  UNL1        0.1202
     33 H          -5.8241   -2.6555   -1.7833 H       1  UNL1        0.0250
     34 H          -6.6885   -2.4942   -0.1635 H       1  UNL1        0.0250
     35 H          -7.3588   -1.7829   -1.6544 H       1  UNL1        0.0250
     36 H          -5.1485   -0.0759   -2.8813 H       1  UNL1        0.0250
     37 H          -3.8807    0.1271   -1.5923 H       1  UNL1        0.0250
     38 H          -4.2902   -1.5247   -2.3191 H       1  UNL1        0.0250
     39 H          -6.1680    1.4244   -1.2924 H       1  UNL1        0.0250
     40 H          -7.3038    0.6094   -0.1731 H       1  UNL1        0.0250
     41 H          -7.3581    0.2859   -1.9690 H       1  UNL1        0.0250
     42 H          -5.3488    0.1956    1.0175 H       1  UNL1        0.1495
     43 H          -4.8505   -1.9474    3.5736 H       1  UNL1        0.0816
     44 H          -3.0028   -1.4756    5.3162 H       1  UNL1        0.1668
     45 H           1.3223    0.0975    3.6009 H       1  UNL1        0.0853
     46 H           4.7128    2.1956   -0.5443 H       1  UNL1        0.0510
     47 H           4.6874    1.9385    1.2165 H       1  UNL1        0.0510
     48 H           5.3738   -0.1385   -0.8769 H       1  UNL1        0.0309
     49 H           5.3899   -0.4459    0.9401 H       1  UNL1        0.0309
     50 H           7.1538    1.3988    1.0874 H       1  UNL1        0.0617
     51 H           8.5837   -0.2336    0.5605 H       1  UNL1        0.2099
     52 H           6.8980    0.9040   -1.9438 H       1  UNL1        0.0583
     53 H           6.6144    2.5126   -1.1450 H       1  UNL1        0.0583
     54 H           8.6536    2.8552   -1.4814 H       1  UNL1        0.2095
     55 H           3.5324    1.3278   -2.4881 H       1  UNL1        0.0667
     56 H          -0.4601    0.0718   -3.3404 H       1  UNL1        0.0646
     57 H          -0.8499   -0.2532   -0.9358 H       1  UNL1        0.0626
@<TRIPOS>BOND
     1     1     2    1
     2     2     3    1
     3     2     4    1
     4     2     5    1
     5     5     6   am
     6     6     7    2
     7     6     8    1
     8     8     9   ar
     9     9    10   ar
    10    10    11   ar
    11    11    12   ar
    12    12    13   ar
    13    13    14   ar
    14    14    15    1
    15    15    16   ar
    16    16    17   ar
    17    17    18    1
    18    18    19    1
    19    19    20    1
    20    20    21    1
    21    20    22    1
    22    22    23    1
    23    17    24   ar
    24    24    25   ar
    25    25    26   ar
    26    26    27    1
    27    26    28   ar
    28    28    29   ar
    29    29    30   ar
    30    14    31   ar
    31    31    32   ar
    32    32     8   ar
    33    32    11   ar
    34    30    15   ar
    35    30    24   ar
    36     1    33    1
    37     1    34    1
    38     1    35    1
    39     3    36    1
    40     3    37    1
    41     3    38    1
    42     4    39    1
    43     4    40    1
    44     4    41    1
    45     5    42    1
    46     9    43    1
    47    10    44    1
    48    13    45    1
    49    18    46    1
    50    18    47    1
    51    19    48    1
    52    19    49    1
    53    20    50    1
    54    21    51    1
    55    22    52    1
    56    22    53    1
    57    23    54    1
    58    25    55    1
    59    28    56    1
    60    29    57    1
