
     RDKit          3D

 45 46  0  0  0  0  0  0  0  0999 V2000
   -3.1163    2.7795   -0.8732 C   0  0  0  0  0  0  0  0  0  0  0  0
   -1.9389    2.0489   -1.4254 C   0  0  0  0  0  0  0  0  0  0  0  0
   -1.3278    1.0643   -0.5253 C   0  0  0  0  0  0  0  0  0  0  0  0
   -0.1406    1.4500    0.1162 C   0  0  0  0  0  0  0  0  0  0  0  0
    0.4972    0.5943    0.9654 C   0  0  0  0  0  0  0  0  0  0  0  0
    1.7544    0.9698    1.6308 C   0  0  0  0  0  0  0  0  0  0  0  0
    2.9467    0.4273    0.9418 C   0  0  0  0  0  0  0  0  0  0  0  0
    3.5627   -0.6822    1.4802 C   0  0  0  0  0  0  0  0  0  0  0  0
    4.6393   -1.2422    0.9083 N   0  0  0  0  0  0  0  0  0  0  0  0
    5.1531   -0.7286   -0.2211 C   0  0  0  0  0  0  0  0  0  0  0  0
    6.2994   -1.3482   -0.8066 N   0  0  0  0  0  0  0  0  0  0  0  0
    4.5777    0.3494   -0.7693 N   0  0  0  0  0  0  0  0  0  0  0  0
    3.4867    0.9400   -0.2152 C   0  0  0  0  0  0  0  0  0  0  0  0
    2.9106    2.0845   -0.8259 N   0  0  0  0  0  0  0  0  0  0  0  0
   -0.0362   -0.6472    1.1856 C   0  0  0  0  0  0  0  0  0  0  0  0
   -1.2093   -1.0217    0.5483 C   0  0  0  0  0  0  0  0  0  0  0  0
   -1.7150   -2.4053    0.8362 C   0  0  0  0  0  0  0  0  0  0  0  0
   -1.3988   -3.3589   -0.3035 C   0  0  0  0  0  0  0  0  0  0  0  0
   -1.8826   -0.1771   -0.3203 C   0  0  0  0  0  0  0  0  0  0  0  0
   -3.1165   -0.6402   -0.9549 C   0  0  0  0  0  0  0  0  0  0  0  0
   -4.3913   -0.1345   -0.3749 C   0  0  0  0  0  0  0  0  0  0  0  0
   -3.3736    2.5611    0.1621 H   0  0  0  0  0  0  0  0  0  0  0  0
   -2.9571    3.9033   -0.8902 H   0  0  0  0  0  0  0  0  0  0  0  0
   -3.9576    2.6430   -1.6025 H   0  0  0  0  0  0  0  0  0  0  0  0
   -1.1871    2.8216   -1.7492 H   0  0  0  0  0  0  0  0  0  0  0  0
   -2.1854    1.4855   -2.3687 H   0  0  0  0  0  0  0  0  0  0  0  0
    0.2701    2.4427   -0.0628 H   0  0  0  0  0  0  0  0  0  0  0  0
    1.7491    0.6406    2.6903 H   0  0  0  0  0  0  0  0  0  0  0  0
    1.8909    2.0784    1.6636 H   0  0  0  0  0  0  0  0  0  0  0  0
    3.2120   -1.1641    2.3926 H   0  0  0  0  0  0  0  0  0  0  0  0
    6.9073   -1.9735   -0.2336 H   0  0  0  0  0  0  0  0  0  0  0  0
    6.5712   -1.2087   -1.7960 H   0  0  0  0  0  0  0  0  0  0  0  0
    2.1842    1.9989   -1.5376 H   0  0  0  0  0  0  0  0  0  0  0  0
    3.2419    3.0231   -0.5361 H   0  0  0  0  0  0  0  0  0  0  0  0
    0.4768   -1.3256    1.8652 H   0  0  0  0  0  0  0  0  0  0  0  0
   -2.8028   -2.3840    1.0654 H   0  0  0  0  0  0  0  0  0  0  0  0
   -1.2277   -2.8129    1.7420 H   0  0  0  0  0  0  0  0  0  0  0  0
   -2.2636   -3.9789   -0.5776 H   0  0  0  0  0  0  0  0  0  0  0  0
   -0.9614   -2.7968   -1.1656 H   0  0  0  0  0  0  0  0  0  0  0  0
   -0.5824   -4.0840   -0.0166 H   0  0  0  0  0  0  0  0  0  0  0  0
   -3.1258   -1.7633   -0.9904 H   0  0  0  0  0  0  0  0  0  0  0  0
   -3.1012   -0.3641   -2.0541 H   0  0  0  0  0  0  0  0  0  0  0  0
   -5.1067   -1.0094   -0.2612 H   0  0  0  0  0  0  0  0  0  0  0  0
   -4.9303    0.5342   -1.0766 H   0  0  0  0  0  0  0  0  0  0  0  0
   -4.2954    0.4111    0.5808 H   0  0  0  0  0  0  0  0  0  0  0  0
  1  2  1  0
  2  3  1  0
  3  4  2  0
  4  5  1  0
  5  6  1  0
  6  7  1  0
  7  8  2  0
  8  9  1  0
  9 10  2  0
 10 11  1  0
 10 12  1  0
 12 13  2  0
 13 14  1  0
  5 15  2  0
 15 16  1  0
 16 17  1  0
 17 18  1  0
 16 19  2  0
 19 20  1  0
 20 21  1  0
 19  3  1  0
 13  7  1  0
  1 22  1  0
  1 23  1  0
  1 24  1  0
  2 25  1  0
  2 26  1  0
  4 27  1  0
  6 28  1  0
  6 29  1  0
  8 30  1  0
 11 31  1  0
 11 32  1  0
 14 33  1  0
 14 34  1  0
 15 35  1  0
 17 36  1  0
 17 37  1  0
 18 38  1  0
 18 39  1  0
 18 40  1  0
 20 41  1  0
 20 42  1  0
 21 43  1  0
 21 44  1  0
 21 45  1  0
M  END
$$$$
