@<TRIPOS>MOLECULE
*****
 45 46 0 0 0
SMALL
GASTEIGER

@<TRIPOS>ATOM
      1 C          -3.1163    2.7795   -0.8732 C.3     1  UNL1       -0.0613
      2 C          -1.9389    2.0489   -1.4254 C.3     1  UNL1       -0.0303
      3 C          -1.3278    1.0643   -0.5253 C.ar    1  UNL1       -0.0439
      4 C          -0.1406    1.4500    0.1162 C.ar    1  UNL1       -0.0548
      5 C           0.4972    0.5943    0.9654 C.ar    1  UNL1       -0.0424
      6 C           1.7544    0.9698    1.6308 C.3     1  UNL1        0.0023
      7 C           2.9467    0.4273    0.9418 C.ar    1  UNL1        0.0146
      8 C           3.5627   -0.6822    1.4802 C.ar    1  UNL1        0.0379
      9 N           4.6393   -1.2422    0.9083 N.ar    1  UNL1       -0.2227
     10 C           5.1531   -0.7286   -0.2211 C.ar    1  UNL1        0.2142
     11 N           6.2994   -1.3482   -0.8066 N.pl3   1  UNL1       -0.3274
     12 N           4.5777    0.3494   -0.7693 N.ar    1  UNL1       -0.1999
     13 C           3.4867    0.9400   -0.2152 C.ar    1  UNL1        0.1247
     14 N           2.9106    2.0845   -0.8259 N.pl3   1  UNL1       -0.3428
     15 C          -0.0362   -0.6472    1.1856 C.ar    1  UNL1       -0.0548
     16 C          -1.2093   -1.0217    0.5483 C.ar    1  UNL1       -0.0439
     17 C          -1.7150   -2.4053    0.8362 C.3     1  UNL1       -0.0303
     18 C          -1.3988   -3.3589   -0.3035 C.3     1  UNL1       -0.0613
     19 C          -1.8826   -0.1771   -0.3203 C.ar    1  UNL1       -0.0413
     20 C          -3.1165   -0.6402   -0.9549 C.3     1  UNL1       -0.0300
     21 C          -4.3913   -0.1345   -0.3749 C.3     1  UNL1       -0.0612
     22 H          -3.3736    2.5611    0.1621 H       1  UNL1        0.0233
     23 H          -2.9571    3.9033   -0.8902 H       1  UNL1        0.0233
     24 H          -3.9576    2.6430   -1.6025 H       1  UNL1        0.0233
     25 H          -1.1871    2.8216   -1.7492 H       1  UNL1        0.0311
     26 H          -2.1854    1.4855   -2.3687 H       1  UNL1        0.0311
     27 H           0.2701    2.4427   -0.0628 H       1  UNL1        0.0623
     28 H           1.7491    0.6406    2.6903 H       1  UNL1        0.0363
     29 H           1.8909    2.0784    1.6636 H       1  UNL1        0.0363
     30 H           3.2120   -1.1641    2.3926 H       1  UNL1        0.0834
     31 H           6.9073   -1.9735   -0.2336 H       1  UNL1        0.1452
     32 H           6.5712   -1.2087   -1.7960 H       1  UNL1        0.1452
     33 H           2.1842    1.9989   -1.5376 H       1  UNL1        0.1437
     34 H           3.2419    3.0231   -0.5361 H       1  UNL1        0.1437
     35 H           0.4768   -1.3256    1.8652 H       1  UNL1        0.0623
     36 H          -2.8028   -2.3840    1.0654 H       1  UNL1        0.0311
     37 H          -1.2277   -2.8129    1.7420 H       1  UNL1        0.0311
     38 H          -2.2636   -3.9789   -0.5776 H       1  UNL1        0.0233
     39 H          -0.9614   -2.7968   -1.1656 H       1  UNL1        0.0233
     40 H          -0.5824   -4.0840   -0.0166 H       1  UNL1        0.0233
     41 H          -3.1258   -1.7633   -0.9904 H       1  UNL1        0.0311
     42 H          -3.1012   -0.3641   -2.0541 H       1  UNL1        0.0311
     43 H          -5.1067   -1.0094   -0.2612 H       1  UNL1        0.0233
     44 H          -4.9303    0.5342   -1.0766 H       1  UNL1        0.0233
     45 H          -4.2954    0.4111    0.5808 H       1  UNL1        0.0233
@<TRIPOS>BOND
     1     1     2    1
     2     2     3    1
     3     3     4   ar
     4     4     5   ar
     5     5     6    1
     6     6     7    1
     7     7     8   ar
     8     8     9   ar
     9     9    10   ar
    10    10    11    1
    11    10    12   ar
    12    12    13   ar
    13    13    14    1
    14     5    15   ar
    15    15    16   ar
    16    16    17    1
    17    17    18    1
    18    16    19   ar
    19    19    20    1
    20    20    21    1
    21    19     3   ar
    22    13     7   ar
    23     1    22    1
    24     1    23    1
    25     1    24    1
    26     2    25    1
    27     2    26    1
    28     4    27    1
    29     6    28    1
    30     6    29    1
    31     8    30    1
    32    11    31    1
    33    11    32    1
    34    14    33    1
    35    14    34    1
    36    15    35    1
    37    17    36    1
    38    17    37    1
    39    18    38    1
    40    18    39    1
    41    18    40    1
    42    20    41    1
    43    20    42    1
    44    21    43    1
    45    21    44    1
    46    21    45    1
