
     RDKit          3D

 35 37  0  0  0  0  0  0  0  0999 V2000
   -5.6379    0.9190   -1.1332 C   0  0  0  0  0  0  0  0  0  0  0  0
   -4.7959    0.4193   -0.0071 C   0  0  0  0  0  0  0  0  0  0  0  0
   -5.5861    0.0548    1.2261 C   0  0  0  0  0  0  0  0  0  0  0  0
   -3.9501   -0.6442   -0.3670 O   0  0  0  0  0  0  0  0  0  0  0  0
   -2.5636   -0.5709   -0.3225 C   0  0  0  0  0  0  0  0  0  0  0  0
   -1.7937   -1.6541   -0.6912 C   0  0  0  0  0  0  0  0  0  0  0  0
   -0.4100   -1.6177   -0.6597 C   0  0  0  0  0  0  0  0  0  0  0  0
    0.2434   -0.4716   -0.2496 C   0  0  0  0  0  0  0  0  0  0  0  0
    1.6904   -0.3797   -0.1992 C   0  0  0  0  0  0  0  0  0  0  0  0
    2.5373   -1.0367   -1.0541 C   0  0  0  0  0  0  0  0  0  0  0  0
    3.9009   -0.9698   -1.0281 C   0  0  0  0  0  0  0  0  0  0  0  0
    4.5451   -0.1758   -0.0647 C   0  0  0  0  0  0  0  0  0  0  0  0
    5.8200    0.0180    0.1243 N   0  0  0  0  0  0  0  0  0  0  0  0
    6.3794    0.6786    0.9256 C   0  0  0  0  0  0  0  0  0  0  0  0
    7.6718    1.0939    1.3906 N   0  0  0  0  0  0  0  0  0  0  0  0
    4.8679    1.3640    1.8434 S   0  0  0  0  0  0  0  0  0  0  0  0
    3.6886    0.4887    0.8001 C   0  0  0  0  0  0  0  0  0  0  0  0
    2.3321    0.4167    0.7671 C   0  0  0  0  0  0  0  0  0  0  0  0
   -0.5580    0.5963    0.1134 C   0  0  0  0  0  0  0  0  0  0  0  0
   -1.9003    0.5297    0.0718 N   0  0  0  0  0  0  0  0  0  0  0  0
   -6.6961    0.9486   -0.7988 H   0  0  0  0  0  0  0  0  0  0  0  0
   -5.2913    1.9140   -1.4813 H   0  0  0  0  0  0  0  0  0  0  0  0
   -5.5524    0.2019   -1.9745 H   0  0  0  0  0  0  0  0  0  0  0  0
   -4.1170    1.2603    0.3063 H   0  0  0  0  0  0  0  0  0  0  0  0
   -6.2295    0.9128    1.5145 H   0  0  0  0  0  0  0  0  0  0  0  0
   -4.8190   -0.1485    2.0306 H   0  0  0  0  0  0  0  0  0  0  0  0
   -6.1525   -0.8711    1.0720 H   0  0  0  0  0  0  0  0  0  0  0  0
   -2.3231   -2.5560   -1.0137 H   0  0  0  0  0  0  0  0  0  0  0  0
    0.1960   -2.4774   -0.9526 H   0  0  0  0  0  0  0  0  0  0  0  0
    2.0446   -1.6636   -1.8160 H   0  0  0  0  0  0  0  0  0  0  0  0
    4.4387   -1.5409   -1.7629 H   0  0  0  0  0  0  0  0  0  0  0  0
    8.3978    1.5104    0.7696 H   0  0  0  0  0  0  0  0  0  0  0  0
    7.9052    0.9768    2.3990 H   0  0  0  0  0  0  0  0  0  0  0  0
    1.7614    0.9640    1.4730 H   0  0  0  0  0  0  0  0  0  0  0  0
   -0.0440    1.5106    0.4404 H   0  0  0  0  0  0  0  0  0  0  0  0
  1  2  1  0
  2  3  1  0
  2  4  1  0
  4  5  1  0
  5  6  2  0
  6  7  1  0
  7  8  2  0
  8  9  1  0
  9 10  2  0
 10 11  1  0
 11 12  2  0
 12 13  1  0
 13 14  2  0
 14 15  1  0
 14 16  1  0
 16 17  1  0
 17 18  2  0
  8 19  1  0
 19 20  2  0
 20  5  1  0
 18  9  1  0
 17 12  1  0
  1 21  1  0
  1 22  1  0
  1 23  1  0
  2 24  1  0
  3 25  1  0
  3 26  1  0
  3 27  1  0
  6 28  1  0
  7 29  1  0
 10 30  1  0
 11 31  1  0
 15 32  1  0
 15 33  1  0
 18 34  1  0
 19 35  1  0
M  END
$$$$
