@<TRIPOS>MOLECULE
*****
 35 37 0 0 0
SMALL
GASTEIGER

@<TRIPOS>ATOM
      1 C          -5.6379    0.9190   -1.1332 C.3     1  UNL1       -0.0280
      2 C          -4.7959    0.4193   -0.0071 C.3     1  UNL1        0.0962
      3 C          -5.5861    0.0548    1.2261 C.3     1  UNL1       -0.0280
      4 O          -3.9501   -0.6442   -0.3670 O.3     1  UNL1       -0.4736
      5 C          -2.5636   -0.5709   -0.3225 C.ar    1  UNL1        0.2149
      6 C          -1.7937   -1.6541   -0.6912 C.ar    1  UNL1        0.0006
      7 C          -0.4100   -1.6177   -0.6597 C.ar    1  UNL1       -0.0476
      8 C           0.2434   -0.4716   -0.2496 C.ar    1  UNL1        0.0005
      9 C           1.6904   -0.3797   -0.1992 C.ar    1  UNL1       -0.0153
     10 C           2.5373   -1.0367   -1.0541 C.ar    1  UNL1       -0.0519
     11 C           3.9009   -0.9698   -1.0281 C.ar    1  UNL1       -0.0346
     12 C           4.5451   -0.1758   -0.0647 C.ar    1  UNL1        0.0803
     13 N           5.8200    0.0180    0.1243 N.ar    1  UNL1       -0.2251
     14 C           6.3794    0.6786    0.9256 C.ar    1  UNL1        0.1566
     15 N           7.6718    1.0939    1.3906 N.pl3   1  UNL1       -0.3375
     16 S           4.8679    1.3640    1.8434 S.2     1  UNL1       -0.0526
     17 C           3.6886    0.4887    0.8001 C.ar    1  UNL1        0.0413
     18 C           2.3321    0.4167    0.7671 C.ar    1  UNL1       -0.0381
     19 C          -0.5580    0.5963    0.1134 C.ar    1  UNL1        0.0391
     20 N          -1.9003    0.5297    0.0718 N.ar    1  UNL1       -0.2207
     21 H          -6.6961    0.9486   -0.7988 H       1  UNL1        0.0265
     22 H          -5.2913    1.9140   -1.4813 H       1  UNL1        0.0265
     23 H          -5.5524    0.2019   -1.9745 H       1  UNL1        0.0265
     24 H          -4.1170    1.2603    0.3063 H       1  UNL1        0.0728
     25 H          -6.2295    0.9128    1.5145 H       1  UNL1        0.0265
     26 H          -4.8190   -0.1485    2.0306 H       1  UNL1        0.0265
     27 H          -6.1525   -0.8711    1.0720 H       1  UNL1        0.0265
     28 H          -2.3231   -2.5560   -1.0137 H       1  UNL1        0.0671
     29 H           0.1960   -2.4774   -0.9526 H       1  UNL1        0.0626
     30 H           2.0446   -1.6636   -1.8160 H       1  UNL1        0.0624
     31 H           4.4387   -1.5409   -1.7629 H       1  UNL1        0.0639
     32 H           8.3978    1.5104    0.7696 H       1  UNL1        0.1442
     33 H           7.9052    0.9768    2.3990 H       1  UNL1        0.1442
     34 H           1.7614    0.9640    1.4730 H       1  UNL1        0.0635
     35 H          -0.0440    1.5106    0.4404 H       1  UNL1        0.0837
@<TRIPOS>BOND
     1     1     2    1
     2     2     3    1
     3     2     4    1
     4     4     5    1
     5     5     6   ar
     6     6     7   ar
     7     7     8   ar
     8     8     9    1
     9     9    10   ar
    10    10    11   ar
    11    11    12   ar
    12    12    13   ar
    13    13    14   ar
    14    14    15    1
    15    14    16   ar
    16    16    17   ar
    17    17    18   ar
    18     8    19   ar
    19    19    20   ar
    20    20     5   ar
    21    18     9   ar
    22    17    12   ar
    23     1    21    1
    24     1    22    1
    25     1    23    1
    26     2    24    1
    27     3    25    1
    28     3    26    1
    29     3    27    1
    30     6    28    1
    31     7    29    1
    32    10    30    1
    33    11    31    1
    34    15    32    1
    35    15    33    1
    36    18    34    1
    37    19    35    1
