
     RDKit          3D

 41 41  0  0  0  0  0  0  0  0999 V2000
    5.4094    0.0010   -0.5451 C   0  0  2  0  0  0  0  0  0  0  0  0
    6.2534    1.2354   -0.5490 C   0  0  0  0  0  0  0  0  0  0  0  0
    4.1061    0.2660    0.0241 N   0  0  0  0  0  0  0  0  0  0  0  0
    2.8882    0.0233   -0.6350 C   0  0  0  0  0  0  0  0  0  0  0  0
    2.7607   -0.4542   -1.8016 O   0  0  0  0  0  0  0  0  0  0  0  0
    1.5440    0.2987   -0.0430 C   0  0  0  0  0  0  0  0  0  0  0  0
    0.5443   -0.1169   -1.1092 C   0  0  0  0  0  0  0  0  0  0  0  0
   -0.8321    0.1349   -0.5766 C   0  0  0  0  0  0  0  0  0  0  0  0
   -1.0531   -0.8505    0.9269 P   0  0  2  0  0  5  0  0  0  0  0  0
   -0.6393    0.0713    2.2792 O   0  0  0  0  0  0  0  0  0  0  0  0
   -0.1079   -2.0464    0.8961 O   0  0  0  0  0  0  0  0  0  0  0  0
   -2.6400   -1.4510    0.9958 O   0  0  0  0  0  0  0  0  0  0  0  0
   -3.7081   -0.6773    0.6287 C   0  0  0  0  0  0  0  0  0  0  0  0
   -4.8054   -1.4608    0.2707 C   0  0  0  0  0  0  0  0  0  0  0  0
   -6.0072   -0.8879   -0.1386 C   0  0  0  0  0  0  0  0  0  0  0  0
   -6.1262    0.4825   -0.1951 C   0  0  0  0  0  0  0  0  0  0  0  0
   -5.0422    1.2499    0.1586 C   0  0  0  0  0  0  0  0  0  0  0  0
   -3.8473    0.6846    0.5656 C   0  0  0  0  0  0  0  0  0  0  0  0
   -7.3481    1.0793   -0.6115 N   0  0  0  0  0  4  0  0  0  0  0  0
   -7.4653    2.4459   -0.6674 O   0  0  0  0  0  1  0  0  0  0  0  0
   -8.3118    0.3627   -0.9256 O   0  0  0  0  0  0  0  0  0  0  0  0
    6.0197   -1.0947    0.2736 C   0  0  0  0  0  0  0  0  0  0  0  0
    5.8180   -1.9448    1.3571 O   0  0  0  0  0  0  0  0  0  0  0  0
    7.1608   -1.4314   -0.1078 O   0  0  0  0  0  0  0  0  0  0  0  0
    5.3297   -0.4198   -1.5714 H   0  0  0  0  0  0  0  0  0  0  0  0
    7.0568    1.0962    0.1917 H   0  0  0  0  0  0  0  0  0  0  0  0
    5.6352    2.1247   -0.2655 H   0  0  0  0  0  0  0  0  0  0  0  0
    6.6605    1.4116   -1.5789 H   0  0  0  0  0  0  0  0  0  0  0  0
    4.0908    0.6636    0.9888 H   0  0  0  0  0  0  0  0  0  0  0  0
    1.4092    1.3968    0.1131 H   0  0  0  0  0  0  0  0  0  0  0  0
    1.3722   -0.2371    0.8933 H   0  0  0  0  0  0  0  0  0  0  0  0
    0.6691   -1.2156   -1.2912 H   0  0  0  0  0  0  0  0  0  0  0  0
    0.7551    0.4098   -2.0493 H   0  0  0  0  0  0  0  0  0  0  0  0
   -0.8720    1.2391   -0.3466 H   0  0  0  0  0  0  0  0  0  0  0  0
   -1.6208   -0.0568   -1.3324 H   0  0  0  0  0  0  0  0  0  0  0  0
   -0.8361    1.0426    2.1184 H   0  0  0  0  0  0  0  0  0  0  0  0
   -4.8474   -2.5471    0.2699 H   0  0  0  0  0  0  0  0  0  0  0  0
   -6.8756   -1.4652   -0.4225 H   0  0  0  0  0  0  0  0  0  0  0  0
   -5.0779    2.3277    0.1336 H   0  0  0  0  0  0  0  0  0  0  0  0
   -2.9495    1.2148    0.8599 H   0  0  0  0  0  0  0  0  0  0  0  0
    5.5297   -2.9045    1.2381 H   0  0  0  0  0  0  0  0  0  0  0  0
  1  2  1  0
  1  3  1  0
  3  4  1  0
  4  5  2  0
  4  6  1  0
  6  7  1  0
  7  8  1  0
  8  9  1  0
  9 10  1  1
  9 11  2  0
  9 12  1  0
 12 13  1  0
 13 14  2  0
 14 15  1  0
 15 16  2  0
 16 17  1  0
 17 18  2  0
 16 19  1  0
 19 20  1  0
 19 21  2  0
  1 22  1  0
 22 23  1  0
 22 24  2  0
 18 13  1  0
  1 25  1  6
  2 26  1  0
  2 27  1  0
  2 28  1  0
  3 29  1  0
  6 30  1  0
  6 31  1  0
  7 32  1  0
  7 33  1  0
  8 34  1  0
  8 35  1  0
 10 36  1  0
 14 37  1  0
 15 38  1  0
 17 39  1  0
 18 40  1  0
 23 41  1  0
M  CHG  2  19   1  20  -1
M  END
$$$$
