@<TRIPOS>MOLECULE
*****
 41 41 0 0 0
SMALL
GASTEIGER

@<TRIPOS>ATOM
      1 CA          5.4094    0.0010   -0.5451 C.3     1  ALA1        0.1174
      2 CB          6.2534    1.2354   -0.5490 C.3     1  ALA1       -0.0362
      3 N           4.1061    0.2660    0.0241 N.am    1  ALA1       -0.3026
      4 C           2.8882    0.0233   -0.6350 C.2     0  UNK0        0.2137
      5 O           2.7607   -0.4542   -1.8016 O.2     0  UNK0       -0.2758
      6 C           1.5440    0.2987   -0.0430 C.3     0  UNK0        0.0246
      7 C           0.5443   -0.1169   -1.1092 C.3     0  UNK0       -0.0328
      8 C          -0.8321    0.1349   -0.5766 C.3     0  UNK0        0.0612
      9 P          -1.0531   -0.8505    0.9269 P.3     0  UNK0        0.3792
     10 O          -0.6393    0.0713    2.2792 O.3     0  UNK0       -0.3152
     11 O          -0.1079   -2.0464    0.8961 O.2     0  UNK0       -0.2442
     12 O          -2.6400   -1.4510    0.9958 O.3     0  UNK0       -0.4239
     13 C          -3.7081   -0.6773    0.6287 C.ar    0  UNK0        0.1303
     14 C          -4.8054   -1.4608    0.2707 C.ar    0  UNK0       -0.0131
     15 C          -6.0072   -0.8879   -0.1386 C.ar    0  UNK0        0.0190
     16 C          -6.1262    0.4825   -0.1951 C.ar    0  UNK0        0.2734
     17 C          -5.0422    1.2499    0.1586 C.ar    0  UNK0        0.0190
     18 C          -3.8473    0.6846    0.5656 C.ar    0  UNK0       -0.0131
     19 N          -7.3481    1.0793   -0.6115 N.pl3   0  UNK0        0.0796
     20 O          -7.4653    2.4459   -0.6674 O.co2   0  UNK0       -0.5760
     21 O          -8.3118    0.3627   -0.9256 O.2     0  UNK0        0.0414
     22 C           6.0197   -1.0947    0.2736 C.2     1  ALA1        0.3250
     23 O           5.8180   -1.9448    1.3571 O.3     1  ALA1       -0.4793
     24 OXT         7.1608   -1.4314   -0.1078 O.2     1  ALA1       -0.2489
     25 HA          5.3297   -0.4198   -1.5714 H       1  ALA1        0.0611
     26 HB1         7.0568    1.0962    0.1917 H       1  ALA1        0.0253
     27 HB2         5.6352    2.1247   -0.2655 H       1  ALA1        0.0253
     28 HB3         6.6605    1.4116   -1.5789 H       1  ALA1        0.0253
     29 H           4.0908    0.6636    0.9888 H       1  ALA1        0.1495
     30 H           1.4092    1.3968    0.1131 H       0  UNK0        0.0358
     31 H           1.3722   -0.2371    0.8933 H       0  UNK0        0.0358
     32 H           0.6691   -1.2156   -1.2912 H       0  UNK0        0.0276
     33 H           0.7551    0.4098   -2.0493 H       0  UNK0        0.0276
     34 H          -0.8720    1.2391   -0.3466 H       0  UNK0        0.0398
     35 H          -1.6208   -0.0568   -1.3324 H       0  UNK0        0.0398
     36 H          -0.8361    1.0426    2.1184 H       0  UNK0        0.2208
     37 H          -4.8474   -2.5471    0.2699 H       0  UNK0        0.0656
     38 H          -6.8756   -1.4652   -0.4225 H       0  UNK0        0.0686
     39 H          -5.0779    2.3277    0.1336 H       0  UNK0        0.0686
     40 H          -2.9495    1.2148    0.8599 H       0  UNK0        0.0656
     41 H           5.5297   -2.9045    1.2381 H       1  ALA1        0.2951
@<TRIPOS>UNITY_ATOM_ATTR
19 1
charge 1
20 1
charge -1
@<TRIPOS>BOND
     1     1     2    1
     2     1     3    1
     3     3     4   am
     4     4     5    2
     5     4     6    1
     6     6     7    1
     7     7     8    1
     8     8     9    1
     9     9    10    1
    10     9    11    2
    11     9    12    1
    12    12    13    1
    13    13    14   ar
    14    14    15   ar
    15    15    16   ar
    16    16    17   ar
    17    17    18   ar
    18    16    19    1
    19    19    20    1
    20    19    21    2
    21     1    22    1
    22    22    23    1
    23    22    24    2
    24    18    13   ar
    25     1    25    1
    26     2    26    1
    27     2    27    1
    28     2    28    1
    29     3    29    1
    30     6    30    1
    31     6    31    1
    32     7    32    1
    33     7    33    1
    34     8    34    1
    35     8    35    1
    36    10    36    1
    37    14    37    1
    38    15    38    1
    39    17    39    1
    40    18    40    1
    41    23    41    1
