@<TRIPOS>MOLECULE
*****
 29 31 0 0 0
SMALL
GASTEIGER

@<TRIPOS>ATOM
      1 O          -2.9588    3.0153   -0.3128 O.2     1  UNL1       -0.2817
      2 C          -2.2576    2.0181    0.0165 C.2     1  UNL1        0.2496
      3 C          -1.0082    2.0360    0.7628 C.2     1  UNL1        0.2915
      4 O          -0.3891    3.0207    1.2195 O.2     1  UNL1       -0.2661
      5 N          -0.5823    0.6831    0.8963 N.am    1  UNL1       -0.2598
      6 C           0.5896    0.1589    1.5521 C.3     1  UNL1        0.0452
      7 C           1.7806    0.0674    0.7128 C.ar    1  UNL1       -0.0297
      8 C           2.6352    1.1458    0.6481 C.ar    1  UNL1       -0.0571
      9 C           3.7691    1.0955   -0.1316 C.ar    1  UNL1       -0.0615
     10 C           4.0719   -0.0314   -0.8615 C.ar    1  UNL1       -0.0617
     11 C           3.2243   -1.1116   -0.8024 C.ar    1  UNL1       -0.0615
     12 C           2.0812   -1.0596   -0.0157 C.ar    1  UNL1       -0.0571
     13 C          -1.5460   -0.1448    0.2485 C.ar    1  UNL1        0.0481
     14 C          -1.6542   -1.5262    0.0634 C.ar    1  UNL1       -0.0382
     15 C          -2.7073   -2.1051   -0.6142 C.ar    1  UNL1       -0.0416
     16 C          -3.7045   -1.3154   -1.1388 C.ar    1  UNL1        0.0418
     17 CL         -5.0680   -2.0339   -2.0135 Cl      1  UNL1       -0.0835
     18 C          -3.6250    0.0478   -0.9721 C.ar    1  UNL1       -0.0306
     19 C          -2.5619    0.6117   -0.2898 C.ar    1  UNL1        0.0497
     20 H           0.7737    0.8214    2.4399 H       1  UNL1        0.0518
     21 H           0.3316   -0.8382    2.0042 H       1  UNL1        0.0518
     22 H           2.4296    2.0675    1.2170 H       1  UNL1        0.0621
     23 H           4.4157    1.9602   -0.1577 H       1  UNL1        0.0618
     24 H           4.9736   -0.0522   -1.4727 H       1  UNL1        0.0618
     25 H           3.4849   -1.9840   -1.3849 H       1  UNL1        0.0618
     26 H           1.4638   -1.9485   -0.0190 H       1  UNL1        0.0621
     27 H          -0.8580   -2.1351    0.4869 H       1  UNL1        0.0637
     28 H          -2.7300   -3.1813   -0.7219 H       1  UNL1        0.0633
     29 H          -4.3740    0.7177   -1.3593 H       1  UNL1        0.0640
@<TRIPOS>BOND
     1     1     2    2
     2     2     3    1
     3     3     4    2
     4     3     5   am
     5     5     6    1
     6     6     7    1
     7     7     8   ar
     8     8     9   ar
     9     9    10   ar
    10    10    11   ar
    11    11    12   ar
    12     5    13    1
    13    13    14   ar
    14    14    15   ar
    15    15    16   ar
    16    16    17    1
    17    16    18   ar
    18    18    19   ar
    19    19     2    1
    20    12     7   ar
    21    19    13   ar
    22     6    20    1
    23     6    21    1
    24     8    22    1
    25     9    23    1
    26    10    24    1
    27    11    25    1
    28    12    26    1
    29    14    27    1
    30    15    28    1
    31    18    29    1
