
     RDKit          3D

 29 31  0  0  0  0  0  0  0  0999 V2000
   -2.9588    3.0153   -0.3128 O   0  0  0  0  0  0  0  0  0  0  0  0
   -2.2576    2.0181    0.0165 C   0  0  0  0  0  0  0  0  0  0  0  0
   -1.0082    2.0360    0.7628 C   0  0  0  0  0  0  0  0  0  0  0  0
   -0.3891    3.0207    1.2195 O   0  0  0  0  0  0  0  0  0  0  0  0
   -0.5823    0.6831    0.8963 N   0  0  0  0  0  0  0  0  0  0  0  0
    0.5896    0.1589    1.5521 C   0  0  0  0  0  0  0  0  0  0  0  0
    1.7806    0.0674    0.7128 C   0  0  0  0  0  0  0  0  0  0  0  0
    2.6352    1.1458    0.6481 C   0  0  0  0  0  0  0  0  0  0  0  0
    3.7691    1.0955   -0.1316 C   0  0  0  0  0  0  0  0  0  0  0  0
    4.0719   -0.0314   -0.8615 C   0  0  0  0  0  0  0  0  0  0  0  0
    3.2243   -1.1116   -0.8024 C   0  0  0  0  0  0  0  0  0  0  0  0
    2.0812   -1.0596   -0.0157 C   0  0  0  0  0  0  0  0  0  0  0  0
   -1.5460   -0.1448    0.2485 C   0  0  0  0  0  0  0  0  0  0  0  0
   -1.6542   -1.5262    0.0634 C   0  0  0  0  0  0  0  0  0  0  0  0
   -2.7073   -2.1051   -0.6142 C   0  0  0  0  0  0  0  0  0  0  0  0
   -3.7045   -1.3154   -1.1388 C   0  0  0  0  0  0  0  0  0  0  0  0
   -5.0680   -2.0339   -2.0135 Cl  0  0  0  0  0  0  0  0  0  0  0  0
   -3.6250    0.0478   -0.9721 C   0  0  0  0  0  0  0  0  0  0  0  0
   -2.5619    0.6117   -0.2898 C   0  0  0  0  0  0  0  0  0  0  0  0
    0.7737    0.8214    2.4399 H   0  0  0  0  0  0  0  0  0  0  0  0
    0.3316   -0.8382    2.0042 H   0  0  0  0  0  0  0  0  0  0  0  0
    2.4296    2.0675    1.2170 H   0  0  0  0  0  0  0  0  0  0  0  0
    4.4157    1.9602   -0.1577 H   0  0  0  0  0  0  0  0  0  0  0  0
    4.9736   -0.0522   -1.4727 H   0  0  0  0  0  0  0  0  0  0  0  0
    3.4849   -1.9840   -1.3849 H   0  0  0  0  0  0  0  0  0  0  0  0
    1.4638   -1.9485   -0.0190 H   0  0  0  0  0  0  0  0  0  0  0  0
   -0.8580   -2.1351    0.4869 H   0  0  0  0  0  0  0  0  0  0  0  0
   -2.7300   -3.1813   -0.7219 H   0  0  0  0  0  0  0  0  0  0  0  0
   -4.3740    0.7177   -1.3593 H   0  0  0  0  0  0  0  0  0  0  0  0
  1  2  2  0
  2  3  1  0
  3  4  2  0
  3  5  1  0
  5  6  1  0
  6  7  1  0
  7  8  2  0
  8  9  1  0
  9 10  2  0
 10 11  1  0
 11 12  2  0
  5 13  1  0
 13 14  2  0
 14 15  1  0
 15 16  2  0
 16 17  1  0
 16 18  1  0
 18 19  2  0
 19  2  1  0
 12  7  1  0
 19 13  1  0
  6 20  1  0
  6 21  1  0
  8 22  1  0
  9 23  1  0
 10 24  1  0
 11 25  1  0
 12 26  1  0
 14 27  1  0
 15 28  1  0
 18 29  1  0
M  END
$$$$
