
     RDKit          3D

 40 44  0  0  0  0  0  0  0  0999 V2000
   -5.6856   -1.3062    1.8786 C   0  0  0  0  0  0  0  0  0  0  0  0
   -5.1154   -0.3281    1.0343 O   0  0  0  0  0  0  0  0  0  0  0  0
   -3.7556   -0.2540    0.7693 C   0  0  0  0  0  0  0  0  0  0  0  0
   -3.3556    0.7714   -0.0857 C   0  0  0  0  0  0  0  0  0  0  0  0
   -4.2895    1.6483   -0.6220 O   0  0  0  0  0  0  0  0  0  0  0  0
   -3.8168    2.6675   -1.4832 C   0  0  0  0  0  0  0  0  0  0  0  0
   -1.9871    0.8529   -0.3576 C   0  0  0  0  0  0  0  0  0  0  0  0
   -1.1017   -0.0508    0.2068 C   0  0  0  0  0  0  0  0  0  0  0  0
    0.2516    0.0173   -0.0524 C   0  0  0  0  0  0  0  0  0  0  0  0
    1.1159   -0.8951    0.5220 C   0  0  0  0  0  0  0  0  0  0  0  0
    0.6498   -1.8626    1.3422 N   0  0  0  0  0  4  0  0  0  0  0  0
   -0.6678   -1.9610    1.6195 C   0  0  0  0  0  0  0  0  0  0  0  0
   -1.5506   -1.0490    1.0482 C   0  0  0  0  0  0  0  0  0  0  0  0
   -2.8973   -1.1700    1.3475 C   0  0  0  0  0  0  0  0  0  0  0  0
    2.4757   -0.6166    0.0989 C   0  0  0  0  0  0  0  0  0  0  0  0
    2.4020    0.4912   -0.7476 C   0  0  0  0  0  0  0  0  0  0  0  0
    0.9999    0.9610   -0.8973 C   0  0  0  0  0  0  0  0  0  0  0  0
    3.5571    0.9980   -1.3163 C   0  0  0  0  0  0  0  0  0  0  0  0
    4.7912    0.4301   -1.0650 C   0  0  0  0  0  0  0  0  0  0  0  0
    6.0867    0.7514   -1.5115 O   0  0  0  0  0  0  0  0  0  0  0  0
    6.8711   -0.4249   -1.3190 C   0  0  0  0  0  0  0  0  0  0  0  0
    6.2249   -0.9926   -0.1823 O   0  0  0  0  0  0  0  0  0  0  0  0
    4.8730   -0.6647   -0.2298 C   0  0  0  0  0  0  0  0  0  0  0  0
    3.7269   -1.1753    0.3404 C   0  0  0  0  0  0  0  0  0  0  0  0
   -5.6699   -2.3229    1.4615 H   0  0  0  0  0  0  0  0  0  0  0  0
   -6.6715   -0.9678    2.2496 H   0  0  0  0  0  0  0  0  0  0  0  0
   -5.0402   -1.3330    2.8054 H   0  0  0  0  0  0  0  0  0  0  0  0
   -3.6071    2.2662   -2.5048 H   0  0  0  0  0  0  0  0  0  0  0  0
   -2.9364    3.1998   -1.0689 H   0  0  0  0  0  0  0  0  0  0  0  0
   -4.6427    3.4144   -1.5793 H   0  0  0  0  0  0  0  0  0  0  0  0
   -1.6311    1.6331   -1.0160 H   0  0  0  0  0  0  0  0  0  0  0  0
    1.2795   -2.5491    1.7776 H   0  0  0  0  0  0  0  0  0  0  0  0
   -1.0150   -2.7382    2.2743 H   0  0  0  0  0  0  0  0  0  0  0  0
   -3.2669   -1.9456    2.0044 H   0  0  0  0  0  0  0  0  0  0  0  0
    0.6328    0.8934   -1.9282 H   0  0  0  0  0  0  0  0  0  0  0  0
    0.8862    2.0242   -0.5575 H   0  0  0  0  0  0  0  0  0  0  0  0
    3.4996    1.8690   -1.9819 H   0  0  0  0  0  0  0  0  0  0  0  0
    6.6669   -1.1045   -2.1525 H   0  0  0  0  0  0  0  0  0  0  0  0
    7.9280   -0.1958   -1.1260 H   0  0  0  0  0  0  0  0  0  0  0  0
    3.7849   -2.0446    1.0046 H   0  0  0  0  0  0  0  0  0  0  0  0
  1  2  1  0
  2  3  1  0
  3  4  2  0
  4  5  1  0
  5  6  1  0
  4  7  1  0
  7  8  2  0
  8  9  1  0
  9 10  2  0
 10 11  1  0
 11 12  2  0
 12 13  1  0
 13 14  2  0
 10 15  1  0
 15 16  2  0
 16 17  1  0
 16 18  1  0
 18 19  2  0
 19 20  1  0
 20 21  1  0
 21 22  1  0
 22 23  1  0
 23 24  2  0
 14  3  1  0
 24 15  1  0
 13  8  1  0
 23 19  1  0
 17  9  1  0
  1 25  1  0
  1 26  1  0
  1 27  1  0
  6 28  1  0
  6 29  1  0
  6 30  1  0
  7 31  1  0
 11 32  1  0
 12 33  1  0
 14 34  1  0
 17 35  1  0
 17 36  1  0
 18 37  1  0
 21 38  1  0
 21 39  1  0
 24 40  1  0
M  CHG  1  11   1
M  END
$$$$
