@<TRIPOS>MOLECULE
*****
 40 44 0 0 0
SMALL
GASTEIGER

@<TRIPOS>ATOM
      1 C          -5.6856   -1.3062    1.8786 C.3     1  UNL1        0.0790
      2 O          -5.1154   -0.3281    1.0343 O.3     1  UNL1       -0.4914
      3 C          -3.7556   -0.2540    0.7693 C.ar    1  UNL1        0.1623
      4 C          -3.3556    0.7714   -0.0857 C.ar    1  UNL1        0.1621
      5 O          -4.2895    1.6483   -0.6220 O.3     1  UNL1       -0.4914
      6 C          -3.8168    2.6675   -1.4832 C.3     1  UNL1        0.0790
      7 C          -1.9871    0.8529   -0.3576 C.ar    1  UNL1       -0.0079
      8 C          -1.1017   -0.0508    0.2068 C.ar    1  UNL1        0.0012
      9 C           0.2516    0.0173   -0.0524 C.ar    1  UNL1        0.0367
     10 C           1.1159   -0.8951    0.5220 C.ar    1  UNL1        0.2177
     11 N           0.6498   -1.8626    1.3422 N.ar    1  UNL1       -0.2098
     12 C          -0.6678   -1.9610    1.6195 C.ar    1  UNL1        0.1779
     13 C          -1.5506   -1.0490    1.0482 C.ar    1  UNL1        0.0497
     14 C          -2.8973   -1.1700    1.3475 C.ar    1  UNL1       -0.0029
     15 C           2.4757   -0.6166    0.0989 C.ar    1  UNL1        0.0536
     16 C           2.4020    0.4912   -0.7476 C.ar    1  UNL1       -0.0257
     17 C           0.9999    0.9610   -0.8973 C.3     1  UNL1        0.0053
     18 C           3.5571    0.9980   -1.3163 C.ar    1  UNL1       -0.0119
     19 C           4.7912    0.4301   -1.0650 C.ar    1  UNL1        0.1665
     20 O           6.0867    0.7514   -1.5115 O.3     1  UNL1       -0.4526
     21 C           6.8711   -0.4249   -1.3190 C.3     1  UNL1        0.2332
     22 O           6.2249   -0.9926   -0.1823 O.3     1  UNL1       -0.4526
     23 C           4.8730   -0.6647   -0.2298 C.ar    1  UNL1        0.1670
     24 C           3.7269   -1.1753    0.3404 C.ar    1  UNL1       -0.0024
     25 H          -5.6699   -2.3229    1.4615 H       1  UNL1        0.0660
     26 H          -6.6715   -0.9678    2.2496 H       1  UNL1        0.0660
     27 H          -5.0402   -1.3330    2.8054 H       1  UNL1        0.0660
     28 H          -3.6071    2.2662   -2.5048 H       1  UNL1        0.0660
     29 H          -2.9364    3.1998   -1.0689 H       1  UNL1        0.0660
     30 H          -4.6427    3.4144   -1.5793 H       1  UNL1        0.0660
     31 H          -1.6311    1.6331   -1.0160 H       1  UNL1        0.0661
     32 H           1.2795   -2.5491    1.7776 H       1  UNL1        0.4529
     33 H          -1.0150   -2.7382    2.2743 H       1  UNL1        0.1382
     34 H          -3.2669   -1.9456    2.0044 H       1  UNL1        0.0663
     35 H           0.6328    0.8934   -1.9282 H       1  UNL1        0.0364
     36 H           0.8862    2.0242   -0.5575 H       1  UNL1        0.0364
     37 H           3.4996    1.8690   -1.9819 H       1  UNL1        0.0658
     38 H           6.6669   -1.1045   -2.1525 H       1  UNL1        0.1166
     39 H           7.9280   -0.1958   -1.1260 H       1  UNL1        0.1166
     40 H           3.7849   -2.0446    1.0046 H       1  UNL1        0.0663
@<TRIPOS>UNITY_ATOM_ATTR
11 1
charge 1
@<TRIPOS>BOND
     1     1     2    1
     2     2     3    1
     3     3     4   ar
     4     4     5    1
     5     5     6    1
     6     4     7   ar
     7     7     8   ar
     8     8     9   ar
     9     9    10   ar
    10    10    11   ar
    11    11    12   ar
    12    12    13   ar
    13    13    14   ar
    14    10    15    1
    15    15    16   ar
    16    16    17    1
    17    16    18   ar
    18    18    19   ar
    19    19    20    1
    20    20    21    1
    21    21    22    1
    22    22    23    1
    23    23    24   ar
    24    14     3   ar
    25    24    15   ar
    26    13     8   ar
    27    23    19   ar
    28    17     9    1
    29     1    25    1
    30     1    26    1
    31     1    27    1
    32     6    28    1
    33     6    29    1
    34     6    30    1
    35     7    31    1
    36    11    32    1
    37    12    33    1
    38    14    34    1
    39    17    35    1
    40    17    36    1
    41    18    37    1
    42    21    38    1
    43    21    39    1
    44    24    40    1
