@<TRIPOS>MOLECULE
*****
 70 74 0 0 0
SMALL
GASTEIGER

@<TRIPOS>ATOM
      1 O           2.9970   -2.3007    0.0423 O.2     1  UNL1       -0.2702
      2 C           3.9662   -1.5612   -0.3414 C.2     1  UNL1        0.2444
      3 N           3.8841   -0.2039    0.0278 N.am    1  UNL1       -0.3037
      4 C           2.7660    0.3621    0.8061 C.3     1  UNL1        0.0733
      5 C           3.3081    0.8000    2.1013 C.3     1  UNL1        0.0208
      6 N           3.4920    2.1715    2.3480 N.3     1  UNL1       -0.3004
      7 C           4.4084    2.8714    1.5208 C.3     1  UNL1       -0.0007
      8 C           3.7080    3.2281    0.2354 C.3     1  UNL1       -0.0339
      9 C           2.2626    2.7895    0.2664 C.3     1  UNL1        0.0003
     10 C           1.5361    3.2299    1.5116 C.3     1  UNL1       -0.0339
     11 C           2.3398    2.9137    2.7446 C.3     1  UNL1       -0.0007
     12 C           2.0837    1.3435   -0.0525 C.3     1  UNL1        0.1257
     13 O           0.6698    1.0902   -0.0086 O.3     1  UNL1       -0.4557
     14 C          -0.0697    0.7655   -1.1159 C.2     1  UNL1        0.3397
     15 O           0.5438    0.6913   -2.2180 O.2     1  UNL1       -0.2449
     16 C          -1.5144    0.5069   -1.0674 C.ar    1  UNL1        0.0659
     17 C          -2.2222    0.1820   -2.2046 C.ar    1  UNL1       -0.0053
     18 C          -3.5768   -0.0639   -2.1735 C.ar    1  UNL1        0.1320
     19 O          -4.2617   -0.3923   -3.3562 O.3     1  UNL1       -0.5059
     20 C          -4.3104    0.0011   -0.9927 C.ar    1  UNL1        0.1050
     21 C          -5.7349   -0.1516   -1.0157 C.2     1  UNL1        0.2044
     22 O          -6.2722    0.1323   -2.1820 O.2     1  UNL1       -0.2863
     23 C          -6.6666   -0.5405   -0.0147 C.ar    1  UNL1        0.0778
     24 C          -7.8976    0.1365   -0.0151 C.ar    1  UNL1        0.1285
     25 O          -8.0836    1.1324   -0.9596 O.3     1  UNL1       -0.5060
     26 C          -8.9116   -0.1430    0.8694 C.ar    1  UNL1       -0.0194
     27 C          -8.7518   -1.1267    1.8160 C.ar    1  UNL1       -0.0575
     28 C          -7.5709   -1.8034    1.8392 C.ar    1  UNL1       -0.0468
     29 C          -6.5374   -1.5123    0.9257 C.ar    1  UNL1        0.0731
     30 C          -5.4109   -2.4413    0.9110 C.2     1  UNL1        0.3376
     31 O          -4.5720   -2.4764    0.0228 O.2     1  UNL1       -0.2451
     32 O          -5.2461   -3.3671    1.9650 O.3     1  UNL1       -0.4771
     33 C          -3.5979    0.3277    0.1404 C.ar    1  UNL1        0.1320
     34 O          -4.2613    0.4178    1.3528 O.3     1  UNL1       -0.5059
     35 C          -2.2214    0.5766    0.1072 C.ar    1  UNL1       -0.0053
     36 C           5.0712   -2.1211   -1.1118 C.ar    1  UNL1        0.0369
     37 C           6.1417   -1.3844   -1.5576 C.ar    1  UNL1       -0.0462
     38 C           7.1781   -1.9393   -2.2881 C.ar    1  UNL1       -0.0195
     39 C           7.1571   -3.2841   -2.5930 C.ar    1  UNL1        0.1169
     40 O           8.1979   -3.8699   -3.3334 O.3     1  UNL1       -0.5068
     41 C           6.0881   -4.0361   -2.1516 C.ar    1  UNL1       -0.0195
     42 C           5.0577   -3.4635   -1.4204 C.ar    1  UNL1       -0.0462
     43 H           4.6457    0.4499   -0.2566 H       1  UNL1        0.1495
     44 H           2.0843   -0.5237    0.9765 H       1  UNL1        0.0548
     45 H           2.6430    0.4011    2.9257 H       1  UNL1        0.0446
     46 H           4.2920    0.2864    2.3206 H       1  UNL1        0.0446
     47 H           4.8705    3.7554    2.0086 H       1  UNL1        0.0427
     48 H           5.2501    2.1955    1.2669 H       1  UNL1        0.0427
     49 H           4.1645    2.7660   -0.6575 H       1  UNL1        0.0281
     50 H           3.7481    4.3476    0.1406 H       1  UNL1        0.0281
     51 H           1.7679    3.3556   -0.5805 H       1  UNL1        0.0338
     52 H           0.5538    2.7121    1.5080 H       1  UNL1        0.0281
     53 H           1.4260    4.3339    1.4578 H       1  UNL1        0.0281
     54 H           2.7162    3.8537    3.2450 H       1  UNL1        0.0427
     55 H           1.7515    2.3345    3.4542 H       1  UNL1        0.0427
     56 H           2.3630    1.2136   -1.1219 H       1  UNL1        0.0756
     57 H          -1.6546    0.1291   -3.1328 H       1  UNL1        0.0662
     58 H          -4.5035    0.3868   -3.9558 H       1  UNL1        0.2922
     59 H          -8.0583    2.1228   -0.7400 H       1  UNL1        0.2922
     60 H          -9.8558    0.3857    0.8592 H       1  UNL1        0.0654
     61 H          -9.5648   -1.3473    2.5261 H       1  UNL1        0.0619
     62 H          -7.4147   -2.5764    2.5649 H       1  UNL1        0.0626
     63 H          -4.3370   -3.8007    2.0954 H       1  UNL1        0.2954
     64 H          -3.8998   -0.1425    2.1147 H       1  UNL1        0.2922
     65 H          -1.6919    0.8303    1.0194 H       1  UNL1        0.0662
     66 H           6.1847   -0.3287   -1.3338 H       1  UNL1        0.0626
     67 H           8.0207   -1.3468   -2.6361 H       1  UNL1        0.0654
     68 H           9.0332   -4.1198   -2.8499 H       1  UNL1        0.2921
     69 H           6.0739   -5.0814   -2.3901 H       1  UNL1        0.0654
     70 H           4.2252   -4.0798   -1.0837 H       1  UNL1        0.0626
@<TRIPOS>BOND
     1     1     2    2
     2     2     3   am
     3     3     4    1
     4     4     5    1
     5     5     6    1
     6     6     7    1
     7     7     8    1
     8     8     9    1
     9     9    10    1
    10    10    11    1
    11     9    12    1
    12    12    13    1
    13    13    14    1
    14    14    15    2
    15    14    16    1
    16    16    17   ar
    17    17    18   ar
    18    18    19    1
    19    18    20   ar
    20    20    21    1
    21    21    22    2
    22    21    23    1
    23    23    24   ar
    24    24    25    1
    25    24    26   ar
    26    26    27   ar
    27    27    28   ar
    28    28    29   ar
    29    29    30    1
    30    30    31    2
    31    30    32    1
    32    20    33   ar
    33    33    34    1
    34    33    35   ar
    35     2    36    1
    36    36    37   ar
    37    37    38   ar
    38    38    39   ar
    39    39    40    1
    40    39    41   ar
    41    41    42   ar
    42    12     4    1
    43    35    16   ar
    44    42    36   ar
    45    11     6    1
    46    29    23   ar
    47     3    43    1
    48     4    44    1
    49     5    45    1
    50     5    46    1
    51     7    47    1
    52     7    48    1
    53     8    49    1
    54     8    50    1
    55     9    51    1
    56    10    52    1
    57    10    53    1
    58    11    54    1
    59    11    55    1
    60    12    56    1
    61    17    57    1
    62    19    58    1
    63    25    59    1
    64    26    60    1
    65    27    61    1
    66    28    62    1
    67    32    63    1
    68    34    64    1
    69    35    65    1
    70    37    66    1
    71    38    67    1
    72    40    68    1
    73    41    69    1
    74    42    70    1
