
     RDKit          3D

 70 74  0  0  0  0  0  0  0  0999 V2000
    2.9970   -2.3007    0.0423 O   0  0  0  0  0  0  0  0  0  0  0  0
    3.9662   -1.5612   -0.3414 C   0  0  0  0  0  0  0  0  0  0  0  0
    3.8841   -0.2039    0.0278 N   0  0  0  0  0  0  0  0  0  0  0  0
    2.7660    0.3621    0.8061 C   0  0  0  0  0  0  0  0  0  0  0  0
    3.3081    0.8000    2.1013 C   0  0  0  0  0  0  0  0  0  0  0  0
    3.4920    2.1715    2.3480 N   0  0  0  0  0  0  0  0  0  0  0  0
    4.4084    2.8714    1.5208 C   0  0  0  0  0  0  0  0  0  0  0  0
    3.7080    3.2281    0.2354 C   0  0  0  0  0  0  0  0  0  0  0  0
    2.2626    2.7895    0.2664 C   0  0  0  0  0  0  0  0  0  0  0  0
    1.5361    3.2299    1.5116 C   0  0  0  0  0  0  0  0  0  0  0  0
    2.3398    2.9137    2.7446 C   0  0  0  0  0  0  0  0  0  0  0  0
    2.0837    1.3435   -0.0525 C   0  0  2  0  0  0  0  0  0  0  0  0
    0.6698    1.0902   -0.0086 O   0  0  0  0  0  0  0  0  0  0  0  0
   -0.0697    0.7655   -1.1159 C   0  0  0  0  0  0  0  0  0  0  0  0
    0.5438    0.6913   -2.2180 O   0  0  0  0  0  0  0  0  0  0  0  0
   -1.5144    0.5069   -1.0674 C   0  0  0  0  0  0  0  0  0  0  0  0
   -2.2222    0.1820   -2.2046 C   0  0  0  0  0  0  0  0  0  0  0  0
   -3.5768   -0.0639   -2.1735 C   0  0  0  0  0  0  0  0  0  0  0  0
   -4.2617   -0.3923   -3.3562 O   0  0  0  0  0  0  0  0  0  0  0  0
   -4.3104    0.0011   -0.9927 C   0  0  0  0  0  0  0  0  0  0  0  0
   -5.7349   -0.1516   -1.0157 C   0  0  0  0  0  0  0  0  0  0  0  0
   -6.2722    0.1323   -2.1820 O   0  0  0  0  0  0  0  0  0  0  0  0
   -6.6666   -0.5405   -0.0147 C   0  0  0  0  0  0  0  0  0  0  0  0
   -7.8976    0.1365   -0.0151 C   0  0  0  0  0  0  0  0  0  0  0  0
   -8.0836    1.1324   -0.9596 O   0  0  0  0  0  0  0  0  0  0  0  0
   -8.9116   -0.1430    0.8694 C   0  0  0  0  0  0  0  0  0  0  0  0
   -8.7518   -1.1267    1.8160 C   0  0  0  0  0  0  0  0  0  0  0  0
   -7.5709   -1.8034    1.8392 C   0  0  0  0  0  0  0  0  0  0  0  0
   -6.5374   -1.5123    0.9257 C   0  0  0  0  0  0  0  0  0  0  0  0
   -5.4109   -2.4413    0.9110 C   0  0  0  0  0  0  0  0  0  0  0  0
   -4.5720   -2.4764    0.0228 O   0  0  0  0  0  0  0  0  0  0  0  0
   -5.2461   -3.3671    1.9650 O   0  0  0  0  0  0  0  0  0  0  0  0
   -3.5979    0.3277    0.1404 C   0  0  0  0  0  0  0  0  0  0  0  0
   -4.2613    0.4178    1.3528 O   0  0  0  0  0  0  0  0  0  0  0  0
   -2.2214    0.5766    0.1072 C   0  0  0  0  0  0  0  0  0  0  0  0
    5.0712   -2.1211   -1.1118 C   0  0  0  0  0  0  0  0  0  0  0  0
    6.1417   -1.3844   -1.5576 C   0  0  0  0  0  0  0  0  0  0  0  0
    7.1781   -1.9393   -2.2881 C   0  0  0  0  0  0  0  0  0  0  0  0
    7.1571   -3.2841   -2.5930 C   0  0  0  0  0  0  0  0  0  0  0  0
    8.1979   -3.8699   -3.3334 O   0  0  0  0  0  0  0  0  0  0  0  0
    6.0881   -4.0361   -2.1516 C   0  0  0  0  0  0  0  0  0  0  0  0
    5.0577   -3.4635   -1.4204 C   0  0  0  0  0  0  0  0  0  0  0  0
    4.6457    0.4499   -0.2566 H   0  0  0  0  0  0  0  0  0  0  0  0
    2.0843   -0.5237    0.9765 H   0  0  0  0  0  0  0  0  0  0  0  0
    2.6430    0.4011    2.9257 H   0  0  0  0  0  0  0  0  0  0  0  0
    4.2920    0.2864    2.3206 H   0  0  0  0  0  0  0  0  0  0  0  0
    4.8705    3.7554    2.0086 H   0  0  0  0  0  0  0  0  0  0  0  0
    5.2501    2.1955    1.2669 H   0  0  0  0  0  0  0  0  0  0  0  0
    4.1645    2.7660   -0.6575 H   0  0  0  0  0  0  0  0  0  0  0  0
    3.7481    4.3476    0.1406 H   0  0  0  0  0  0  0  0  0  0  0  0
    1.7679    3.3556   -0.5805 H   0  0  0  0  0  0  0  0  0  0  0  0
    0.5538    2.7121    1.5080 H   0  0  0  0  0  0  0  0  0  0  0  0
    1.4260    4.3339    1.4578 H   0  0  0  0  0  0  0  0  0  0  0  0
    2.7162    3.8537    3.2450 H   0  0  0  0  0  0  0  0  0  0  0  0
    1.7515    2.3345    3.4542 H   0  0  0  0  0  0  0  0  0  0  0  0
    2.3630    1.2136   -1.1219 H   0  0  0  0  0  0  0  0  0  0  0  0
   -1.6546    0.1291   -3.1328 H   0  0  0  0  0  0  0  0  0  0  0  0
   -4.5035    0.3868   -3.9558 H   0  0  0  0  0  0  0  0  0  0  0  0
   -8.0583    2.1228   -0.7400 H   0  0  0  0  0  0  0  0  0  0  0  0
   -9.8558    0.3857    0.8592 H   0  0  0  0  0  0  0  0  0  0  0  0
   -9.5648   -1.3473    2.5261 H   0  0  0  0  0  0  0  0  0  0  0  0
   -7.4147   -2.5764    2.5649 H   0  0  0  0  0  0  0  0  0  0  0  0
   -4.3370   -3.8007    2.0954 H   0  0  0  0  0  0  0  0  0  0  0  0
   -3.8998   -0.1425    2.1147 H   0  0  0  0  0  0  0  0  0  0  0  0
   -1.6919    0.8303    1.0194 H   0  0  0  0  0  0  0  0  0  0  0  0
    6.1847   -0.3287   -1.3338 H   0  0  0  0  0  0  0  0  0  0  0  0
    8.0207   -1.3468   -2.6361 H   0  0  0  0  0  0  0  0  0  0  0  0
    9.0332   -4.1198   -2.8499 H   0  0  0  0  0  0  0  0  0  0  0  0
    6.0739   -5.0814   -2.3901 H   0  0  0  0  0  0  0  0  0  0  0  0
    4.2252   -4.0798   -1.0837 H   0  0  0  0  0  0  0  0  0  0  0  0
  1  2  2  0
  2  3  1  0
  3  4  1  0
  4  5  1  0
  5  6  1  0
  6  7  1  0
  7  8  1  0
  8  9  1  0
  9 10  1  0
 10 11  1  0
  9 12  1  0
 12 13  1  0
 13 14  1  0
 14 15  2  0
 14 16  1  0
 16 17  2  0
 17 18  1  0
 18 19  1  0
 18 20  2  0
 20 21  1  0
 21 22  2  0
 21 23  1  0
 23 24  2  0
 24 25  1  0
 24 26  1  0
 26 27  2  0
 27 28  1  0
 28 29  2  0
 29 30  1  0
 30 31  2  0
 30 32  1  0
 20 33  1  0
 33 34  1  0
 33 35  2  0
  2 36  1  0
 36 37  2  0
 37 38  1  0
 38 39  2  0
 39 40  1  0
 39 41  1  0
 41 42  2  0
 12  4  1  0
 35 16  1  0
 42 36  1  0
 11  6  1  0
 29 23  1  0
  3 43  1  0
  4 44  1  0
  5 45  1  0
  5 46  1  0
  7 47  1  0
  7 48  1  0
  8 49  1  0
  8 50  1  0
  9 51  1  0
 10 52  1  0
 10 53  1  0
 11 54  1  0
 11 55  1  0
 12 56  1  6
 17 57  1  0
 19 58  1  0
 25 59  1  0
 26 60  1  0
 27 61  1  0
 28 62  1  0
 32 63  1  0
 34 64  1  0
 35 65  1  0
 37 66  1  0
 38 67  1  0
 40 68  1  0
 41 69  1  0
 42 70  1  0
M  END
$$$$
