
     RDKit          3D

 44 46  0  0  0  0  0  0  0  0999 V2000
    2.5223    2.2938    1.9624 C   0  0  0  0  0  0  0  0  0  0  0  0
    2.3891    0.9043    1.5936 O   0  0  0  0  0  0  0  0  0  0  0  0
    3.4579    0.2671    1.1099 C   0  0  0  0  0  0  0  0  0  0  0  0
    4.7537    0.8638    0.9412 C   0  0  0  0  0  0  0  0  0  0  0  0
    5.6809    0.1676    0.4745 C   0  0  0  0  0  0  0  0  0  0  0  0
    6.9969    0.9247   -0.0124 C   0  0  0  0  0  0  0  0  0  0  0  0
    7.9725    1.4806   -0.3936 N   0  0  0  0  0  0  0  0  0  0  0  0
    5.9771   -1.0619    0.0131 C   0  0  0  0  0  0  0  0  0  0  0  0
    4.4334   -1.7224    0.2344 C   0  0  0  0  0  0  0  0  0  0  0  0
    3.4623   -1.0441    0.7099 C   0  0  0  0  0  0  0  0  0  0  0  0
    1.9630   -1.9823    1.0896 S   0  0  0  0  0  6  0  0  0  0  0  0
    2.3161   -2.9842    2.1359 O   0  0  0  0  0  0  0  0  0  0  0  0
    1.6326   -2.6876   -0.2248 O   0  0  0  0  0  0  0  0  0  0  0  0
    0.6958   -1.0049    1.5810 N   0  0  0  0  0  0  0  0  0  0  0  0
   -0.5306   -0.8864    0.8811 C   0  0  0  0  0  0  0  0  0  0  0  0
   -1.2170   -2.0322    0.5204 C   0  0  0  0  0  0  0  0  0  0  0  0
   -2.4116   -1.9529   -0.1150 C   0  0  0  0  0  0  0  0  0  0  0  0
   -3.0256   -0.7530   -0.4507 C   0  0  0  0  0  0  0  0  0  0  0  0
   -2.3243    0.3932   -0.0868 C   0  0  0  0  0  0  0  0  0  0  0  0
   -1.1022    0.3126    0.5664 C   0  0  0  0  0  0  0  0  0  0  0  0
   -2.9114    1.5843   -0.4347 C   0  0  0  0  0  0  0  0  0  0  0  0
   -4.1179    1.6532   -1.0922 C   0  0  0  0  0  0  0  0  0  0  0  0
   -4.6656    2.9748   -1.4430 C   0  0  0  0  0  0  0  0  0  0  0  0
   -4.7814    0.4897   -1.4273 C   0  0  0  0  0  0  0  0  0  0  0  0
   -5.8844    0.5606   -2.0265 O   0  0  0  0  0  0  0  0  0  0  0  0
   -4.2170   -0.6883   -1.0993 N   0  0  0  0  0  0  0  0  0  0  0  0
   -4.8917   -1.9018   -1.4294 C   0  0  0  0  0  0  0  0  0  0  0  0
    3.2627    2.4029    2.7718 H   0  0  0  0  0  0  0  0  0  0  0  0
    2.9106    2.7909    1.0250 H   0  0  0  0  0  0  0  0  0  0  0  0
    1.5644    2.7377    2.2542 H   0  0  0  0  0  0  0  0  0  0  0  0
    4.8175    1.9064    1.2345 H   0  0  0  0  0  0  0  0  0  0  0  0
    6.1631   -1.9602   -0.3199 H   0  0  0  0  0  0  0  0  0  0  0  0
    4.4948   -2.7230   -0.0970 H   0  0  0  0  0  0  0  0  0  0  0  0
    0.7598   -0.4355    2.4475 H   0  0  0  0  0  0  0  0  0  0  0  0
   -0.7609   -3.0263    0.7730 H   0  0  0  0  0  0  0  0  0  0  0  0
   -2.9367   -2.8717   -0.3837 H   0  0  0  0  0  0  0  0  0  0  0  0
   -0.5914    1.2420    0.8189 H   0  0  0  0  0  0  0  0  0  0  0  0
   -2.3922    2.5123   -0.1662 H   0  0  0  0  0  0  0  0  0  0  0  0
   -3.8027    3.7102   -1.4901 H   0  0  0  0  0  0  0  0  0  0  0  0
   -5.1976    2.9901   -2.4281 H   0  0  0  0  0  0  0  0  0  0  0  0
   -5.3240    3.3153   -0.6407 H   0  0  0  0  0  0  0  0  0  0  0  0
   -5.9046   -1.7232   -1.8716 H   0  0  0  0  0  0  0  0  0  0  0  0
   -4.3001   -2.4283   -2.2378 H   0  0  0  0  0  0  0  0  0  0  0  0
   -4.9353   -2.6077   -0.6124 H   0  0  0  0  0  0  0  0  0  0  0  0
  1  2  1  0
  2  3  1  0
  3  4  2  0
  4  5  1  0
  5  6  1  0
  6  7  3  0
  5  8  2  0
  8  9  1  0
  9 10  2  0
 10 11  1  0
 11 12  2  0
 11 13  2  0
 11 14  1  0
 14 15  1  0
 15 16  2  0
 16 17  1  0
 17 18  2  0
 18 19  1  0
 19 20  2  0
 19 21  1  0
 21 22  2  0
 22 23  1  0
 22 24  1  0
 24 25  2  0
 24 26  1  0
 26 27  1  0
 10  3  1  0
 20 15  1  0
 26 18  1  0
  1 28  1  0
  1 29  1  0
  1 30  1  0
  4 31  1  0
  8 32  1  0
  9 33  1  0
 14 34  1  0
 16 35  1  0
 17 36  1  0
 20 37  1  0
 21 38  1  0
 23 39  1  0
 23 40  1  0
 23 41  1  0
 27 42  1  0
 27 43  1  0
 27 44  1  0
M  END
$$$$
