@<TRIPOS>MOLECULE
*****
 44 46 0 0 0
SMALL
GASTEIGER

@<TRIPOS>ATOM
      1 C           2.5223    2.2938    1.9624 C.3     1  UNL1        0.0789
      2 O           2.3891    0.9043    1.5936 O.3     1  UNL1       -0.4931
      3 C           3.4579    0.2671    1.1099 C.ar    1  UNL1        0.1478
      4 C           4.7537    0.8638    0.9412 C.ar    1  UNL1       -0.0006
      5 C           5.6809    0.1676    0.4745 C.ar    1  UNL1        0.0553
      6 C           6.9969    0.9247   -0.0124 C.1     1  UNL1        0.0993
      7 N           7.9725    1.4806   -0.3936 N.1     1  UNL1       -0.1909
      8 C           5.9771   -1.0619    0.0131 C.ar    1  UNL1       -0.0423
      9 C           4.4334   -1.7224    0.2344 C.ar    1  UNL1       -0.0302
     10 C           3.4623   -1.0441    0.7099 C.ar    1  UNL1        0.1499
     11 S           1.9630   -1.9823    1.0896 S.O2    1  UNL1        0.0758
     12 O           2.3161   -2.9842    2.1359 O.2     1  UNL1       -0.1499
     13 O           1.6326   -2.6876   -0.2248 O.2     1  UNL1       -0.1499
     14 N           0.6958   -1.0049    1.5810 N.pl3   1  UNL1       -0.2161
     15 C          -0.5306   -0.8864    0.8811 C.ar    1  UNL1        0.0487
     16 C          -1.2170   -2.0322    0.5204 C.ar    1  UNL1       -0.0373
     17 C          -2.4116   -1.9529   -0.1150 C.ar    1  UNL1       -0.0357
     18 C          -3.0256   -0.7530   -0.4507 C.ar    1  UNL1        0.0518
     19 C          -2.3243    0.3932   -0.0868 C.ar    1  UNL1        0.0008
     20 C          -1.1022    0.3126    0.5664 C.ar    1  UNL1       -0.0302
     21 C          -2.9114    1.5843   -0.4347 C.ar    1  UNL1       -0.0445
     22 C          -4.1179    1.6532   -1.0922 C.ar    1  UNL1        0.0146
     23 C          -4.6656    2.9748   -1.4430 C.3     1  UNL1       -0.0346
     24 C          -4.7814    0.4897   -1.4273 C.ar    1  UNL1        0.2544
     25 O          -5.8844    0.5606   -2.0265 O.2     1  UNL1       -0.2674
     26 N          -4.2170   -0.6883   -1.0993 N.ar    1  UNL1       -0.3109
     27 C          -4.8917   -1.9018   -1.4294 C.3     1  UNL1        0.0153
     28 H           3.2627    2.4029    2.7718 H       1  UNL1        0.0660
     29 H           2.9106    2.7909    1.0250 H       1  UNL1        0.0660
     30 H           1.5644    2.7377    2.2542 H       1  UNL1        0.0660
     31 H           4.8175    1.9064    1.2345 H       1  UNL1        0.0667
     32 H           6.1631   -1.9602   -0.3199 H       1  UNL1        0.0631
     33 H           4.4948   -2.7230   -0.0970 H       1  UNL1        0.0639
     34 H           0.7598   -0.4355    2.4475 H       1  UNL1        0.1737
     35 H          -0.7609   -3.0263    0.7730 H       1  UNL1        0.0637
     36 H          -2.9367   -2.8717   -0.3837 H       1  UNL1        0.0639
     37 H          -0.5914    1.2420    0.8189 H       1  UNL1        0.0643
     38 H          -2.3922    2.5123   -0.1662 H       1  UNL1        0.0628
     39 H          -3.8027    3.7102   -1.4901 H       1  UNL1        0.0279
     40 H          -5.1976    2.9901   -2.4281 H       1  UNL1        0.0279
     41 H          -5.3240    3.3153   -0.6407 H       1  UNL1        0.0279
     42 H          -5.9046   -1.7232   -1.8716 H       1  UNL1        0.0457
     43 H          -4.3001   -2.4283   -2.2378 H       1  UNL1        0.0457
     44 H          -4.9353   -2.6077   -0.6124 H       1  UNL1        0.0457
@<TRIPOS>BOND
     1     1     2    1
     2     2     3    1
     3     3     4   ar
     4     4     5   ar
     5     5     6    1
     6     6     7    3
     7     5     8   ar
     8     8     9   ar
     9     9    10   ar
    10    10    11    1
    11    11    12    2
    12    11    13    2
    13    11    14    1
    14    14    15    1
    15    15    16   ar
    16    16    17   ar
    17    17    18   ar
    18    18    19   ar
    19    19    20   ar
    20    19    21   ar
    21    21    22   ar
    22    22    23    1
    23    22    24   ar
    24    24    25    2
    25    24    26   ar
    26    26    27    1
    27    10     3   ar
    28    20    15   ar
    29    26    18   ar
    30     1    28    1
    31     1    29    1
    32     1    30    1
    33     4    31    1
    34     8    32    1
    35     9    33    1
    36    14    34    1
    37    16    35    1
    38    17    36    1
    39    20    37    1
    40    21    38    1
    41    23    39    1
    42    23    40    1
    43    23    41    1
    44    27    42    1
    45    27    43    1
    46    27    44    1
