@<TRIPOS>MOLECULE
*****
 61 62 0 0 0
SMALL
GASTEIGER

@<TRIPOS>ATOM
      1 C          -3.5288   -2.0544   -1.0513 C.3     1  UNL1       -0.0523
      2 C          -3.6290   -1.5938    0.3978 C.3     1  UNL1       -0.0036
      3 N          -3.0681   -0.3279    0.6247 N.3     1  UNL1       -0.2983
      4 C          -1.6528   -0.2341    0.5464 C.3     1  UNL1       -0.0008
      5 C          -0.9484   -0.9271    1.6922 C.3     1  UNL1       -0.0402
      6 C           0.5367   -0.8257    1.5799 C.3     1  UNL1       -0.0516
      7 C           1.1277   -1.4534    0.3555 C.3     1  UNL1       -0.0482
      8 C           2.6476   -1.2338    0.4295 C.3     1  UNL1       -0.0173
      9 C           3.2098   -1.8326    1.6494 C.2     1  UNL1        0.0059
     10 N           4.3606   -1.4806    2.0936 N.2     1  UNL1       -0.2561
     11 C           5.0973   -0.4992    1.3918 C.ar    1  UNL1        0.1084
     12 C           4.8003    0.8417    1.4773 C.ar    1  UNL1        0.0124
     13 C           5.5618    1.7416    0.7662 C.ar    1  UNL1        0.1607
     14 O           5.2578    3.0993    0.8557 O.3     1  UNL1       -0.5032
     15 C           6.6138    1.3489   -0.0305 C.ar    1  UNL1        0.1649
     16 O           7.3788    2.2641   -0.7455 O.3     1  UNL1       -0.4913
     17 C           8.4463    1.8018   -1.5437 C.3     1  UNL1        0.0790
     18 C           6.8807   -0.0163   -0.0889 C.ar    1  UNL1        0.0273
     19 C           6.1392   -0.9430    0.6093 C.ar    1  UNL1        0.1458
     20 O           6.4175   -2.2997    0.5409 O.3     1  UNL1       -0.5045
     21 C          -3.8270    0.8311    0.6252 C.3     1  UNL1        0.0275
     22 C          -4.4975    1.2825   -0.6027 C.ar    1  UNL1        0.0082
     23 C          -3.8990    2.2550   -1.4266 C.ar    1  UNL1       -0.0539
     24 C          -4.4800    2.6985   -2.5927 C.ar    1  UNL1       -0.0612
     25 C          -5.6917    2.2017   -3.0091 C.ar    1  UNL1       -0.0583
     26 C          -6.3019    1.2521   -2.2276 C.ar    1  UNL1       -0.0196
     27 C          -5.7047    0.8017   -1.0376 C.ar    1  UNL1        0.1245
     28 O          -6.3879   -0.1431   -0.3231 O.3     1  UNL1       -0.4948
     29 C          -7.6233   -0.7103   -0.6588 C.3     1  UNL1        0.0788
     30 H          -3.5305   -3.1604   -1.1190 H       1  UNL1        0.0242
     31 H          -2.6125   -1.7014   -1.5508 H       1  UNL1        0.0242
     32 H          -4.4273   -1.7077   -1.6345 H       1  UNL1        0.0242
     33 H          -3.0412   -2.4161    0.9525 H       1  UNL1        0.0424
     34 H          -4.6500   -1.7557    0.7753 H       1  UNL1        0.0424
     35 H          -1.3256    0.8233    0.5574 H       1  UNL1        0.0427
     36 H          -1.3004   -0.7155   -0.3812 H       1  UNL1        0.0427
     37 H          -1.2276   -0.4622    2.6752 H       1  UNL1        0.0278
     38 H          -1.2200   -2.0013    1.7744 H       1  UNL1        0.0278
     39 H           0.8402    0.2479    1.5724 H       1  UNL1        0.0266
     40 H           0.9677   -1.2398    2.5323 H       1  UNL1        0.0266
     41 H           0.9280   -2.5250    0.2638 H       1  UNL1        0.0269
     42 H           0.7897   -0.8719   -0.5245 H       1  UNL1        0.0269
     43 H           3.1300   -1.6591   -0.4881 H       1  UNL1        0.0322
     44 H           2.8428   -0.1495    0.4213 H       1  UNL1        0.0322
     45 H           2.6634   -2.5815    2.1945 H       1  UNL1        0.0782
     46 H           3.9862    1.1989    2.0871 H       1  UNL1        0.0678
     47 H           6.0828    3.7137    0.9445 H       1  UNL1        0.2923
     48 H           9.1036    1.0652   -1.0100 H       1  UNL1        0.0660
     49 H           9.1414    2.6402   -1.8208 H       1  UNL1        0.0660
     50 H           8.0893    1.3933   -2.5290 H       1  UNL1        0.0660
     51 H           7.6890   -0.3671   -0.6941 H       1  UNL1        0.0693
     52 H           5.8445   -2.9301   -0.0054 H       1  UNL1        0.2922
     53 H          -4.5716    0.7567    1.4856 H       1  UNL1        0.0477
     54 H          -3.1842    1.6911    0.9521 H       1  UNL1        0.0477
     55 H          -2.9431    2.6210   -1.0644 H       1  UNL1        0.0622
     56 H          -3.9967    3.4451   -3.2040 H       1  UNL1        0.0618
     57 H          -6.1703    2.5433   -3.9346 H       1  UNL1        0.0619
     58 H          -7.2525    0.8793   -2.5740 H       1  UNL1        0.0654
     59 H          -8.4467   -0.0387   -0.3741 H       1  UNL1        0.0660
     60 H          -7.7803   -1.6477   -0.0695 H       1  UNL1        0.0660
     61 H          -7.6533   -0.9334   -1.7576 H       1  UNL1        0.0660
@<TRIPOS>BOND
     1     1     2    1
     2     2     3    1
     3     3     4    1
     4     4     5    1
     5     5     6    1
     6     6     7    1
     7     7     8    1
     8     8     9    1
     9     9    10    2
    10    10    11    1
    11    11    12   ar
    12    12    13   ar
    13    13    14    1
    14    13    15   ar
    15    15    16    1
    16    16    17    1
    17    15    18   ar
    18    18    19   ar
    19    19    20    1
    20     3    21    1
    21    21    22    1
    22    22    23   ar
    23    23    24   ar
    24    24    25   ar
    25    25    26   ar
    26    26    27   ar
    27    27    28    1
    28    28    29    1
    29    19    11   ar
    30    27    22   ar
    31     1    30    1
    32     1    31    1
    33     1    32    1
    34     2    33    1
    35     2    34    1
    36     4    35    1
    37     4    36    1
    38     5    37    1
    39     5    38    1
    40     6    39    1
    41     6    40    1
    42     7    41    1
    43     7    42    1
    44     8    43    1
    45     8    44    1
    46     9    45    1
    47    12    46    1
    48    14    47    1
    49    17    48    1
    50    17    49    1
    51    17    50    1
    52    18    51    1
    53    20    52    1
    54    21    53    1
    55    21    54    1
    56    23    55    1
    57    24    56    1
    58    25    57    1
    59    26    58    1
    60    29    59    1
    61    29    60    1
    62    29    61    1
