@<TRIPOS>MOLECULE
*****
 31 32 0 0 0
SMALL
GASTEIGER

@<TRIPOS>ATOM
      1 C          -1.9745    0.4425   -0.0992 C.3     1  UNL1        0.0128
      2 C          -1.8036   -0.2497    1.2350 C.3     1  UNL1       -0.0358
      3 C          -0.7286   -1.2811    1.0127 C.3     1  UNL1       -0.0351
      4 C          -0.0266   -0.6703   -0.1973 C.3     1  UNL1        0.0258
      5 N          -1.1451   -0.3369   -1.0314 N.3     1  UNL1       -0.2985
      6 C          -1.8747   -1.4687   -1.5162 C.3     1  UNL1       -0.0122
      7 C           0.6193    0.5926    0.2979 C.3     1  UNL1        0.0977
      8 C           2.0851    0.4245    0.0977 C.2     1  UNL1        0.3140
      9 O           2.7317    1.2139   -0.6350 O.2     1  UNL1       -0.2504
     10 O           2.6030   -0.6719    0.8009 O.3     1  UNL1       -0.4676
     11 C           3.9777   -1.0119    0.7492 C.3     1  UNL1        0.0817
     12 C           0.0920    1.8256   -0.3869 C.3     1  UNL1        0.0710
     13 O           0.4055    1.8841   -1.7240 O.3     1  UNL1       -0.3909
     14 C          -1.4065    1.8409   -0.1245 C.3     1  UNL1       -0.0103
     15 H          -3.0328    0.4213   -0.4368 H       1  UNL1        0.0463
     16 H          -1.4796    0.5205    1.9718 H       1  UNL1        0.0281
     17 H          -2.7452   -0.7152    1.5612 H       1  UNL1        0.0281
     18 H           0.0280   -1.2977    1.8462 H       1  UNL1        0.0281
     19 H          -1.0725   -2.2991    0.8618 H       1  UNL1        0.0281
     20 H           0.6635   -1.3511   -0.6945 H       1  UNL1        0.0471
     21 H          -2.3323   -2.1019   -0.7307 H       1  UNL1        0.0391
     22 H          -1.2585   -2.0514   -2.1992 H       1  UNL1        0.0391
     23 H          -2.7372   -1.0659   -2.0972 H       1  UNL1        0.0391
     24 H           0.4882    0.7785    1.3848 H       1  UNL1        0.0455
     25 H           4.4532   -0.9881    1.7514 H       1  UNL1        0.0661
     26 H           4.5301   -0.3692    0.0667 H       1  UNL1        0.0661
     27 H           4.0208   -2.0624    0.4139 H       1  UNL1        0.0661
     28 H           0.5453    2.7034    0.1181 H       1  UNL1        0.0602
     29 H          -0.0881    2.6387   -2.1223 H       1  UNL1        0.2098
     30 H          -1.6391    2.3501    0.8193 H       1  UNL1        0.0305
     31 H          -1.8988    2.3560   -0.9931 H       1  UNL1        0.0305
@<TRIPOS>BOND
     1     1     2    1
     2     2     3    1
     3     3     4    1
     4     4     5    1
     5     5     6    1
     6     4     7    1
     7     7     8    1
     8     8     9    2
     9     8    10    1
    10    10    11    1
    11     7    12    1
    12    12    13    1
    13    12    14    1
    14     5     1    1
    15    14     1    1
    16     1    15    1
    17     2    16    1
    18     2    17    1
    19     3    18    1
    20     3    19    1
    21     4    20    1
    22     6    21    1
    23     6    22    1
    24     6    23    1
    25     7    24    1
    26    11    25    1
    27    11    26    1
    28    11    27    1
    29    12    28    1
    30    13    29    1
    31    14    30    1
    32    14    31    1
