
     RDKit          3D

 31 32  0  0  0  0  0  0  0  0999 V2000
   -1.9745    0.4425   -0.0992 C   0  0  2  0  0  0  0  0  0  0  0  0
   -1.8036   -0.2497    1.2350 C   0  0  0  0  0  0  0  0  0  0  0  0
   -0.7286   -1.2811    1.0127 C   0  0  0  0  0  0  0  0  0  0  0  0
   -0.0266   -0.6703   -0.1973 C   0  0  1  0  0  0  0  0  0  0  0  0
   -1.1451   -0.3369   -1.0314 N   0  0  0  0  0  0  0  0  0  0  0  0
   -1.8747   -1.4687   -1.5162 C   0  0  0  0  0  0  0  0  0  0  0  0
    0.6193    0.5926    0.2979 C   0  0  1  0  0  0  0  0  0  0  0  0
    2.0851    0.4245    0.0977 C   0  0  0  0  0  0  0  0  0  0  0  0
    2.7317    1.2139   -0.6350 O   0  0  0  0  0  0  0  0  0  0  0  0
    2.6030   -0.6719    0.8009 O   0  0  0  0  0  0  0  0  0  0  0  0
    3.9777   -1.0119    0.7492 C   0  0  0  0  0  0  0  0  0  0  0  0
    0.0920    1.8256   -0.3869 C   0  0  1  0  0  0  0  0  0  0  0  0
    0.4055    1.8841   -1.7240 O   0  0  0  0  0  0  0  0  0  0  0  0
   -1.4065    1.8409   -0.1245 C   0  0  0  0  0  0  0  0  0  0  0  0
   -3.0328    0.4213   -0.4368 H   0  0  0  0  0  0  0  0  0  0  0  0
   -1.4796    0.5205    1.9718 H   0  0  0  0  0  0  0  0  0  0  0  0
   -2.7452   -0.7152    1.5612 H   0  0  0  0  0  0  0  0  0  0  0  0
    0.0280   -1.2977    1.8462 H   0  0  0  0  0  0  0  0  0  0  0  0
   -1.0725   -2.2991    0.8618 H   0  0  0  0  0  0  0  0  0  0  0  0
    0.6635   -1.3511   -0.6945 H   0  0  0  0  0  0  0  0  0  0  0  0
   -2.3323   -2.1019   -0.7307 H   0  0  0  0  0  0  0  0  0  0  0  0
   -1.2585   -2.0514   -2.1992 H   0  0  0  0  0  0  0  0  0  0  0  0
   -2.7372   -1.0659   -2.0972 H   0  0  0  0  0  0  0  0  0  0  0  0
    0.4882    0.7785    1.3848 H   0  0  0  0  0  0  0  0  0  0  0  0
    4.4532   -0.9881    1.7514 H   0  0  0  0  0  0  0  0  0  0  0  0
    4.5301   -0.3692    0.0667 H   0  0  0  0  0  0  0  0  0  0  0  0
    4.0208   -2.0624    0.4139 H   0  0  0  0  0  0  0  0  0  0  0  0
    0.5453    2.7034    0.1181 H   0  0  0  0  0  0  0  0  0  0  0  0
   -0.0881    2.6387   -2.1223 H   0  0  0  0  0  0  0  0  0  0  0  0
   -1.6391    2.3501    0.8193 H   0  0  0  0  0  0  0  0  0  0  0  0
   -1.8988    2.3560   -0.9931 H   0  0  0  0  0  0  0  0  0  0  0  0
  1  2  1  0
  2  3  1  0
  3  4  1  0
  4  5  1  0
  5  6  1  0
  4  7  1  0
  7  8  1  0
  8  9  2  0
  8 10  1  0
 10 11  1  0
  7 12  1  0
 12 13  1  0
 12 14  1  0
  5  1  1  0
 14  1  1  0
  1 15  1  6
  2 16  1  0
  2 17  1  0
  3 18  1  0
  3 19  1  0
  4 20  1  6
  6 21  1  0
  6 22  1  0
  6 23  1  0
  7 24  1  1
 11 25  1  0
 11 26  1  0
 11 27  1  0
 12 28  1  1
 13 29  1  0
 14 30  1  0
 14 31  1  0
M  END
$$$$
