@<TRIPOS>MOLECULE
*****
 70 76 0 0 0
SMALL
GASTEIGER

@<TRIPOS>ATOM
      1 O          -2.8685   -0.0702   -0.3479 O.2     1  UNL1       -0.2662
      2 C          -1.6319    0.2554   -0.2703 C.2     1  UNL1        0.2867
      3 C          -1.3881    1.6777   -0.5459 C.ar    1  UNL1        0.1939
      4 O          -2.2851    2.6298   -0.5502 O.2     1  UNL1       -0.4499
      5 C          -1.7741    3.7978   -0.8281 C.ar    1  UNL1        0.1362
      6 C          -2.4508    5.1039   -0.9279 C.ar    1  UNL1        0.0174
      7 C          -3.8037    5.2425   -0.7029 C.ar    1  UNL1       -0.0497
      8 C          -4.4529    6.4438   -0.8144 C.ar    1  UNL1       -0.0427
      9 C          -3.6986    7.5630   -1.1708 C.ar    1  UNL1        0.0410
     10 CL         -4.4428    9.1428   -1.3417 Cl      1  UNL1       -0.0835
     11 C          -2.3629    7.4400   -1.3944 C.ar    1  UNL1       -0.0427
     12 C          -1.7078    6.2183   -1.2807 C.ar    1  UNL1       -0.0497
     13 C          -0.4046    3.5761   -1.0219 C.ar    1  UNL1       -0.0116
     14 C          -0.1667    2.2243   -0.8411 C.ar    1  UNL1        0.0079
     15 C           1.1886    1.7092   -0.9928 C.3     1  UNL1        0.0032
     16 C           1.4714    0.4133   -0.4270 C.ar    1  UNL1       -0.0198
     17 C           2.8653    0.2748   -0.3054 C.ar    1  UNL1       -0.0354
     18 C           3.4847   -0.8319    0.1924 C.ar    1  UNL1        0.0301
     19 N           4.8936   -0.9882    0.3504 N.pl3   1  UNL1       -0.3275
     20 C           5.3875   -1.8859    1.3930 C.3     1  UNL1        0.0248
     21 C           6.3532   -1.0439    2.2380 C.3     1  UNL1        0.0117
     22 N           7.4517   -0.7140    1.3778 N.3     1  UNL1       -0.3130
     23 C           7.0677    0.1862    0.3083 C.3     1  UNL1        0.0117
     24 C           5.8772   -0.3249   -0.4632 C.3     1  UNL1        0.0248
     25 C           2.6888   -1.8710    0.5938 C.ar    1  UNL1       -0.0389
     26 C           1.3095   -1.7697    0.4893 C.ar    1  UNL1       -0.0382
     27 C           0.7098   -0.6594   -0.0048 C.ar    1  UNL1        0.0406
     28 N          -0.7219   -0.7784    0.0589 N.am    1  UNL1       -0.2603
     29 C          -1.2677   -1.9887    0.5705 C.3     1  UNL1        0.0458
     30 C          -1.7117   -3.0243   -0.3709 C.ar    1  UNL1       -0.0220
     31 C          -0.8871   -3.4827   -1.3572 C.ar    1  UNL1       -0.0565
     32 C          -1.3479   -4.3742   -2.3028 C.ar    1  UNL1       -0.0614
     33 C          -2.6426   -4.8290   -2.2856 C.ar    1  UNL1       -0.0612
     34 C          -3.4960   -4.3870   -1.3042 C.ar    1  UNL1       -0.0537
     35 C          -3.0287   -3.5006   -0.3677 C.ar    1  UNL1       -0.0117
     36 C          -3.9734   -3.1408    0.7215 C.ar    1  UNL1        0.0005
     37 C          -3.5573   -3.3421    2.0319 C.ar    1  UNL1       -0.0511
     38 C          -4.4433   -3.0118    3.0317 C.ar    1  UNL1       -0.0430
     39 C          -5.6735   -2.5084    2.7033 C.ar    1  UNL1        0.0276
     40 N          -6.0491   -2.3234    1.4232 N.ar    1  UNL1       -0.2627
     41 C          -5.2204   -2.6302    0.4119 C.ar    1  UNL1        0.0353
     42 H          -4.3647    4.3612   -0.4264 H       1  UNL1        0.0625
     43 H          -5.5108    6.5505   -0.6329 H       1  UNL1        0.0632
     44 H          -1.7718    8.3189   -1.6678 H       1  UNL1        0.0632
     45 H          -0.6448    6.1514   -1.4682 H       1  UNL1        0.0625
     46 H           0.3026    4.3514   -1.2656 H       1  UNL1        0.0658
     47 H           1.9506    2.4434   -0.5852 H       1  UNL1        0.0363
     48 H           1.4130    1.6786   -2.0841 H       1  UNL1        0.0363
     49 H           3.5217    1.0993   -0.6241 H       1  UNL1        0.0639
     50 H           5.9698   -2.6727    0.8939 H       1  UNL1        0.0476
     51 H           4.5777   -2.2712    2.0509 H       1  UNL1        0.0476
     52 H           5.7863   -0.1345    2.5793 H       1  UNL1        0.0439
     53 H           6.6935   -1.6601    3.0701 H       1  UNL1        0.0439
     54 H           8.1814   -0.2072    1.9495 H       1  UNL1        0.1220
     55 H           7.9198    0.2283   -0.4025 H       1  UNL1        0.0439
     56 H           6.8459    1.2050    0.6380 H       1  UNL1        0.0439
     57 H           5.4474    0.4984   -1.0766 H       1  UNL1        0.0476
     58 H           6.2599   -1.1093   -1.1740 H       1  UNL1        0.0476
     59 H           3.1178   -2.7819    0.9742 H       1  UNL1        0.0637
     60 H           0.7656   -2.6149    0.8045 H       1  UNL1        0.0637
     61 H          -0.8483   -2.3497    1.5354 H       1  UNL1        0.0518
     62 H          -2.2948   -1.6246    1.0098 H       1  UNL1        0.0518
     63 H           0.1349   -3.1888   -1.4693 H       1  UNL1        0.0621
     64 H          -0.6774   -4.7448   -3.1033 H       1  UNL1        0.0618
     65 H          -2.9323   -5.5387   -3.0699 H       1  UNL1        0.0618
     66 H          -4.5369   -4.7565   -1.2889 H       1  UNL1        0.0624
     67 H          -2.5793   -3.7522    2.2565 H       1  UNL1        0.0625
     68 H          -4.1519   -3.1567    4.0616 H       1  UNL1        0.0633
     69 H          -6.3592   -2.2556    3.4822 H       1  UNL1        0.0829
     70 H          -5.5051   -2.4852   -0.6429 H       1  UNL1        0.0836
@<TRIPOS>BOND
     1     1     2    2
     2     2     3    1
     3     3     4   ar
     4     4     5   ar
     5     5     6    1
     6     6     7   ar
     7     7     8   ar
     8     8     9   ar
     9     9    10    1
    10     9    11   ar
    11    11    12   ar
    12     5    13   ar
    13    13    14   ar
    14    14    15    1
    15    15    16    1
    16    16    17   ar
    17    17    18   ar
    18    18    19    1
    19    19    20    1
    20    20    21    1
    21    21    22    1
    22    22    23    1
    23    23    24    1
    24    18    25   ar
    25    25    26   ar
    26    26    27   ar
    27    27    28    1
    28    28    29    1
    29    29    30    1
    30    30    31   ar
    31    31    32   ar
    32    32    33   ar
    33    33    34   ar
    34    34    35   ar
    35    35    36    1
    36    36    37   ar
    37    37    38   ar
    38    38    39   ar
    39    39    40   ar
    40    40    41   ar
    41    28     2   am
    42    35    30   ar
    43    41    36   ar
    44    14     3   ar
    45    27    16   ar
    46    12     6   ar
    47    24    19    1
    48     7    42    1
    49     8    43    1
    50    11    44    1
    51    12    45    1
    52    13    46    1
    53    15    47    1
    54    15    48    1
    55    17    49    1
    56    20    50    1
    57    20    51    1
    58    21    52    1
    59    21    53    1
    60    22    54    1
    61    23    55    1
    62    23    56    1
    63    24    57    1
    64    24    58    1
    65    25    59    1
    66    26    60    1
    67    29    61    1
    68    29    62    1
    69    31    63    1
    70    32    64    1
    71    33    65    1
    72    34    66    1
    73    37    67    1
    74    38    68    1
    75    39    69    1
    76    41    70    1
