
     RDKit          3D

 70 76  0  0  0  0  0  0  0  0999 V2000
   -2.8685   -0.0702   -0.3479 O   0  0  0  0  0  0  0  0  0  0  0  0
   -1.6319    0.2554   -0.2703 C   0  0  0  0  0  0  0  0  0  0  0  0
   -1.3881    1.6777   -0.5459 C   0  0  0  0  0  0  0  0  0  0  0  0
   -2.2851    2.6298   -0.5502 O   0  0  0  0  0  0  0  0  0  0  0  0
   -1.7741    3.7978   -0.8281 C   0  0  0  0  0  0  0  0  0  0  0  0
   -2.4508    5.1039   -0.9279 C   0  0  0  0  0  0  0  0  0  0  0  0
   -3.8037    5.2425   -0.7029 C   0  0  0  0  0  0  0  0  0  0  0  0
   -4.4529    6.4438   -0.8144 C   0  0  0  0  0  0  0  0  0  0  0  0
   -3.6986    7.5630   -1.1708 C   0  0  0  0  0  0  0  0  0  0  0  0
   -4.4428    9.1428   -1.3417 Cl  0  0  0  0  0  0  0  0  0  0  0  0
   -2.3629    7.4400   -1.3944 C   0  0  0  0  0  0  0  0  0  0  0  0
   -1.7078    6.2183   -1.2807 C   0  0  0  0  0  0  0  0  0  0  0  0
   -0.4046    3.5761   -1.0219 C   0  0  0  0  0  0  0  0  0  0  0  0
   -0.1667    2.2243   -0.8411 C   0  0  0  0  0  0  0  0  0  0  0  0
    1.1886    1.7092   -0.9928 C   0  0  0  0  0  0  0  0  0  0  0  0
    1.4714    0.4133   -0.4270 C   0  0  0  0  0  0  0  0  0  0  0  0
    2.8653    0.2748   -0.3054 C   0  0  0  0  0  0  0  0  0  0  0  0
    3.4847   -0.8319    0.1924 C   0  0  0  0  0  0  0  0  0  0  0  0
    4.8936   -0.9882    0.3504 N   0  0  0  0  0  0  0  0  0  0  0  0
    5.3875   -1.8859    1.3930 C   0  0  0  0  0  0  0  0  0  0  0  0
    6.3532   -1.0439    2.2380 C   0  0  0  0  0  0  0  0  0  0  0  0
    7.4517   -0.7140    1.3778 N   0  0  0  0  0  0  0  0  0  0  0  0
    7.0677    0.1862    0.3083 C   0  0  0  0  0  0  0  0  0  0  0  0
    5.8772   -0.3249   -0.4632 C   0  0  0  0  0  0  0  0  0  0  0  0
    2.6888   -1.8710    0.5938 C   0  0  0  0  0  0  0  0  0  0  0  0
    1.3095   -1.7697    0.4893 C   0  0  0  0  0  0  0  0  0  0  0  0
    0.7098   -0.6594   -0.0048 C   0  0  0  0  0  0  0  0  0  0  0  0
   -0.7219   -0.7784    0.0589 N   0  0  0  0  0  0  0  0  0  0  0  0
   -1.2677   -1.9887    0.5705 C   0  0  0  0  0  0  0  0  0  0  0  0
   -1.7117   -3.0243   -0.3709 C   0  0  0  0  0  0  0  0  0  0  0  0
   -0.8871   -3.4827   -1.3572 C   0  0  0  0  0  0  0  0  0  0  0  0
   -1.3479   -4.3742   -2.3028 C   0  0  0  0  0  0  0  0  0  0  0  0
   -2.6426   -4.8290   -2.2856 C   0  0  0  0  0  0  0  0  0  0  0  0
   -3.4960   -4.3870   -1.3042 C   0  0  0  0  0  0  0  0  0  0  0  0
   -3.0287   -3.5006   -0.3677 C   0  0  0  0  0  0  0  0  0  0  0  0
   -3.9734   -3.1408    0.7215 C   0  0  0  0  0  0  0  0  0  0  0  0
   -3.5573   -3.3421    2.0319 C   0  0  0  0  0  0  0  0  0  0  0  0
   -4.4433   -3.0118    3.0317 C   0  0  0  0  0  0  0  0  0  0  0  0
   -5.6735   -2.5084    2.7033 C   0  0  0  0  0  0  0  0  0  0  0  0
   -6.0491   -2.3234    1.4232 N   0  0  0  0  0  0  0  0  0  0  0  0
   -5.2204   -2.6302    0.4119 C   0  0  0  0  0  0  0  0  0  0  0  0
   -4.3647    4.3612   -0.4264 H   0  0  0  0  0  0  0  0  0  0  0  0
   -5.5108    6.5505   -0.6329 H   0  0  0  0  0  0  0  0  0  0  0  0
   -1.7718    8.3189   -1.6678 H   0  0  0  0  0  0  0  0  0  0  0  0
   -0.6448    6.1514   -1.4682 H   0  0  0  0  0  0  0  0  0  0  0  0
    0.3026    4.3514   -1.2656 H   0  0  0  0  0  0  0  0  0  0  0  0
    1.9506    2.4434   -0.5852 H   0  0  0  0  0  0  0  0  0  0  0  0
    1.4130    1.6786   -2.0841 H   0  0  0  0  0  0  0  0  0  0  0  0
    3.5217    1.0993   -0.6241 H   0  0  0  0  0  0  0  0  0  0  0  0
    5.9698   -2.6727    0.8939 H   0  0  0  0  0  0  0  0  0  0  0  0
    4.5777   -2.2712    2.0509 H   0  0  0  0  0  0  0  0  0  0  0  0
    5.7863   -0.1345    2.5793 H   0  0  0  0  0  0  0  0  0  0  0  0
    6.6935   -1.6601    3.0701 H   0  0  0  0  0  0  0  0  0  0  0  0
    8.1814   -0.2072    1.9495 H   0  0  0  0  0  0  0  0  0  0  0  0
    7.9198    0.2283   -0.4025 H   0  0  0  0  0  0  0  0  0  0  0  0
    6.8459    1.2050    0.6380 H   0  0  0  0  0  0  0  0  0  0  0  0
    5.4474    0.4984   -1.0766 H   0  0  0  0  0  0  0  0  0  0  0  0
    6.2599   -1.1093   -1.1740 H   0  0  0  0  0  0  0  0  0  0  0  0
    3.1178   -2.7819    0.9742 H   0  0  0  0  0  0  0  0  0  0  0  0
    0.7656   -2.6149    0.8045 H   0  0  0  0  0  0  0  0  0  0  0  0
   -0.8483   -2.3497    1.5354 H   0  0  0  0  0  0  0  0  0  0  0  0
   -2.2948   -1.6246    1.0098 H   0  0  0  0  0  0  0  0  0  0  0  0
    0.1349   -3.1888   -1.4693 H   0  0  0  0  0  0  0  0  0  0  0  0
   -0.6774   -4.7448   -3.1033 H   0  0  0  0  0  0  0  0  0  0  0  0
   -2.9323   -5.5387   -3.0699 H   0  0  0  0  0  0  0  0  0  0  0  0
   -4.5369   -4.7565   -1.2889 H   0  0  0  0  0  0  0  0  0  0  0  0
   -2.5793   -3.7522    2.2565 H   0  0  0  0  0  0  0  0  0  0  0  0
   -4.1519   -3.1567    4.0616 H   0  0  0  0  0  0  0  0  0  0  0  0
   -6.3592   -2.2556    3.4822 H   0  0  0  0  0  0  0  0  0  0  0  0
   -5.5051   -2.4852   -0.6429 H   0  0  0  0  0  0  0  0  0  0  0  0
  1  2  2  0
  2  3  1  0
  3  4  1  0
  4  5  1  0
  5  6  1  0
  6  7  2  0
  7  8  1  0
  8  9  2  0
  9 10  1  0
  9 11  1  0
 11 12  2  0
  5 13  2  0
 13 14  1  0
 14 15  1  0
 15 16  1  0
 16 17  2  0
 17 18  1  0
 18 19  1  0
 19 20  1  0
 20 21  1  0
 21 22  1  0
 22 23  1  0
 23 24  1  0
 18 25  2  0
 25 26  1  0
 26 27  2  0
 27 28  1  0
 28 29  1  0
 29 30  1  0
 30 31  2  0
 31 32  1  0
 32 33  2  0
 33 34  1  0
 34 35  2  0
 35 36  1  0
 36 37  2  0
 37 38  1  0
 38 39  2  0
 39 40  1  0
 40 41  2  0
 28  2  1  0
 35 30  1  0
 41 36  1  0
 14  3  2  0
 27 16  1  0
 12  6  1  0
 24 19  1  0
  7 42  1  0
  8 43  1  0
 11 44  1  0
 12 45  1  0
 13 46  1  0
 15 47  1  0
 15 48  1  0
 17 49  1  0
 20 50  1  0
 20 51  1  0
 21 52  1  0
 21 53  1  0
 22 54  1  0
 23 55  1  0
 23 56  1  0
 24 57  1  0
 24 58  1  0
 25 59  1  0
 26 60  1  0
 29 61  1  0
 29 62  1  0
 31 63  1  0
 32 64  1  0
 33 65  1  0
 34 66  1  0
 37 67  1  0
 38 68  1  0
 39 69  1  0
 41 70  1  0
M  END
$$$$
