
     RDKit          3D

 60 63  0  0  0  0  0  0  0  0999 V2000
    1.7432   -3.5937   -0.0370 C   0  0  0  0  0  0  0  0  0  0  0  0
    1.1682   -2.2007   -0.2493 C   0  0  0  0  0  0  0  0  0  0  0  0
    1.6713   -1.5868   -1.5213 C   0  0  0  0  0  0  0  0  0  0  0  0
   -0.3115   -2.2487   -0.3148 C   0  0  0  0  0  0  0  0  0  0  0  0
   -1.0163   -3.2354   -0.6455 O   0  0  0  0  0  0  0  0  0  0  0  0
   -0.7720   -0.9352    0.0777 N   0  0  0  0  0  0  0  0  0  0  0  0
   -2.0902   -0.4515   -0.0859 C   0  0  1  0  0  0  0  0  0  0  0  0
   -2.7844   -0.0804    1.1953 C   0  0  0  0  0  0  0  0  0  0  0  0
   -2.5444    1.2867    1.7046 C   0  0  0  0  0  0  0  0  0  0  0  0
   -1.7595    2.2137    0.8616 C   0  0  0  0  0  0  0  0  0  0  0  0
   -1.6919    1.9319   -0.5916 C   0  0  0  0  0  0  0  0  0  0  0  0
   -2.2940    0.6479   -1.0611 C   0  0  0  0  0  0  0  0  0  0  0  0
   -3.7474    0.8576   -1.4025 C   0  0  0  0  0  0  0  0  0  0  0  0
   -4.7007    0.6381   -0.2937 C   0  0  1  0  0  0  0  0  0  0  0  0
   -5.9780    0.0535   -0.8251 C   0  0  0  0  0  0  0  0  0  0  0  0
   -5.9268   -1.1912   -1.5037 N   0  0  0  0  0  0  0  0  0  0  0  0
   -7.0958    0.6041   -0.7042 O   0  0  0  0  0  0  0  0  0  0  0  0
   -4.2766   -0.1722    0.8632 C   0  0  0  0  0  0  0  0  0  0  0  0
    0.3301   -0.2361    0.6928 C   0  0  0  0  0  0  0  0  0  0  0  0
    1.3942   -1.3193    0.9398 C   0  0  0  0  0  0  0  0  0  0  0  0
    2.7696   -0.7657    1.0652 C   0  0  0  0  0  0  0  0  0  0  0  0
    3.1306    0.0259   -0.0495 O   0  0  0  0  0  0  0  0  0  0  0  0
    4.3635    0.6445   -0.1565 C   0  0  0  0  0  0  0  0  0  0  0  0
    4.6334    1.3960   -1.2734 C   0  0  0  0  0  0  0  0  0  0  0  0
    5.8849    2.0086   -1.3551 C   0  0  0  0  0  0  0  0  0  0  0  0
    6.7860    1.8374   -0.3275 C   0  0  0  0  0  0  0  0  0  0  0  0
    8.0915    2.4615   -0.3890 C   0  0  0  0  0  0  0  0  0  0  0  0
    9.1366    2.9749   -0.4547 N   0  0  0  0  0  0  0  0  0  0  0  0
    6.4659    1.0612    0.7931 C   0  0  0  0  0  0  0  0  0  0  0  0
    5.2525    0.4872    0.8368 N   0  0  0  0  0  0  0  0  0  0  0  0
    0.9500   -4.3427   -0.2363 H   0  0  0  0  0  0  0  0  0  0  0  0
    2.5771   -3.7397   -0.7321 H   0  0  0  0  0  0  0  0  0  0  0  0
    2.0204   -3.6782    1.0265 H   0  0  0  0  0  0  0  0  0  0  0  0
    2.7858   -1.6770   -1.6197 H   0  0  0  0  0  0  0  0  0  0  0  0
    1.1541   -2.0370   -2.3986 H   0  0  0  0  0  0  0  0  0  0  0  0
    1.4420   -0.5075   -1.5710 H   0  0  0  0  0  0  0  0  0  0  0  0
   -2.6864   -1.3237   -0.5437 H   0  0  0  0  0  0  0  0  0  0  0  0
   -2.5782   -0.8834    1.9339 H   0  0  0  0  0  0  0  0  0  0  0  0
   -1.9731    1.1659    2.6783 H   0  0  0  0  0  0  0  0  0  0  0  0
   -3.5009    1.7848    2.0620 H   0  0  0  0  0  0  0  0  0  0  0  0
   -2.2288    3.2420    0.9746 H   0  0  0  0  0  0  0  0  0  0  0  0
   -0.7166    2.3941    1.2559 H   0  0  0  0  0  0  0  0  0  0  0  0
   -2.2574    2.7390   -1.1906 H   0  0  0  0  0  0  0  0  0  0  0  0
   -0.6420    2.0992   -0.9819 H   0  0  0  0  0  0  0  0  0  0  0  0
   -1.7312    0.3591   -1.9998 H   0  0  0  0  0  0  0  0  0  0  0  0
   -3.9908    0.1585   -2.2302 H   0  0  0  0  0  0  0  0  0  0  0  0
   -3.8503    1.8783   -1.8270 H   0  0  0  0  0  0  0  0  0  0  0  0
   -5.0037    1.6544    0.1018 H   0  0  0  0  0  0  0  0  0  0  0  0
   -5.3287   -1.9469   -1.1238 H   0  0  0  0  0  0  0  0  0  0  0  0
   -6.4907   -1.3154   -2.3652 H   0  0  0  0  0  0  0  0  0  0  0  0
   -4.8332    0.1001    1.8051 H   0  0  0  0  0  0  0  0  0  0  0  0
   -4.4717   -1.2555    0.7114 H   0  0  0  0  0  0  0  0  0  0  0  0
    0.0578    0.1748    1.6940 H   0  0  0  0  0  0  0  0  0  0  0  0
    0.7262    0.5088    0.0117 H   0  0  0  0  0  0  0  0  0  0  0  0
    1.0632   -1.8569    1.8594 H   0  0  0  0  0  0  0  0  0  0  0  0
    2.9427   -0.2798    2.0247 H   0  0  0  0  0  0  0  0  0  0  0  0
    3.4665   -1.6508    1.0252 H   0  0  0  0  0  0  0  0  0  0  0  0
    3.9165    1.5330   -2.0928 H   0  0  0  0  0  0  0  0  0  0  0  0
    6.1300    2.6167   -2.2372 H   0  0  0  0  0  0  0  0  0  0  0  0
    7.2194    0.9719    1.5562 H   0  0  0  0  0  0  0  0  0  0  0  0
  1  2  1  0
  2  3  1  0
  2  4  1  0
  4  5  2  0
  4  6  1  0
  6  7  1  0
  7  8  1  0
  8  9  1  0
  9 10  1  0
 10 11  1  0
 11 12  1  0
 12 13  1  0
 13 14  1  0
 14 15  1  0
 15 16  1  0
 15 17  2  0
 14 18  1  0
  6 19  1  0
 19 20  1  0
 20 21  1  0
 21 22  1  0
 22 23  1  0
 23 24  2  0
 24 25  1  0
 25 26  2  0
 26 27  1  0
 27 28  3  0
 26 29  1  0
 29 30  2  0
 20  2  1  0
 30 23  1  0
 12  7  1  0
 18  8  1  0
  1 31  1  0
  1 32  1  0
  1 33  1  0
  3 34  1  0
  3 35  1  0
  3 36  1  0
  7 37  1  6
  8 38  1  0
  9 39  1  0
  9 40  1  0
 10 41  1  0
 10 42  1  0
 11 43  1  0
 11 44  1  0
 12 45  1  0
 13 46  1  0
 13 47  1  0
 14 48  1  1
 16 49  1  0
 16 50  1  0
 18 51  1  0
 18 52  1  0
 19 53  1  0
 19 54  1  0
 20 55  1  0
 21 56  1  0
 21 57  1  0
 24 58  1  0
 25 59  1  0
 29 60  1  0
M  END
$$$$
