@<TRIPOS>MOLECULE
*****
 60 63 0 0 0
SMALL
GASTEIGER

@<TRIPOS>ATOM
      1 C           1.7432   -3.5937   -0.0370 C.3     1  UNL1       -0.0511
      2 C           1.1682   -2.2007   -0.2493 C.3     1  UNL1        0.0489
      3 C           1.6713   -1.5868   -1.5213 C.3     1  UNL1       -0.0511
      4 C          -0.3115   -2.2487   -0.3148 C.2     1  UNL1        0.2219
      5 O          -1.0163   -3.2354   -0.6455 O.2     1  UNL1       -0.2750
      6 N          -0.7720   -0.9352    0.0777 N.am    1  UNL1       -0.2970
      7 C          -2.0902   -0.4515   -0.0859 C.3     1  UNL1        0.0317
      8 C          -2.7844   -0.0804    1.1953 C.3     1  UNL1       -0.0214
      9 C          -2.5444    1.2867    1.7046 C.3     1  UNL1       -0.0485
     10 C          -1.7595    2.2137    0.8616 C.3     1  UNL1       -0.0524
     11 C          -1.6919    1.9319   -0.5916 C.3     1  UNL1       -0.0485
     12 C          -2.2940    0.6479   -1.0611 C.3     1  UNL1       -0.0214
     13 C          -3.7474    0.8576   -1.4025 C.3     1  UNL1       -0.0374
     14 C          -4.7007    0.6381   -0.2937 C.3     1  UNL1        0.0360
     15 C          -5.9780    0.0535   -0.8251 C.2     1  UNL1        0.2136
     16 N          -5.9268   -1.1912   -1.5037 N.am    1  UNL1       -0.3291
     17 O          -7.0958    0.6041   -0.7042 O.2     1  UNL1       -0.2757
     18 C          -4.2766   -0.1722    0.8632 C.3     1  UNL1       -0.0374
     19 C           0.3301   -0.2361    0.6928 C.3     1  UNL1        0.0219
     20 C           1.3942   -1.3193    0.9398 C.3     1  UNL1        0.0224
     21 C           2.7696   -0.7657    1.0652 C.3     1  UNL1        0.0964
     22 O           3.1306    0.0259   -0.0495 O.3     1  UNL1       -0.4760
     23 C           4.3635    0.6445   -0.1565 C.ar    1  UNL1        0.2147
     24 C           4.6334    1.3960   -1.2734 C.ar    1  UNL1        0.0012
     25 C           5.8849    2.0086   -1.3551 C.ar    1  UNL1       -0.0379
     26 C           6.7860    1.8374   -0.3275 C.ar    1  UNL1        0.0701
     27 C           8.0915    2.4615   -0.3890 C.1     1  UNL1        0.1007
     28 N           9.1366    2.9749   -0.4547 N.1     1  UNL1       -0.1908
     29 C           6.4659    1.0612    0.7931 C.ar    1  UNL1        0.0487
     30 N           5.2525    0.4872    0.8368 N.ar    1  UNL1       -0.2200
     31 H           0.9500   -4.3427   -0.2363 H       1  UNL1        0.0240
     32 H           2.5771   -3.7397   -0.7321 H       1  UNL1        0.0240
     33 H           2.0204   -3.6782    1.0265 H       1  UNL1        0.0240
     34 H           2.7858   -1.6770   -1.6197 H       1  UNL1        0.0240
     35 H           1.1541   -2.0370   -2.3986 H       1  UNL1        0.0240
     36 H           1.4420   -0.5075   -1.5710 H       1  UNL1        0.0240
     37 H          -2.6864   -1.3237   -0.5437 H       1  UNL1        0.0506
     38 H          -2.5782   -0.8834    1.9339 H       1  UNL1        0.0319
     39 H          -1.9731    1.1659    2.6783 H       1  UNL1        0.0269
     40 H          -3.5009    1.7848    2.0620 H       1  UNL1        0.0269
     41 H          -2.2288    3.2420    0.9746 H       1  UNL1        0.0265
     42 H          -0.7166    2.3941    1.2559 H       1  UNL1        0.0265
     43 H          -2.2574    2.7390   -1.1906 H       1  UNL1        0.0269
     44 H          -0.6420    2.0992   -0.9819 H       1  UNL1        0.0269
     45 H          -1.7312    0.3591   -1.9998 H       1  UNL1        0.0319
     46 H          -3.9908    0.1585   -2.2302 H       1  UNL1        0.0276
     47 H          -3.8503    1.8783   -1.8270 H       1  UNL1        0.0276
     48 H          -5.0037    1.6544    0.1018 H       1  UNL1        0.0394
     49 H          -5.3287   -1.9469   -1.1238 H       1  UNL1        0.1449
     50 H          -6.4907   -1.3154   -2.3652 H       1  UNL1        0.1449
     51 H          -4.8332    0.1001    1.8051 H       1  UNL1        0.0276
     52 H          -4.4717   -1.2555    0.7114 H       1  UNL1        0.0276
     53 H           0.0578    0.1748    1.6940 H       1  UNL1        0.0469
     54 H           0.7262    0.5088    0.0117 H       1  UNL1        0.0469
     55 H           1.0632   -1.8569    1.8594 H       1  UNL1        0.0359
     56 H           2.9427   -0.2798    2.0247 H       1  UNL1        0.0700
     57 H           3.4665   -1.6508    1.0252 H       1  UNL1        0.0700
     58 H           3.9165    1.5330   -2.0928 H       1  UNL1        0.0671
     59 H           6.1300    2.6167   -2.2372 H       1  UNL1        0.0632
     60 H           7.2194    0.9719    1.5562 H       1  UNL1        0.0844
@<TRIPOS>BOND
     1     1     2    1
     2     2     3    1
     3     2     4    1
     4     4     5    2
     5     4     6   am
     6     6     7    1
     7     7     8    1
     8     8     9    1
     9     9    10    1
    10    10    11    1
    11    11    12    1
    12    12    13    1
    13    13    14    1
    14    14    15    1
    15    15    16   am
    16    15    17    2
    17    14    18    1
    18     6    19    1
    19    19    20    1
    20    20    21    1
    21    21    22    1
    22    22    23    1
    23    23    24   ar
    24    24    25   ar
    25    25    26   ar
    26    26    27    1
    27    27    28    3
    28    26    29   ar
    29    29    30   ar
    30    20     2    1
    31    30    23   ar
    32    12     7    1
    33    18     8    1
    34     1    31    1
    35     1    32    1
    36     1    33    1
    37     3    34    1
    38     3    35    1
    39     3    36    1
    40     7    37    1
    41     8    38    1
    42     9    39    1
    43     9    40    1
    44    10    41    1
    45    10    42    1
    46    11    43    1
    47    11    44    1
    48    12    45    1
    49    13    46    1
    50    13    47    1
    51    14    48    1
    52    16    49    1
    53    16    50    1
    54    18    51    1
    55    18    52    1
    56    19    53    1
    57    19    54    1
    58    20    55    1
    59    21    56    1
    60    21    57    1
    61    24    58    1
    62    25    59    1
    63    29    60    1
