@<TRIPOS>MOLECULE
*****
 87 95 0 0 0
SMALL
GASTEIGER

@<TRIPOS>ATOM
      1 C          -4.2026    0.1709   -3.0715 C.3     1  UNL1        0.0000
      2 C          -2.8482    0.4289   -2.5546 C.3     1  UNL1        0.0000
      3 C          -2.7636    1.8322   -1.9511 C.3     1  UNL1        0.0000
      4 C          -2.7640    2.9234   -2.9201 C.2     1  UNL1        0.0000
      5 C          -3.5723    3.9776   -3.1921 C.2     1  UNL1        0.0000
      6 C          -1.4066    1.7623   -1.2627 C.2     1  UNL1        0.0000
      7 C          -0.7711    2.9220   -0.9599 C.2     1  UNL1        0.0000
      8 C           0.5396    2.5997   -0.3460 C.ar    1  UNL1        0.0000
      9 C           1.4786    3.5862   -0.4453 C.ar    1  UNL1        0.0000
     10 C           1.3977    5.0469   -0.6394 C.3     1  UNL1        0.0000
     11 C           2.6408    2.8543   -0.3169 C.ar    1  UNL1        0.0000
     12 C           3.9799    3.5497   -0.3679 C.3     1  UNL1        0.0000
     13 C           4.2406    4.2659    0.9137 C.3     1  UNL1        0.0000
     14 C           5.5391    4.9494    0.9005 C.2     1  UNL1        0.0000
     15 O           6.6005    5.7110    1.2916 O.3     1  UNL1        0.0000
     16 O           5.6125    4.4123   -0.2338 O.2     1  UNL1        0.0000
     17 C           2.2772    1.5080   -0.1483 C.ar    1  UNL1        0.0000
     18 C           3.3615    0.5417    0.0731 C.2     1  UNL1        0.0000
     19 C           2.9044   -0.7239    0.3620 C.ar    1  UNL1        0.0000
     20 N           1.6403   -1.0319    0.4434 N.ar    1  UNL1        0.0000
     21 C           1.7417   -2.0960    1.2531 C.ar    1  UNL1        0.0000
     22 C           0.7902   -2.7904    1.8883 C.2     1  UNL1        0.0000
     23 C          -0.6160   -2.3690    1.6577 C.ar    1  UNL1        0.0000
     24 C          -1.6781   -3.0442    2.1680 C.ar    1  UNL1        0.0000
     25 C          -1.6474   -4.2327    3.0978 C.3     1  UNL1        0.0000
     26 C          -2.7536   -2.4325    1.5994 C.ar    1  UNL1        0.0000
     27 C          -4.1169   -2.7024    1.9980 C.2     1  UNL1        0.0000
     28 C          -4.4933   -3.3445    3.1603 C.2     1  UNL1        0.0000
     29 C          -2.2327   -1.4737    0.8074 C.ar    1  UNL1        0.0000
     30 N          -0.8922   -1.3806    0.8273 N.ar    1  UNL1        0.0000
     31 FE          0.2127   -0.2936   -0.1298 Fe      1  UNL1        0.0000
     32 N           0.9420    1.3774   -0.1589 N.ar    1  UNL1        0.0000
     33 N          -1.2320    0.3257   -0.9616 N.pl3   1  UNL1        0.0000
     34 C          -2.5247   -0.2168   -1.2241 C.2     1  UNL1        0.0000
     35 C          -3.1526   -0.9044   -0.2203 C.2     1  UNL1        0.0000
     36 C          -4.6167   -1.1301   -0.3806 C.ar    1  UNL1        0.0000
     37 C          -5.1268   -2.4070   -0.6549 C.ar    1  UNL1        0.0000
     38 C          -6.4422   -2.7463   -0.7902 C.ar    1  UNL1        0.0000
     39 C          -7.3834   -1.7199   -0.6418 C.ar    1  UNL1        0.0000
     40 C          -6.9216   -0.4568   -0.3722 C.ar    1  UNL1        0.0000
     41 C          -5.5862   -0.1600   -0.2441 C.ar    1  UNL1        0.0000
     42 C           3.0227   -2.4189    1.6097 C.ar    1  UNL1        0.0000
     43 C           3.6207   -3.5184    2.4522 C.3     1  UNL1        0.0000
     44 C           3.8136   -1.4829    0.9959 C.ar    1  UNL1        0.0000
     45 C           5.2971   -1.5305    1.0675 C.3     1  UNL1        0.0000
     46 C           5.9540   -2.2511   -0.0608 C.3     1  UNL1        0.0000
     47 C           5.7438   -1.7141   -1.4074 C.2     1  UNL1        0.0000
     48 O           6.4257   -2.5660   -2.2982 O.3     1  UNL1        0.0000
     49 O           5.2110   -0.8130   -2.1008 O.2     1  UNL1        0.0000
     50 H          -4.9133    0.9743   -2.7666 H       1  UNL1        0.0000
     51 H          -4.1296    0.3263   -4.1966 H       1  UNL1        0.0000
     52 H          -4.5432   -0.8482   -2.9643 H       1  UNL1        0.0000
     53 H          -2.0680    0.3096   -3.2927 H       1  UNL1        0.0000
     54 H          -3.5531    1.9109   -1.1903 H       1  UNL1        0.0000
     55 H          -1.8814    2.8467   -3.5798 H       1  UNL1        0.0000
     56 H          -3.3757    4.6954   -3.9871 H       1  UNL1        0.0000
     57 H          -4.4019    3.9027   -2.4585 H       1  UNL1        0.0000
     58 H          -1.2335    3.8780   -1.1664 H       1  UNL1        0.0000
     59 H           2.2727    5.3221   -1.2575 H       1  UNL1        0.0000
     60 H           1.2919    5.6183    0.2747 H       1  UNL1        0.0000
     61 H           0.5193    5.2459   -1.3212 H       1  UNL1        0.0000
     62 H           3.9977    4.2163   -1.2444 H       1  UNL1        0.0000
     63 H           4.7370    2.7685   -0.5423 H       1  UNL1        0.0000
     64 H           4.2402    3.5374    1.7684 H       1  UNL1        0.0000
     65 H           3.4094    4.9819    1.1394 H       1  UNL1        0.0000
     66 H           7.4323    5.7552    0.7367 H       1  UNL1        0.0000
     67 H           4.4366    0.8232   -0.0094 H       1  UNL1        0.0000
     68 H           0.9762   -3.6495    2.5703 H       1  UNL1        0.0000
     69 H          -2.3807   -4.9653    2.7659 H       1  UNL1        0.0000
     70 H          -0.6430   -4.7583    2.9244 H       1  UNL1        0.0000
     71 H          -1.6101   -3.9145    4.1221 H       1  UNL1        0.0000
     72 H          -5.1501   -2.7978    2.1031 H       1  UNL1        0.0000
     73 H          -3.9644   -3.7577    3.9812 H       1  UNL1        0.0000
     74 H          -3.8958   -3.7340    3.9335 H       1  UNL1        0.0000
     75 H          -4.4706   -3.2650   -0.7901 H       1  UNL1        0.0000
     76 H          -6.8139   -3.7307   -0.9987 H       1  UNL1        0.0000
     77 H          -8.4513   -1.8185   -0.7194 H       1  UNL1        0.0000
     78 H          -7.6244    0.3752   -0.2497 H       1  UNL1        0.0000
     79 H          -5.2825    0.8317   -0.0262 H       1  UNL1        0.0000
     80 H           4.1247   -3.0842    3.3400 H       1  UNL1        0.0000
     81 H           4.3156   -4.0777    1.7861 H       1  UNL1        0.0000
     82 H           2.8607   -4.2193    2.7753 H       1  UNL1        0.0000
     83 H           5.6936   -0.4793    1.1440 H       1  UNL1        0.0000
     84 H           5.5946   -2.0002    2.0212 H       1  UNL1        0.0000
     85 H           5.6930   -3.3409   -0.0205 H       1  UNL1        0.0000
     86 H           7.0549   -2.2512    0.1672 H       1  UNL1        0.0000
     87 H           6.4929   -2.4214   -3.2831 H       1  UNL1        0.0000
@<TRIPOS>UNITY_ATOM_ATTR
31 1
charge 2
@<TRIPOS>BOND
     1     1     2    1
     2     2     3    1
     3     3     4    1
     4     4     5    2
     5     3     6    1
     6     6     7    2
     7     7     8    1
     8     8     9   ar
     9     9    10    1
    10     9    11   ar
    11    11    12    1
    12    12    13    1
    13    13    14    1
    14    14    15    1
    15    14    16    2
    16    11    17   ar
    17    17    18    1
    18    18    19    2
    19    19    20   ar
    20    20    21   ar
    21    21    22    2
    22    22    23    1
    23    23    24   ar
    24    24    25    1
    25    24    26   ar
    26    26    27    1
    27    27    28    2
    28    26    29   ar
    29    29    30   ar
    30    30    31    1
    31    31    32    1
    32    31    33    1
    33    33    34    1
    34    34    35    2
    35    35    36    1
    36    36    37   ar
    37    37    38   ar
    38    38    39   ar
    39    39    40   ar
    40    40    41   ar
    41    21    42   ar
    42    42    43    1
    43    42    44   ar
    44    44    45    1
    45    45    46    1
    46    46    47    1
    47    47    48    1
    48    47    49    2
    49    34     2    1
    50    41    36   ar
    51    33     6    1
    52    32     8   ar
    53    32    17   ar
    54    44    19   ar
    55    31    20    1
    56    30    23   ar
    57    35    29    1
    58     1    50    1
    59     1    51    1
    60     1    52    1
    61     2    53    1
    62     3    54    1
    63     4    55    1
    64     5    56    1
    65     5    57    1
    66     7    58    1
    67    10    59    1
    68    10    60    1
    69    10    61    1
    70    12    62    1
    71    12    63    1
    72    13    64    1
    73    13    65    1
    74    15    66    1
    75    18    67    1
    76    22    68    1
    77    25    69    1
    78    25    70    1
    79    25    71    1
    80    27    72    1
    81    28    73    1
    82    28    74    1
    83    37    75    1
    84    38    76    1
    85    39    77    1
    86    40    78    1
    87    41    79    1
    88    43    80    1
    89    43    81    1
    90    43    82    1
    91    45    83    1
    92    45    84    1
    93    46    85    1
    94    46    86    1
    95    48    87    1
