@<TRIPOS>MOLECULE
*****
 66 69 0 0 0
SMALL
GASTEIGER

@<TRIPOS>ATOM
      1 C           0.0267    1.6213    2.3275 C.3     1  UNL1       -0.0421
      2 C           0.3633    1.6680    0.8540 C.3     1  UNL1        0.0515
      3 C           1.7843    1.2218    0.6980 C.ar    1  UNL1       -0.0271
      4 C           2.6561    1.2127    1.7752 C.ar    1  UNL1       -0.0562
      5 C           3.9662    0.8067    1.6618 C.ar    1  UNL1       -0.0537
      6 C           4.4369    0.3947    0.4455 C.ar    1  UNL1       -0.0165
      7 C           5.8088   -0.0334    0.3164 C.ar    1  UNL1       -0.0015
      8 C           6.4255   -0.6464    1.3813 C.ar    1  UNL1       -0.0475
      9 C           7.7553   -1.0399    1.1983 C.ar    1  UNL1        0.0036
     10 C           8.3840   -0.8067   -0.0078 C.ar    1  UNL1        0.2511
     11 O           9.5796   -1.1559   -0.1845 O.2     1  UNL1       -0.2677
     12 N           7.7642   -0.2058   -1.0376 N.ar    1  UNL1       -0.3177
     13 C           8.4097    0.0479   -2.3147 C.3     1  UNL1        0.0147
     14 C           6.4669    0.1827   -0.8714 C.ar    1  UNL1        0.0153
     15 C           3.5873    0.3971   -0.6338 C.ar    1  UNL1       -0.0537
     16 C           2.2752    0.8032   -0.5222 C.ar    1  UNL1       -0.0562
     17 N          -0.5305    0.7321    0.1544 N.am    1  UNL1       -0.2605
     18 C          -0.5998   -0.6430    0.5333 C.3     1  UNL1        0.0224
     19 C          -1.9198   -1.3051    0.3810 C.3     1  UNL1        0.0076
     20 C          -2.9541   -0.4920   -0.3850 C.3     1  UNL1        0.1440
     21 C          -3.6861    0.3639    0.5689 C.3     1  UNL1        0.0199
     22 C          -4.7124    1.2955    0.0453 C.3     1  UNL1        0.0645
     23 C          -5.8724    0.7045   -0.6895 C.3     1  UNL1       -0.0362
     24 C          -5.3114    2.1371    1.1969 C.3     1  UNL1       -0.0362
     25 O          -4.1629    2.2649   -0.8153 O.3     1  UNL1       -0.3890
     26 C          -3.8401   -1.4902   -1.0243 C.ar    1  UNL1       -0.0040
     27 C          -4.8087   -2.1332   -0.2974 C.ar    1  UNL1       -0.0548
     28 C          -5.6458   -3.0840   -0.8838 C.ar    1  UNL1       -0.0614
     29 C          -5.5273   -3.4093   -2.2145 C.ar    1  UNL1       -0.0617
     30 C          -4.5514   -2.7631   -2.9519 C.ar    1  UNL1       -0.0614
     31 C          -3.7236   -1.8242   -2.3760 C.ar    1  UNL1       -0.0548
     32 O          -2.3590    0.3445   -1.3642 O.3     1  UNL1       -0.4387
     33 C          -1.3436    1.1850   -0.9208 C.2     1  UNL1        0.4042
     34 O          -1.1076    2.3151   -1.4159 O.2     1  UNL1       -0.2262
     35 H           0.4834    2.4872    2.8607 H       1  UNL1        0.0251
     36 H           0.4326    0.7044    2.8007 H       1  UNL1        0.0251
     37 H          -1.0657    1.6016    2.5188 H       1  UNL1        0.0251
     38 H           0.2953    2.6725    0.4392 H       1  UNL1        0.0549
     39 H           2.2839    1.5442    2.7588 H       1  UNL1        0.0621
     40 H           4.6305    0.8055    2.5089 H       1  UNL1        0.0624
     41 H           5.9426   -0.8339    2.3302 H       1  UNL1        0.0626
     42 H           8.2447   -1.5223    2.0324 H       1  UNL1        0.0672
     43 H           9.4020   -0.4112   -2.3326 H       1  UNL1        0.0457
     44 H           7.7896   -0.3444   -3.1563 H       1  UNL1        0.0457
     45 H           8.4772    1.1599   -2.4880 H       1  UNL1        0.0457
     46 H           5.9705    0.6675   -1.7058 H       1  UNL1        0.0816
     47 H           3.9708    0.0676   -1.5980 H       1  UNL1        0.0624
     48 H           1.6089    0.8021   -1.3814 H       1  UNL1        0.0621
     49 H          -0.1644   -0.8000    1.5646 H       1  UNL1        0.0467
     50 H           0.1305   -1.1934   -0.1307 H       1  UNL1        0.0467
     51 H          -1.8218   -2.3071   -0.0758 H       1  UNL1        0.0322
     52 H          -2.3581   -1.4794    1.4027 H       1  UNL1        0.0322
     53 H          -4.1808   -0.2208    1.3976 H       1  UNL1        0.0335
     54 H          -2.9456    1.0100    1.1565 H       1  UNL1        0.0335
     55 H          -6.5400    0.0657   -0.0708 H       1  UNL1        0.0257
     56 H          -5.5557    0.2470   -1.6422 H       1  UNL1        0.0257
     57 H          -6.4945    1.6007   -1.0343 H       1  UNL1        0.0257
     58 H          -4.6390    3.0054    1.4202 H       1  UNL1        0.0257
     59 H          -5.3888    1.5074    2.0975 H       1  UNL1        0.0257
     60 H          -6.3136    2.5083    0.9166 H       1  UNL1        0.0257
     61 H          -4.2500    2.0036   -1.7654 H       1  UNL1        0.2101
     62 H          -4.9858   -1.9520    0.7615 H       1  UNL1        0.0622
     63 H          -6.4018   -3.5800   -0.2986 H       1  UNL1        0.0618
     64 H          -6.1651   -4.1472   -2.7025 H       1  UNL1        0.0618
     65 H          -4.4682   -3.0260   -3.9914 H       1  UNL1        0.0618
     66 H          -2.9572   -1.3095   -2.9331 H       1  UNL1        0.0622
@<TRIPOS>BOND
     1     1     2    1
     2     2     3    1
     3     3     4   ar
     4     4     5   ar
     5     5     6   ar
     6     6     7    1
     7     7     8   ar
     8     8     9   ar
     9     9    10   ar
    10    10    11    2
    11    10    12   ar
    12    12    13    1
    13    12    14   ar
    14     6    15   ar
    15    15    16   ar
    16     2    17    1
    17    17    18    1
    18    18    19    1
    19    19    20    1
    20    20    21    1
    21    21    22    1
    22    22    23    1
    23    22    24    1
    24    22    25    1
    25    20    26    1
    26    26    27   ar
    27    27    28   ar
    28    28    29   ar
    29    29    30   ar
    30    30    31   ar
    31    20    32    1
    32    32    33    1
    33    33    34    2
    34    16     3   ar
    35    33    17   am
    36    14     7   ar
    37    31    26   ar
    38     1    35    1
    39     1    36    1
    40     1    37    1
    41     2    38    1
    42     4    39    1
    43     5    40    1
    44     8    41    1
    45     9    42    1
    46    13    43    1
    47    13    44    1
    48    13    45    1
    49    14    46    1
    50    15    47    1
    51    16    48    1
    52    18    49    1
    53    18    50    1
    54    19    51    1
    55    19    52    1
    56    21    53    1
    57    21    54    1
    58    23    55    1
    59    23    56    1
    60    23    57    1
    61    24    58    1
    62    24    59    1
    63    24    60    1
    64    25    61    1
    65    27    62    1
    66    28    63    1
    67    29    64    1
    68    30    65    1
    69    31    66    1
