
     RDKit          3D

 66 69  0  0  0  0  0  0  0  0999 V2000
    0.0267    1.6213    2.3275 C   0  0  0  0  0  0  0  0  0  0  0  0
    0.3633    1.6680    0.8540 C   0  0  1  0  0  0  0  0  0  0  0  0
    1.7843    1.2218    0.6980 C   0  0  0  0  0  0  0  0  0  0  0  0
    2.6561    1.2127    1.7752 C   0  0  0  0  0  0  0  0  0  0  0  0
    3.9662    0.8067    1.6618 C   0  0  0  0  0  0  0  0  0  0  0  0
    4.4369    0.3947    0.4455 C   0  0  0  0  0  0  0  0  0  0  0  0
    5.8088   -0.0334    0.3164 C   0  0  0  0  0  0  0  0  0  0  0  0
    6.4255   -0.6464    1.3813 C   0  0  0  0  0  0  0  0  0  0  0  0
    7.7553   -1.0399    1.1983 C   0  0  0  0  0  0  0  0  0  0  0  0
    8.3840   -0.8067   -0.0078 C   0  0  0  0  0  0  0  0  0  0  0  0
    9.5796   -1.1559   -0.1845 O   0  0  0  0  0  0  0  0  0  0  0  0
    7.7642   -0.2058   -1.0376 N   0  0  0  0  0  0  0  0  0  0  0  0
    8.4097    0.0479   -2.3147 C   0  0  0  0  0  0  0  0  0  0  0  0
    6.4669    0.1827   -0.8714 C   0  0  0  0  0  0  0  0  0  0  0  0
    3.5873    0.3971   -0.6338 C   0  0  0  0  0  0  0  0  0  0  0  0
    2.2752    0.8032   -0.5222 C   0  0  0  0  0  0  0  0  0  0  0  0
   -0.5305    0.7321    0.1544 N   0  0  0  0  0  0  0  0  0  0  0  0
   -0.5998   -0.6430    0.5333 C   0  0  0  0  0  0  0  0  0  0  0  0
   -1.9198   -1.3051    0.3810 C   0  0  0  0  0  0  0  0  0  0  0  0
   -2.9541   -0.4920   -0.3850 C   0  0  2  0  0  0  0  0  0  0  0  0
   -3.6861    0.3639    0.5689 C   0  0  0  0  0  0  0  0  0  0  0  0
   -4.7124    1.2955    0.0453 C   0  0  0  0  0  0  0  0  0  0  0  0
   -5.8724    0.7045   -0.6895 C   0  0  0  0  0  0  0  0  0  0  0  0
   -5.3114    2.1371    1.1969 C   0  0  0  0  0  0  0  0  0  0  0  0
   -4.1629    2.2649   -0.8153 O   0  0  0  0  0  0  0  0  0  0  0  0
   -3.8401   -1.4902   -1.0243 C   0  0  0  0  0  0  0  0  0  0  0  0
   -4.8087   -2.1332   -0.2974 C   0  0  0  0  0  0  0  0  0  0  0  0
   -5.6458   -3.0840   -0.8838 C   0  0  0  0  0  0  0  0  0  0  0  0
   -5.5273   -3.4093   -2.2145 C   0  0  0  0  0  0  0  0  0  0  0  0
   -4.5514   -2.7631   -2.9519 C   0  0  0  0  0  0  0  0  0  0  0  0
   -3.7236   -1.8242   -2.3760 C   0  0  0  0  0  0  0  0  0  0  0  0
   -2.3590    0.3445   -1.3642 O   0  0  0  0  0  0  0  0  0  0  0  0
   -1.3436    1.1850   -0.9208 C   0  0  0  0  0  0  0  0  0  0  0  0
   -1.1076    2.3151   -1.4159 O   0  0  0  0  0  0  0  0  0  0  0  0
    0.4834    2.4872    2.8607 H   0  0  0  0  0  0  0  0  0  0  0  0
    0.4326    0.7044    2.8007 H   0  0  0  0  0  0  0  0  0  0  0  0
   -1.0657    1.6016    2.5188 H   0  0  0  0  0  0  0  0  0  0  0  0
    0.2953    2.6725    0.4392 H   0  0  0  0  0  0  0  0  0  0  0  0
    2.2839    1.5442    2.7588 H   0  0  0  0  0  0  0  0  0  0  0  0
    4.6305    0.8055    2.5089 H   0  0  0  0  0  0  0  0  0  0  0  0
    5.9426   -0.8339    2.3302 H   0  0  0  0  0  0  0  0  0  0  0  0
    8.2447   -1.5223    2.0324 H   0  0  0  0  0  0  0  0  0  0  0  0
    9.4020   -0.4112   -2.3326 H   0  0  0  0  0  0  0  0  0  0  0  0
    7.7896   -0.3444   -3.1563 H   0  0  0  0  0  0  0  0  0  0  0  0
    8.4772    1.1599   -2.4880 H   0  0  0  0  0  0  0  0  0  0  0  0
    5.9705    0.6675   -1.7058 H   0  0  0  0  0  0  0  0  0  0  0  0
    3.9708    0.0676   -1.5980 H   0  0  0  0  0  0  0  0  0  0  0  0
    1.6089    0.8021   -1.3814 H   0  0  0  0  0  0  0  0  0  0  0  0
   -0.1644   -0.8000    1.5646 H   0  0  0  0  0  0  0  0  0  0  0  0
    0.1305   -1.1934   -0.1307 H   0  0  0  0  0  0  0  0  0  0  0  0
   -1.8218   -2.3071   -0.0758 H   0  0  0  0  0  0  0  0  0  0  0  0
   -2.3581   -1.4794    1.4027 H   0  0  0  0  0  0  0  0  0  0  0  0
   -4.1808   -0.2208    1.3976 H   0  0  0  0  0  0  0  0  0  0  0  0
   -2.9456    1.0100    1.1565 H   0  0  0  0  0  0  0  0  0  0  0  0
   -6.5400    0.0657   -0.0708 H   0  0  0  0  0  0  0  0  0  0  0  0
   -5.5557    0.2470   -1.6422 H   0  0  0  0  0  0  0  0  0  0  0  0
   -6.4945    1.6007   -1.0343 H   0  0  0  0  0  0  0  0  0  0  0  0
   -4.6390    3.0054    1.4202 H   0  0  0  0  0  0  0  0  0  0  0  0
   -5.3888    1.5074    2.0975 H   0  0  0  0  0  0  0  0  0  0  0  0
   -6.3136    2.5083    0.9166 H   0  0  0  0  0  0  0  0  0  0  0  0
   -4.2500    2.0036   -1.7654 H   0  0  0  0  0  0  0  0  0  0  0  0
   -4.9858   -1.9520    0.7615 H   0  0  0  0  0  0  0  0  0  0  0  0
   -6.4018   -3.5800   -0.2986 H   0  0  0  0  0  0  0  0  0  0  0  0
   -6.1651   -4.1472   -2.7025 H   0  0  0  0  0  0  0  0  0  0  0  0
   -4.4682   -3.0260   -3.9914 H   0  0  0  0  0  0  0  0  0  0  0  0
   -2.9572   -1.3095   -2.9331 H   0  0  0  0  0  0  0  0  0  0  0  0
  1  2  1  0
  2  3  1  0
  3  4  2  0
  4  5  1  0
  5  6  2  0
  6  7  1  0
  7  8  1  0
  8  9  2  0
  9 10  1  0
 10 11  2  0
 10 12  1  0
 12 13  1  0
 12 14  1  0
  6 15  1  0
 15 16  2  0
  2 17  1  0
 17 18  1  0
 18 19  1  0
 19 20  1  0
 20 21  1  1
 21 22  1  0
 22 23  1  0
 22 24  1  0
 22 25  1  0
 20 26  1  0
 26 27  2  0
 27 28  1  0
 28 29  2  0
 29 30  1  0
 30 31  2  0
 20 32  1  0
 32 33  1  0
 33 34  2  0
 16  3  1  0
 33 17  1  0
 14  7  2  0
 31 26  1  0
  1 35  1  0
  1 36  1  0
  1 37  1  0
  2 38  1  6
  4 39  1  0
  5 40  1  0
  8 41  1  0
  9 42  1  0
 13 43  1  0
 13 44  1  0
 13 45  1  0
 14 46  1  0
 15 47  1  0
 16 48  1  0
 18 49  1  0
 18 50  1  0
 19 51  1  0
 19 52  1  0
 21 53  1  0
 21 54  1  0
 23 55  1  0
 23 56  1  0
 23 57  1  0
 24 58  1  0
 24 59  1  0
 24 60  1  0
 25 61  1  0
 27 62  1  0
 28 63  1  0
 29 64  1  0
 30 65  1  0
 31 66  1  0
M  END
$$$$
