@<TRIPOS>MOLECULE
*****
 43 44 0 0 0
SMALL
GASTEIGER

@<TRIPOS>ATOM
      1 C          -3.4466   -1.5212    1.1330 C.3     1  UNL1       -0.0641
      2 C          -2.2970   -2.2734    0.5605 C.3     1  UNL1       -0.0431
      3 C          -1.7467   -1.7445   -0.7165 C.3     1  UNL1       -0.0014
      4 N          -1.1631   -0.4864   -0.7196 N.3     1  UNL1       -0.3020
      5 C          -2.0130    0.5946   -0.5391 C.3     1  UNL1       -0.0014
      6 C          -1.4270    1.9862   -0.7269 C.3     1  UNL1       -0.0431
      7 C          -2.6235    2.9149   -0.4305 C.3     1  UNL1       -0.0641
      8 C          -0.1423   -0.2569   -1.6992 C.3     1  UNL1        0.0029
      9 C           1.1083   -1.0633   -1.4745 C.3     1  UNL1       -0.0145
     10 C           1.7916   -0.8359   -0.2044 C.ar    1  UNL1       -0.0408
     11 C           2.5890    0.2783    0.0692 C.ar    1  UNL1       -0.0142
     12 C           2.9570    1.4537   -0.7569 C.3     1  UNL1        0.0514
     13 C           3.8399    2.2177    0.1978 C.2     1  UNL1        0.2216
     14 O           4.3307    3.2965   -0.2197 O.2     1  UNL1       -0.2751
     15 N           3.9508    1.5377    1.4412 N.am    1  UNL1       -0.2850
     16 C           3.1654    0.3444    1.3242 C.ar    1  UNL1        0.0373
     17 C           2.9881   -0.6325    2.3075 C.ar    1  UNL1       -0.0402
     18 C           2.1982   -1.7123    2.0033 C.ar    1  UNL1       -0.0597
     19 C           1.6053   -1.8175    0.7640 C.ar    1  UNL1       -0.0581
     20 H          -4.2365   -2.2876    1.4776 H       1  UNL1        0.0230
     21 H          -4.0182   -0.8968    0.4336 H       1  UNL1        0.0230
     22 H          -3.1678   -0.9086    2.0137 H       1  UNL1        0.0230
     23 H          -2.5947   -3.3723    0.4472 H       1  UNL1        0.0275
     24 H          -1.4446   -2.3521    1.3213 H       1  UNL1        0.0275
     25 H          -2.5725   -1.7241   -1.5183 H       1  UNL1        0.0426
     26 H          -1.0849   -2.5654   -1.1251 H       1  UNL1        0.0426
     27 H          -2.9645    0.5538   -1.1071 H       1  UNL1        0.0426
     28 H          -2.3092    0.6183    0.5607 H       1  UNL1        0.0426
     29 H          -1.1508    2.2404   -1.7455 H       1  UNL1        0.0275
     30 H          -0.6895    2.1724    0.0582 H       1  UNL1        0.0275
     31 H          -3.4323    2.7542   -1.1637 H       1  UNL1        0.0230
     32 H          -2.9777    2.7611    0.5912 H       1  UNL1        0.0230
     33 H          -2.2440    3.9690   -0.4646 H       1  UNL1        0.0230
     34 H           0.1823    0.7976   -1.6205 H       1  UNL1        0.0430
     35 H          -0.5506   -0.5540   -2.6748 H       1  UNL1        0.0430
     36 H           1.8077   -0.7048   -2.2805 H       1  UNL1        0.0326
     37 H           1.0064   -2.1426   -1.6861 H       1  UNL1        0.0326
     38 H           2.1253    2.0583   -1.1039 H       1  UNL1        0.0408
     39 H           3.6352    1.1241   -1.5956 H       1  UNL1        0.0408
     40 H           4.5124    1.8966    2.2403 H       1  UNL1        0.1548
     41 H           3.4506   -0.5432    3.2643 H       1  UNL1        0.0636
     42 H           2.0519   -2.4747    2.7550 H       1  UNL1        0.0618
     43 H           1.0010   -2.6998    0.6091 H       1  UNL1        0.0620
@<TRIPOS>BOND
     1     1     2    1
     2     2     3    1
     3     3     4    1
     4     4     5    1
     5     5     6    1
     6     6     7    1
     7     4     8    1
     8     8     9    1
     9     9    10    1
    10    10    11   ar
    11    11    12    1
    12    12    13    1
    13    13    14    2
    14    13    15   am
    15    15    16    1
    16    16    17   ar
    17    17    18   ar
    18    18    19   ar
    19    19    10   ar
    20    16    11   ar
    21     1    20    1
    22     1    21    1
    23     1    22    1
    24     2    23    1
    25     2    24    1
    26     3    25    1
    27     3    26    1
    28     5    27    1
    29     5    28    1
    30     6    29    1
    31     6    30    1
    32     7    31    1
    33     7    32    1
    34     7    33    1
    35     8    34    1
    36     8    35    1
    37     9    36    1
    38     9    37    1
    39    12    38    1
    40    12    39    1
    41    15    40    1
    42    17    41    1
    43    18    42    1
    44    19    43    1
