
     RDKit          3D

 43 45  0  0  0  0  0  0  0  0999 V2000
   -2.1263    0.4561    2.3907 C   0  0  0  0  0  0  0  0  0  0  0  0
   -3.2069    0.4055    1.3872 C   0  0  0  0  0  0  0  0  0  0  0  0
   -4.4978    0.3086    1.7374 C   0  0  0  0  0  0  0  0  0  0  0  0
   -5.5394    0.0451    0.8592 C   0  0  0  0  0  0  0  0  0  0  0  0
   -6.8228   -0.5365    1.6040 C   0  0  0  0  0  0  0  0  0  0  0  0
   -7.5667   -0.8778    2.0214 N   0  0  0  0  0  0  0  0  0  0  0  0
   -5.3407   -0.1250   -0.4583 C   0  0  0  0  0  0  0  0  0  0  0  0
   -3.9906   -0.0166   -0.8975 C   0  0  0  0  0  0  0  0  0  0  0  0
   -3.7906   -0.3701   -2.3367 C   0  0  0  0  0  0  0  0  0  0  0  0
   -2.9662    0.2427   -0.0374 C   0  0  0  0  0  0  0  0  0  0  0  0
   -1.7502    0.3827   -0.5151 O   0  0  0  0  0  0  0  0  0  0  0  0
   -0.5167   -0.2551   -0.6811 C   0  0  0  0  0  0  0  0  0  0  0  0
    0.3707    0.5451   -1.3641 N   0  0  0  0  0  0  0  0  0  0  0  0
    1.6775   -0.0077   -1.5960 C   0  0  0  0  0  0  0  0  0  0  0  0
    2.7462    0.7342   -2.1098 N   0  0  0  0  0  0  0  0  0  0  0  0
    3.8392    1.0527   -1.2120 C   0  0  0  0  0  0  0  0  0  0  0  0
    4.5519    2.1608   -1.1781 C   0  0  0  0  0  0  0  0  0  0  0  0
    5.5794    2.5065   -0.2874 C   0  0  0  0  0  0  0  0  0  0  0  0
    5.8848    1.4983    0.7132 C   0  0  0  0  0  0  0  0  0  0  0  0
    6.8611    1.6555    1.6870 C   0  0  0  0  0  0  0  0  0  0  0  0
    7.7426    1.8125    2.5474 N   0  0  0  0  0  0  0  0  0  0  0  0
    5.1361    0.3151    0.6548 C   0  0  0  0  0  0  0  0  0  0  0  0
    4.1568    0.0654   -0.2434 C   0  0  0  0  0  0  0  0  0  0  0  0
    1.6964   -1.1706   -1.0785 N   0  0  0  0  0  0  0  0  0  0  0  0
    1.0220   -2.0359   -0.4364 C   0  0  0  0  0  0  0  0  0  0  0  0
    1.3447   -3.2881    0.1087 N   0  0  0  0  0  0  0  0  0  0  0  0
   -0.3247   -1.4945   -0.1977 C   0  0  0  0  0  0  0  0  0  0  0  0
   -1.5564   -2.5897    0.7004 Br  0  0  0  0  0  0  0  0  0  0  0  0
   -1.1429    0.6014    1.9155 H   0  0  0  0  0  0  0  0  0  0  0  0
   -2.1293   -0.6002    2.8751 H   0  0  0  0  0  0  0  0  0  0  0  0
   -2.3111    1.1798    3.2261 H   0  0  0  0  0  0  0  0  0  0  0  0
   -4.7127    0.4517    2.8297 H   0  0  0  0  0  0  0  0  0  0  0  0
   -6.1278   -0.3500   -1.1806 H   0  0  0  0  0  0  0  0  0  0  0  0
   -4.2234    0.4085   -3.0174 H   0  0  0  0  0  0  0  0  0  0  0  0
   -4.5021   -1.2928   -2.5266 H   0  0  0  0  0  0  0  0  0  0  0  0
   -2.7850   -0.5586   -2.6287 H   0  0  0  0  0  0  0  0  0  0  0  0
    2.8514    1.1097   -3.0757 H   0  0  0  0  0  0  0  0  0  0  0  0
    4.3752    2.9463   -1.9329 H   0  0  0  0  0  0  0  0  0  0  0  0
    6.1408    3.3806   -0.2285 H   0  0  0  0  0  0  0  0  0  0  0  0
    5.4175   -0.3987    1.4678 H   0  0  0  0  0  0  0  0  0  0  0  0
    3.5800   -0.8218   -0.1802 H   0  0  0  0  0  0  0  0  0  0  0  0
    1.4830   -4.1516   -0.4700 H   0  0  0  0  0  0  0  0  0  0  0  0
    1.4730   -3.3235    1.1442 H   0  0  0  0  0  0  0  0  0  0  0  0
  1  2  1  0
  2  3  2  0
  3  4  1  0
  4  5  1  0
  5  6  3  0
  4  7  2  0
  7  8  1  0
  8  9  1  0
  8 10  2  0
 10 11  1  0
 11 12  1  0
 12 13  2  0
 13 14  1  0
 14 15  1  0
 15 16  1  0
 16 17  2  0
 17 18  1  0
 18 19  2  0
 19 20  1  0
 20 21  3  0
 19 22  1  0
 22 23  2  0
 14 24  2  0
 24 25  1  0
 25 26  1  0
 25 27  2  0
 27 28  1  0
 10  2  1  0
 27 12  1  0
 23 16  1  0
  1 29  1  0
  1 30  1  0
  1 31  1  0
  3 32  1  0
  7 33  1  0
  9 34  1  0
  9 35  1  0
  9 36  1  0
 15 37  1  0
 17 38  1  0
 18 39  1  0
 22 40  1  0
 23 41  1  0
 26 42  1  0
 26 43  1  0
M  END
$$$$
