@<TRIPOS>MOLECULE
*****
 43 45 0 0 0
SMALL
GASTEIGER

@<TRIPOS>ATOM
      1 C          -2.1263    0.4561    2.3907 C.3     1  UNL1       -0.0362
      2 C          -3.2069    0.4055    1.3872 C.ar    1  UNL1       -0.0066
      3 C          -4.4978    0.3086    1.7374 C.ar    1  UNL1       -0.0379
      4 C          -5.5394    0.0451    0.8592 C.ar    1  UNL1        0.0525
      5 C          -6.8228   -0.5365    1.6040 C.1     1  UNL1        0.0992
      6 N          -7.5667   -0.8778    2.0214 N.1     1  UNL1       -0.1909
      7 C          -5.3407   -0.1250   -0.4583 C.ar    1  UNL1       -0.0379
      8 C          -3.9906   -0.0166   -0.8975 C.ar    1  UNL1       -0.0066
      9 C          -3.7906   -0.3701   -2.3367 C.3     1  UNL1       -0.0362
     10 C          -2.9662    0.2427   -0.0374 C.ar    1  UNL1        0.1363
     11 O          -1.7502    0.3827   -0.5151 O.3     1  UNL1       -0.4362
     12 C          -0.5167   -0.2551   -0.6811 C.ar    1  UNL1        0.2409
     13 N           0.3707    0.5451   -1.3641 N.ar    1  UNL1       -0.1778
     14 C           1.6775   -0.0077   -1.5960 C.ar    1  UNL1        0.2243
     15 N           2.7462    0.7342   -2.1098 N.pl3   1  UNL1       -0.2835
     16 C           3.8392    1.0527   -1.2120 C.ar    1  UNL1        0.0337
     17 C           4.5519    2.1608   -1.1781 C.ar    1  UNL1       -0.0393
     18 C           5.5794    2.5065   -0.2874 C.ar    1  UNL1       -0.0426
     19 C           5.8848    1.4983    0.7132 C.ar    1  UNL1        0.0519
     20 C           6.8611    1.6555    1.6870 C.1     1  UNL1        0.0992
     21 N           7.7426    1.8125    2.5474 N.1     1  UNL1       -0.1909
     22 C           5.1361    0.3151    0.6548 C.ar    1  UNL1       -0.0426
     23 C           4.1568    0.0654   -0.2434 C.ar    1  UNL1       -0.0393
     24 N           1.6964   -1.1706   -1.0785 N.ar    1  UNL1       -0.1983
     25 C           1.0220   -2.0359   -0.4364 C.ar    1  UNL1        0.1391
     26 N           1.3447   -3.2881    0.1087 N.pl3   1  UNL1       -0.3420
     27 C          -0.3247   -1.4945   -0.1977 C.ar    1  UNL1        0.1192
     28 BR         -1.5564   -2.5897    0.7004 Br      1  UNL1       -0.0412
     29 H          -1.1429    0.6014    1.9155 H       1  UNL1        0.0279
     30 H          -2.1293   -0.6002    2.8751 H       1  UNL1        0.0279
     31 H          -2.3111    1.1798    3.2261 H       1  UNL1        0.0279
     32 H          -4.7127    0.4517    2.8297 H       1  UNL1        0.0634
     33 H          -6.1278   -0.3500   -1.1806 H       1  UNL1        0.0634
     34 H          -4.2234    0.4085   -3.0174 H       1  UNL1        0.0279
     35 H          -4.5021   -1.2928   -2.5266 H       1  UNL1        0.0279
     36 H          -2.7850   -0.5586   -2.6287 H       1  UNL1        0.0279
     37 H           2.8514    1.1097   -3.0757 H       1  UNL1        0.1550
     38 H           4.3752    2.9463   -1.9329 H       1  UNL1        0.0636
     39 H           6.1408    3.3806   -0.2285 H       1  UNL1        0.0631
     40 H           5.4175   -0.3987    1.4678 H       1  UNL1        0.0631
     41 H           3.5800   -0.8218   -0.1802 H       1  UNL1        0.0636
     42 H           1.4830   -4.1516   -0.4700 H       1  UNL1        0.1437
     43 H           1.4730   -3.3235    1.1442 H       1  UNL1        0.1437
@<TRIPOS>BOND
     1     1     2    1
     2     2     3   ar
     3     3     4   ar
     4     4     5    1
     5     5     6    3
     6     4     7   ar
     7     7     8   ar
     8     8     9    1
     9     8    10   ar
    10    10    11    1
    11    11    12    1
    12    12    13   ar
    13    13    14   ar
    14    14    15    1
    15    15    16    1
    16    16    17   ar
    17    17    18   ar
    18    18    19   ar
    19    19    20    1
    20    20    21    3
    21    19    22   ar
    22    22    23   ar
    23    14    24   ar
    24    24    25   ar
    25    25    26    1
    26    25    27   ar
    27    27    28    1
    28    10     2   ar
    29    27    12   ar
    30    23    16   ar
    31     1    29    1
    32     1    30    1
    33     1    31    1
    34     3    32    1
    35     7    33    1
    36     9    34    1
    37     9    35    1
    38     9    36    1
    39    15    37    1
    40    17    38    1
    41    18    39    1
    42    22    40    1
    43    23    41    1
    44    26    42    1
    45    26    43    1
