
     RDKit          3D

 27 28  0  0  0  0  0  0  0  0999 V2000
    3.7184   -2.7393   -0.6963 N   0  0  0  0  0  0  0  0  0  0  0  0
    4.1738   -1.1474   -0.2139 S   0  0  0  0  0  0  0  0  0  0  0  0
    5.5276   -0.8160   -0.7734 O   0  0  0  0  0  0  0  0  0  0  0  0
    4.2610   -1.0335    1.2784 O   0  0  0  0  0  0  0  0  0  0  0  0
    3.0682    0.0586   -0.8730 C   0  0  0  0  0  0  0  0  0  0  0  0
    2.8364    0.7657   -1.7537 N   0  0  0  0  0  0  0  0  0  0  0  0
    1.8364    1.5737   -1.8858 N   0  0  0  0  0  0  0  0  0  0  0  0
    0.9820    1.7360   -1.1348 C   0  0  0  0  0  0  0  0  0  0  0  0
   -0.2353    2.4762   -0.8869 N   0  0  0  0  0  0  0  0  0  0  0  0
   -1.3033    2.4250    0.4547 S   0  0  0  0  0  0  0  0  0  0  0  0
   -2.3915    3.4211    0.3349 O   0  0  0  0  0  0  0  0  0  0  0  0
   -0.5195    2.7703    1.6961 O   0  0  0  0  0  0  0  0  0  0  0  0
   -1.9687    0.8365    0.5858 C   0  0  0  0  0  0  0  0  0  0  0  0
   -1.5881   -0.2371    1.3596 C   0  0  0  0  0  0  0  0  0  0  0  0
   -2.2671   -1.4343    1.2976 C   0  0  0  0  0  0  0  0  0  0  0  0
   -3.3522   -1.6367    0.4742 C   0  0  0  0  0  0  0  0  0  0  0  0
   -3.7469   -0.5694   -0.3082 C   0  0  0  0  0  0  0  0  0  0  0  0
   -3.0741    0.6198   -0.2482 C   0  0  0  0  0  0  0  0  0  0  0  0
    1.5589    0.5092    0.1856 S   0  0  0  0  0  0  0  0  0  0  0  0
    4.5313   -3.3845   -0.7641 H   0  0  0  0  0  0  0  0  0  0  0  0
    2.9245   -3.1107   -0.1677 H   0  0  0  0  0  0  0  0  0  0  0  0
   -0.4047    3.1067   -1.6985 H   0  0  0  0  0  0  0  0  0  0  0  0
   -0.7365   -0.0134    1.9868 H   0  0  0  0  0  0  0  0  0  0  0  0
   -1.8954   -2.2212    1.9421 H   0  0  0  0  0  0  0  0  0  0  0  0
   -3.8404   -2.5869    0.4675 H   0  0  0  0  0  0  0  0  0  0  0  0
   -4.5993   -0.7491   -0.9460 H   0  0  0  0  0  0  0  0  0  0  0  0
   -3.4955    1.3808   -0.9234 H   0  0  0  0  0  0  0  0  0  0  0  0
  1  2  1  0
  2  3  2  0
  2  4  2  0
  2  5  1  0
  5  6  2  0
  6  7  1  0
  7  8  2  0
  8  9  1  0
  9 10  1  0
 10 11  2  0
 10 12  2  0
 10 13  1  0
 13 14  2  0
 14 15  1  0
 15 16  2  0
 16 17  1  0
 17 18  2  0
  8 19  1  0
 19  5  1  0
 18 13  1  0
  1 20  1  0
  1 21  1  0
  9 22  1  0
 14 23  1  0
 15 24  1  0
 16 25  1  0
 17 26  1  0
 18 27  1  0
M  END
$$$$
