@<TRIPOS>MOLECULE
*****
 41 43 0 0 0
SMALL
GASTEIGER

@<TRIPOS>ATOM
      1 C          -4.5938   -0.8184    1.1226 C.3     1  UNL1       -0.0638
      2 C          -5.7394   -0.4619    0.2440 C.3     1  UNL1       -0.0360
      3 C          -5.4490    0.4955   -0.8569 C.3     1  UNL1        0.0706
      4 S          -4.2557   -0.0076   -2.0258 S.O2    1  UNL1       -0.0030
      5 O          -4.1526    1.0846   -3.0727 O.2     1  UNL1       -0.1694
      6 O          -4.7464   -1.2301   -2.7434 O.2     1  UNL1       -0.1694
      7 C          -2.6825   -0.3263   -1.3927 C.ar    1  UNL1        0.0902
      8 C          -2.3565   -1.6156   -1.0258 C.ar    1  UNL1       -0.0347
      9 C          -1.1313   -1.9667   -0.5129 C.ar    1  UNL1       -0.0324
     10 C          -0.1963   -0.9685   -0.3657 C.ar    1  UNL1        0.0896
     11 N           1.0622   -0.9633    0.0906 N.ar    1  UNL1       -0.2277
     12 C           1.5824    0.2685    0.0422 C.ar    1  UNL1        0.1394
     13 C           2.9478    0.6105    0.4724 C.ar    1  UNL1        0.0207
     14 C           3.4082    1.9108    0.3890 C.ar    1  UNL1       -0.0509
     15 C           4.6871    2.2233    0.7934 C.ar    1  UNL1       -0.0576
     16 C           5.5196    1.2428    1.2849 C.ar    1  UNL1       -0.0196
     17 C           5.0716   -0.0536    1.3720 C.ar    1  UNL1        0.1307
     18 O           5.9311   -1.0522    1.8767 O.3     1  UNL1       -0.4057
     19 C           6.7341   -1.7140    0.9139 C.3     1  UNL1        0.5752
     20 F           7.5274   -0.7538    0.2996 F       1  UNL1       -0.1328
     21 F           5.9749   -2.3066   -0.0546 F       1  UNL1       -0.1328
     22 F           7.5097   -2.6315    1.6033 F       1  UNL1       -0.1328
     23 C           3.7997   -0.3469    0.9664 C.ar    1  UNL1       -0.0090
     24 N           0.6414    1.0702   -0.4542 N.ar    1  UNL1       -0.3378
     25 C          -0.4833    0.3446   -0.7230 C.ar    1  UNL1        0.0683
     26 C          -1.7244    0.6456   -1.2320 C.ar    1  UNL1       -0.0114
     27 H          -4.9276   -0.6998    2.1956 H       1  UNL1        0.0230
     28 H          -3.7554   -0.1278    1.0153 H       1  UNL1        0.0230
     29 H          -4.3222   -1.9017    1.0623 H       1  UNL1        0.0230
     30 H          -6.2240   -1.3828   -0.1466 H       1  UNL1        0.0278
     31 H          -6.5328    0.0278    0.8789 H       1  UNL1        0.0278
     32 H          -5.2337    1.5219   -0.4558 H       1  UNL1        0.0504
     33 H          -6.4160    0.6334   -1.4211 H       1  UNL1        0.0504
     34 H          -3.1141   -2.4018   -1.1495 H       1  UNL1        0.0637
     35 H          -0.9682   -2.9991   -0.2547 H       1  UNL1        0.0640
     36 H           2.7532    2.6776    0.0032 H       1  UNL1        0.0625
     37 H           5.0801    3.2437    0.7395 H       1  UNL1        0.0619
     38 H           6.5303    1.4797    1.6064 H       1  UNL1        0.0654
     39 H           3.4557   -1.3851    1.0415 H       1  UNL1        0.0661
     40 H           0.7423    2.0934   -0.6148 H       1  UNL1        0.1674
     41 H          -1.9540    1.6636   -1.5116 H       1  UNL1        0.0658
@<TRIPOS>BOND
     1     1     2    1
     2     2     3    1
     3     3     4    1
     4     4     5    2
     5     4     6    2
     6     4     7    1
     7     7     8   ar
     8     8     9   ar
     9     9    10   ar
    10    10    11   ar
    11    11    12   ar
    12    12    13    1
    13    13    14   ar
    14    14    15   ar
    15    15    16   ar
    16    16    17   ar
    17    17    18    1
    18    18    19    1
    19    19    20    1
    20    19    21    1
    21    19    22    1
    22    17    23   ar
    23    12    24   ar
    24    24    25   ar
    25    25    26   ar
    26    26     7   ar
    27    25    10   ar
    28    23    13   ar
    29     1    27    1
    30     1    28    1
    31     1    29    1
    32     2    30    1
    33     2    31    1
    34     3    32    1
    35     3    33    1
    36     8    34    1
    37     9    35    1
    38    14    36    1
    39    15    37    1
    40    16    38    1
    41    23    39    1
    42    24    40    1
    43    26    41    1
