
     RDKit          3D

 53 56  0  0  0  0  0  0  0  0999 V2000
   -1.4227    0.7657   -0.3379 C   0  0  2  0  0  0  0  0  0  0  0  0
   -2.2744    1.9832   -0.3038 C   0  0  0  0  0  0  0  0  0  0  0  0
   -3.5654    1.4068   -0.8459 C   0  0  0  0  0  0  0  0  0  0  0  0
   -3.5055   -0.0980   -0.6267 C   0  0  1  0  0  0  0  0  0  0  0  0
   -4.6418   -0.5690    0.0187 O   0  0  0  0  0  0  0  0  0  0  0  0
   -3.4673   -0.7293   -1.9479 C   0  0  0  0  0  0  0  0  0  0  0  0
   -3.4525   -1.2374   -3.0413 C   0  0  0  0  0  0  0  0  0  0  0  0
   -2.2432   -0.3535    0.1709 C   0  0  2  0  0  0  0  0  0  0  0  0
   -2.4928   -0.4247    1.6223 C   0  0  0  0  0  0  0  0  0  0  0  0
   -3.1818    0.6679    2.3198 C   0  0  0  0  0  0  0  0  0  0  0  0
   -1.5354   -1.6344   -0.2103 C   0  0  0  0  0  0  0  0  0  0  0  0
   -0.0884   -1.5953   -0.3901 C   0  0  0  0  0  0  0  0  0  0  0  0
    0.6685   -0.3381   -0.2488 C   0  0  2  0  0  0  0  0  0  0  0  0
    2.0085   -0.5137    0.4540 C   0  0  1  0  0  0  0  0  0  0  0  0
    2.8976   -1.3263   -0.4874 C   0  0  0  0  0  0  0  0  0  0  0  0
    4.2663   -1.5422    0.1134 C   0  0  0  0  0  0  0  0  0  0  0  0
    4.8759   -0.2449    0.5061 C   0  0  0  0  0  0  0  0  0  0  0  0
    4.0085    0.9095    0.7104 C   0  0  0  0  0  0  0  0  0  0  0  0
    2.6810    0.7689    0.6834 C   0  0  0  0  0  0  0  0  0  0  0  0
    1.9148    1.9930    0.9003 C   0  0  0  0  0  0  0  0  0  0  0  0
    0.6832    2.0834    0.0035 C   0  0  0  0  0  0  0  0  0  0  0  0
   -0.1174    0.8180    0.3389 C   0  0  1  0  0  0  0  0  0  0  0  0
    6.1571   -0.1882    0.6523 N   0  0  0  0  0  0  0  0  0  0  0  0
    6.8455   -1.3617    0.4247 O   0  0  0  0  0  0  0  0  0  0  0  0
   -1.2516    0.5684   -1.4267 H   0  0  0  0  0  0  0  0  0  0  0  0
   -2.3620    2.5066    0.6484 H   0  0  0  0  0  0  0  0  0  0  0  0
   -1.8085    2.7229   -1.0064 H   0  0  0  0  0  0  0  0  0  0  0  0
   -3.5653    1.6624   -1.9384 H   0  0  0  0  0  0  0  0  0  0  0  0
   -4.4781    1.8813   -0.4553 H   0  0  0  0  0  0  0  0  0  0  0  0
   -4.6941   -1.5537   -0.1524 H   0  0  0  0  0  0  0  0  0  0  0  0
   -3.4397   -1.6799   -4.0184 H   0  0  0  0  0  0  0  0  0  0  0  0
   -3.1147   -1.3621    1.7594 H   0  0  0  0  0  0  0  0  0  0  0  0
   -1.5687   -0.6606    2.1587 H   0  0  0  0  0  0  0  0  0  0  0  0
   -4.0043    1.1810    1.7900 H   0  0  0  0  0  0  0  0  0  0  0  0
   -3.7040    0.2429    3.2305 H   0  0  0  0  0  0  0  0  0  0  0  0
   -2.4575    1.3775    2.7760 H   0  0  0  0  0  0  0  0  0  0  0  0
   -2.0727   -1.9802   -1.1426 H   0  0  0  0  0  0  0  0  0  0  0  0
   -1.8151   -2.4587    0.5034 H   0  0  0  0  0  0  0  0  0  0  0  0
    0.1649   -2.0669   -1.3896 H   0  0  0  0  0  0  0  0  0  0  0  0
    0.4212   -2.3306    0.3065 H   0  0  0  0  0  0  0  0  0  0  0  0
    0.9561    0.0385   -1.2604 H   0  0  0  0  0  0  0  0  0  0  0  0
    1.8810   -1.1397    1.3436 H   0  0  0  0  0  0  0  0  0  0  0  0
    2.4400   -2.2718   -0.7756 H   0  0  0  0  0  0  0  0  0  0  0  0
    3.0148   -0.7124   -1.4040 H   0  0  0  0  0  0  0  0  0  0  0  0
    4.9156   -1.9540   -0.6863 H   0  0  0  0  0  0  0  0  0  0  0  0
    4.2580   -2.2829    0.9215 H   0  0  0  0  0  0  0  0  0  0  0  0
    4.5335    1.8440    0.8776 H   0  0  0  0  0  0  0  0  0  0  0  0
    2.4951    2.9187    0.8611 H   0  0  0  0  0  0  0  0  0  0  0  0
    1.5023    1.9276    1.9471 H   0  0  0  0  0  0  0  0  0  0  0  0
    0.0755    2.9482    0.3310 H   0  0  0  0  0  0  0  0  0  0  0  0
    0.9507    2.1393   -1.0640 H   0  0  0  0  0  0  0  0  0  0  0  0
   -0.1199    0.7497    1.4247 H   0  0  0  0  0  0  0  0  0  0  0  0
    7.8287   -1.4951    0.6868 H   0  0  0  0  0  0  0  0  0  0  0  0
  1  2  1  0
  2  3  1  0
  3  4  1  0
  4  5  1  0
  4  6  1  6
  6  7  3  0
  4  8  1  0
  8  9  1  1
  9 10  1  0
  8 11  1  0
 11 12  1  0
 12 13  1  0
 13 14  1  0
 14 15  1  0
 15 16  1  0
 16 17  1  0
 17 18  1  0
 18 19  2  0
 19 20  1  0
 20 21  1  0
 21 22  1  0
 17 23  2  3
 23 24  1  0
  8  1  1  0
 22 13  1  0
 22  1  1  0
 19 14  1  0
  1 25  1  6
  2 26  1  0
  2 27  1  0
  3 28  1  0
  3 29  1  0
  5 30  1  0
  7 31  1  0
  9 32  1  0
  9 33  1  0
 10 34  1  0
 10 35  1  0
 10 36  1  0
 11 37  1  0
 11 38  1  0
 12 39  1  0
 12 40  1  0
 13 41  1  6
 14 42  1  1
 15 43  1  0
 15 44  1  0
 16 45  1  0
 16 46  1  0
 18 47  1  0
 20 48  1  0
 20 49  1  0
 21 50  1  0
 21 51  1  0
 22 52  1  1
 24 53  1  0
M  END
$$$$
