@<TRIPOS>MOLECULE
*****
 42 45 0 0 0
SMALL
GASTEIGER

@<TRIPOS>ATOM
      1 C          -4.6331   -4.5298    0.2683 C.3     1  UNL1        0.0126
      2 C          -3.8174   -3.3104    0.0915 C.2     1  UNL1        0.2162
      3 O          -4.3267   -2.2681   -0.4324 O.2     1  UNL1       -0.2757
      4 N          -2.4527   -3.3682    0.5335 N.am    1  UNL1       -0.2562
      5 C          -1.6840   -2.1834    0.3542 C.ar    1  UNL1        0.2004
      6 N          -2.1157   -1.0323   -0.1847 N.ar    1  UNL1       -0.2121
      7 C          -1.1294   -0.1187   -0.2015 C.ar    1  UNL1        0.1165
      8 C          -0.0230   -0.6974    0.3443 C.ar    1  UNL1        0.0768
      9 N          -0.3908   -1.9676    0.6780 N.ar    1  UNL1       -0.3252
     10 C           1.3360   -0.2562    0.6083 C.ar    1  UNL1        0.0027
     11 C           1.7561    0.7504    1.4415 C.ar    1  UNL1       -0.0504
     12 C           3.0922    1.0598    1.5934 C.ar    1  UNL1       -0.0336
     13 C           4.0061    0.3004    0.8583 C.ar    1  UNL1        0.0892
     14 N           5.2997    0.6032    1.0078 N.ar    1  UNL1       -0.2519
     15 C           6.2858   -0.0636    0.3461 C.ar    1  UNL1        0.0464
     16 C           5.9035   -1.0853   -0.5035 C.ar    1  UNL1        0.0464
     17 N           4.5985   -1.3746   -0.6402 N.ar    1  UNL1       -0.2519
     18 C           3.6241   -0.7171    0.0125 C.ar    1  UNL1        0.0898
     19 C           2.2905   -0.9795   -0.0991 C.ar    1  UNL1       -0.0251
     20 C          -1.1241    1.2393   -0.6776 C.ar    1  UNL1        0.0918
     21 N          -1.9884    2.0462   -0.0122 N.ar    1  UNL1       -0.2474
     22 C          -2.1368    3.3581   -0.3050 C.ar    1  UNL1        0.0740
     23 C          -3.0926    4.2162    0.4420 C.3     1  UNL1       -0.0195
     24 C          -1.3904    3.9322   -1.3203 C.ar    1  UNL1        0.1443
     25 F          -1.5035    5.2418   -1.6508 F       1  UNL1       -0.2036
     26 C          -0.5156    3.1004   -1.9885 C.ar    1  UNL1       -0.0226
     27 C          -0.3531    1.7644   -1.7030 C.ar    1  UNL1       -0.0314
     28 H          -5.6966   -4.2517    0.1870 H       1  UNL1        0.0323
     29 H          -4.3124   -5.2350   -0.5444 H       1  UNL1        0.0323
     30 H          -4.3467   -4.9785    1.2339 H       1  UNL1        0.0323
     31 H          -1.9751   -4.2037    0.9749 H       1  UNL1        0.1576
     32 H           0.1722   -2.7370    1.1231 H       1  UNL1        0.1686
     33 H           0.9630    1.2696    1.9589 H       1  UNL1        0.0625
     34 H           3.4015    1.8418    2.2422 H       1  UNL1        0.0640
     35 H           7.3442    0.1455    0.4351 H       1  UNL1        0.0845
     36 H           6.6565   -1.6395   -1.0478 H       1  UNL1        0.0845
     37 H           2.0514   -1.8019   -0.7892 H       1  UNL1        0.0646
     38 H          -2.6123    4.8453    1.2000 H       1  UNL1        0.0293
     39 H          -3.6746    4.8849   -0.2559 H       1  UNL1        0.0293
     40 H          -3.8707    3.6002    0.9395 H       1  UNL1        0.0293
     41 H           0.0792    3.5168   -2.7835 H       1  UNL1        0.0647
     42 H           0.3052    1.0832   -2.1867 H       1  UNL1        0.0640
@<TRIPOS>BOND
     1     1     2    1
     2     2     3    2
     3     2     4   am
     4     4     5    1
     5     5     6   ar
     6     6     7   ar
     7     7     8   ar
     8     8     9   ar
     9     8    10    1
    10    10    11   ar
    11    11    12   ar
    12    12    13   ar
    13    13    14   ar
    14    14    15   ar
    15    15    16   ar
    16    16    17   ar
    17    17    18   ar
    18    18    19   ar
    19     7    20    1
    20    20    21   ar
    21    21    22   ar
    22    22    23    1
    23    22    24   ar
    24    24    25    1
    25    24    26   ar
    26    26    27   ar
    27     9     5   ar
    28    19    10   ar
    29    27    20   ar
    30    18    13   ar
    31     1    28    1
    32     1    29    1
    33     1    30    1
    34     4    31    1
    35     9    32    1
    36    11    33    1
    37    12    34    1
    38    15    35    1
    39    16    36    1
    40    19    37    1
    41    23    38    1
    42    23    39    1
    43    23    40    1
    44    26    41    1
    45    27    42    1
