@<TRIPOS>MOLECULE
*****
 63 67 0 0 0
SMALL
GASTEIGER

@<TRIPOS>ATOM
      1 C          -6.3033    3.2514    0.7333 C.3     1  UNL1        0.0124
      2 C          -6.4848    1.8115    0.3118 C.2     1  UNL1        0.2133
      3 O          -7.6108    1.5510   -0.1787 O.2     1  UNL1       -0.2759
      4 N          -5.4375    0.8819    0.4812 N.am    1  UNL1       -0.2865
      5 C          -4.1909    1.3093    1.0572 C.3     1  UNL1        0.0319
      6 C          -2.9668    0.8664    0.3283 C.3     1  UNL1        0.0357
      7 N          -3.1597   -0.3509   -0.4515 N.am    1  UNL1       -0.2681
      8 C          -2.0110   -1.1116   -0.7923 C.ar    1  UNL1        0.0370
      9 C          -2.0396   -2.3439   -1.4078 C.ar    1  UNL1       -0.0402
     10 C          -0.9113   -3.0651   -1.7514 C.ar    1  UNL1       -0.0594
     11 C           0.3139   -2.5513   -1.4767 C.ar    1  UNL1       -0.0525
     12 C           0.3984   -1.3268   -0.8639 C.ar    1  UNL1        0.0022
     13 C           1.7162   -0.7827   -0.5792 C.ar    1  UNL1        0.0741
     14 C           2.7858   -1.4021   -0.0564 C.ar    1  UNL1       -0.0243
     15 C           3.8943   -0.5095    0.0527 C.ar    1  UNL1        0.0308
     16 C           5.1561   -0.9424    0.6578 C.ar    1  UNL1        0.0714
     17 C           5.1761   -2.1125    1.4583 C.ar    1  UNL1       -0.0162
     18 C           6.4522   -2.5520    1.5483 C.ar    1  UNL1        0.0500
     19 N           7.1977   -1.7242    0.8544 N.ar    1  UNL1       -0.1788
     20 N           6.4300   -0.7327    0.3002 N.ar    1  UNL1       -0.2550
     21 C           7.1167    0.2375   -0.4827 C.3     1  UNL1        0.1371
     22 C           8.0806    1.0840    0.3035 C.3     1  UNL1        0.4089
     23 F           9.0774    0.1728    0.8197 F       1  UNL1       -0.1687
     24 F           8.7562    1.9373   -0.5273 F       1  UNL1       -0.1687
     25 F           7.6391    1.7240    1.4019 F       1  UNL1       -0.1687
     26 C           3.4061    0.6617   -0.4168 C.ar    1  UNL1        0.1146
     27 C           3.9139    1.9464   -0.4949 C.ar    1  UNL1        0.1443
     28 N           5.1371    2.3175    0.1565 N.pl3   1  UNL1       -0.3414
     29 N           3.1584    2.9617   -0.9563 N.ar    1  UNL1       -0.2172
     30 C           1.8926    2.7390   -1.3384 C.ar    1  UNL1        0.1388
     31 N           1.3883    1.5047   -1.2509 N.ar    1  UNL1       -0.1543
     32 N           2.1017    0.4881   -0.8020 N.ar    1  UNL1       -0.2268
     33 C          -0.7462   -0.6153   -0.5256 C.ar    1  UNL1       -0.0311
     34 C          -4.4560   -0.7706   -0.8506 C.2     1  UNL1        0.2430
     35 O          -4.6480   -1.3515   -1.9438 O.2     1  UNL1       -0.2729
     36 C          -5.5873   -0.4869    0.0914 C.3     1  UNL1        0.1082
     37 C          -5.4139   -1.3581    1.2957 C.3     1  UNL1       -0.0352
     38 C          -6.9139   -0.8261   -0.5371 C.3     1  UNL1       -0.0352
     39 H          -7.2482    3.8197    0.6730 H       1  UNL1        0.0323
     40 H          -5.9069    3.2755    1.7765 H       1  UNL1        0.0323
     41 H          -5.5563    3.7620    0.0992 H       1  UNL1        0.0323
     42 H          -4.1501    2.4064    1.2251 H       1  UNL1        0.0480
     43 H          -4.1589    0.8686    2.0973 H       1  UNL1        0.0480
     44 H          -2.6226    1.6649   -0.3517 H       1  UNL1        0.0484
     45 H          -2.1663    0.7284    1.1140 H       1  UNL1        0.0484
     46 H          -2.9908   -2.8102   -1.6438 H       1  UNL1        0.0636
     47 H          -1.0189   -4.0300   -2.2349 H       1  UNL1        0.0618
     48 H           1.2347   -3.0937   -1.7340 H       1  UNL1        0.0624
     49 H           2.8406   -2.4528    0.2507 H       1  UNL1        0.0646
     50 H           4.3058   -2.5873    1.9358 H       1  UNL1        0.0654
     51 H           6.7891   -3.4460    2.1097 H       1  UNL1        0.0848
     52 H           6.4929    0.7514   -1.1944 H       1  UNL1        0.0598
     53 H           7.8649   -0.3979   -1.1552 H       1  UNL1        0.0598
     54 H           5.8879    2.8333   -0.2893 H       1  UNL1        0.1438
     55 H           5.1558    2.0020    1.1737 H       1  UNL1        0.1438
     56 H           1.2774    3.5314   -1.7126 H       1  UNL1        0.1066
     57 H          -0.5844    0.3317   -0.0535 H       1  UNL1        0.0643
     58 H          -6.0125   -0.9682    2.1574 H       1  UNL1        0.0255
     59 H          -5.7264   -2.3904    1.0425 H       1  UNL1        0.0255
     60 H          -4.3260   -1.3789    1.5445 H       1  UNL1        0.0255
     61 H          -7.1356   -0.3097   -1.4689 H       1  UNL1        0.0255
     62 H          -6.8626   -1.9130   -0.7758 H       1  UNL1        0.0255
     63 H          -7.6906   -0.7268    0.2284 H       1  UNL1        0.0255
@<TRIPOS>BOND
     1     1     2    1
     2     2     3    2
     3     2     4   am
     4     4     5    1
     5     5     6    1
     6     6     7    1
     7     7     8    1
     8     8     9   ar
     9     9    10   ar
    10    10    11   ar
    11    11    12   ar
    12    12    13    1
    13    13    14   ar
    14    14    15   ar
    15    15    16    1
    16    16    17   ar
    17    17    18   ar
    18    18    19   ar
    19    19    20   ar
    20    20    21    1
    21    21    22    1
    22    22    23    1
    23    22    24    1
    24    22    25    1
    25    15    26   ar
    26    26    27   ar
    27    27    28    1
    28    27    29   ar
    29    29    30   ar
    30    30    31   ar
    31    31    32   ar
    32    12    33   ar
    33     7    34   am
    34    34    35    2
    35    34    36    1
    36    36    37    1
    37    36    38    1
    38    36     4    1
    39    33     8   ar
    40    32    13   ar
    41    20    16   ar
    42    32    26   ar
    43     1    39    1
    44     1    40    1
    45     1    41    1
    46     5    42    1
    47     5    43    1
    48     6    44    1
    49     6    45    1
    50     9    46    1
    51    10    47    1
    52    11    48    1
    53    14    49    1
    54    17    50    1
    55    18    51    1
    56    21    52    1
    57    21    53    1
    58    28    54    1
    59    28    55    1
    60    30    56    1
    61    33    57    1
    62    37    58    1
    63    37    59    1
    64    37    60    1
    65    38    61    1
    66    38    62    1
    67    38    63    1
