
     RDKit          3D

 12 12  0  0  0  0  0  0  0  0999 V2000
   -1.6901   -0.1758   -0.0203 C   0  0  0  0  0  0  0  0  0  0  0  0
   -0.2278    0.0454   -0.0065 C   0  0  0  0  0  0  0  0  0  0  0  0
    0.7518   -0.9187   -0.0532 C   0  0  0  0  0  0  0  0  0  0  0  0
    1.9053   -0.2373   -0.0169 N   0  0  0  0  0  0  0  0  0  0  0  0
    1.6752    1.0646    0.0482 N   0  0  0  0  0  0  0  0  0  0  0  0
    0.3374    1.3126    0.0582 C   0  0  0  0  0  0  0  0  0  0  0  0
   -1.8915   -1.2543   -0.2019 H   0  0  0  0  0  0  0  0  0  0  0  0
   -2.2130    0.4337   -0.7897 H   0  0  0  0  0  0  0  0  0  0  0  0
   -2.0567    0.0252    1.0161 H   0  0  0  0  0  0  0  0  0  0  0  0
    0.6198   -1.9926   -0.1075 H   0  0  0  0  0  0  0  0  0  0  0  0
    2.8826   -0.6088   -0.0338 H   0  0  0  0  0  0  0  0  0  0  0  0
   -0.0929    2.3060    0.1074 H   0  0  0  0  0  0  0  0  0  0  0  0
  1  2  1  0
  2  3  2  0
  3  4  1  0
  4  5  1  0
  5  6  2  0
  6  2  1  0
  1  7  1  0
  1  8  1  0
  1  9  1  0
  3 10  1  0
  4 11  1  0
  6 12  1  0
M  END
$$$$
