@<TRIPOS>MOLECULE
*****
 17 17 0 0 0
SMALL
GASTEIGER

@<TRIPOS>ATOM
      1 N           3.1241   -0.1722    0.0998 N.pl3   1  UNL1       -0.3580
      2 C           1.7027   -0.0924    0.0693 C.ar    1  UNL1        0.0246
      3 C           0.9676   -0.1148    1.2376 C.ar    1  UNL1       -0.0403
      4 C          -0.4100   -0.0390    1.2351 C.ar    1  UNL1       -0.0460
      5 C          -1.1198    0.0634    0.0576 C.ar    1  UNL1        0.0589
      6 C          -2.5759    0.1432    0.0621 C.2     1  UNL1        0.3368
      7 O          -3.1738    0.1172    1.1568 O.2     1  UNL1       -0.2451
      8 O          -3.3094    0.2461   -1.0997 O.3     1  UNL1       -0.4771
      9 C          -0.3832    0.0859   -1.1123 C.ar    1  UNL1       -0.0460
     10 C           0.9952    0.0101   -1.1118 C.ar    1  UNL1       -0.0403
     11 H           3.7284    0.1237   -0.6753 H       1  UNL1        0.1423
     12 H           3.5737   -0.5513    0.9552 H       1  UNL1        0.1423
     13 H           1.5193   -0.1950    2.1635 H       1  UNL1        0.0636
     14 H          -0.9801   -0.0577    2.1661 H       1  UNL1        0.0626
     15 H          -4.3210    0.2409   -1.1467 H       1  UNL1        0.2954
     16 H          -0.9163    0.1646   -2.0299 H       1  UNL1        0.0626
     17 H           1.5784    0.0273   -2.0272 H       1  UNL1        0.0636
@<TRIPOS>BOND
     1     1     2    1
     2     2     3   ar
     3     3     4   ar
     4     4     5   ar
     5     5     6    1
     6     6     7    2
     7     6     8    1
     8     5     9   ar
     9     9    10   ar
    10    10     2   ar
    11     1    11    1
    12     1    12    1
    13     3    13    1
    14     4    14    1
    15     8    15    1
    16     9    16    1
    17    10    17    1
