
     RDKit          3D

 17 17  0  0  0  0  0  0  0  0999 V2000
    3.1241   -0.1722    0.0998 N   0  0  0  0  0  0  0  0  0  0  0  0
    1.7027   -0.0924    0.0693 C   0  0  0  0  0  0  0  0  0  0  0  0
    0.9676   -0.1148    1.2376 C   0  0  0  0  0  0  0  0  0  0  0  0
   -0.4100   -0.0390    1.2351 C   0  0  0  0  0  0  0  0  0  0  0  0
   -1.1198    0.0634    0.0576 C   0  0  0  0  0  0  0  0  0  0  0  0
   -2.5759    0.1432    0.0621 C   0  0  0  0  0  0  0  0  0  0  0  0
   -3.1738    0.1172    1.1568 O   0  0  0  0  0  0  0  0  0  0  0  0
   -3.3094    0.2461   -1.0997 O   0  0  0  0  0  0  0  0  0  0  0  0
   -0.3832    0.0859   -1.1123 C   0  0  0  0  0  0  0  0  0  0  0  0
    0.9952    0.0101   -1.1118 C   0  0  0  0  0  0  0  0  0  0  0  0
    3.7284    0.1237   -0.6753 H   0  0  0  0  0  0  0  0  0  0  0  0
    3.5737   -0.5513    0.9552 H   0  0  0  0  0  0  0  0  0  0  0  0
    1.5193   -0.1950    2.1635 H   0  0  0  0  0  0  0  0  0  0  0  0
   -0.9801   -0.0577    2.1661 H   0  0  0  0  0  0  0  0  0  0  0  0
   -4.3210    0.2409   -1.1467 H   0  0  0  0  0  0  0  0  0  0  0  0
   -0.9163    0.1646   -2.0299 H   0  0  0  0  0  0  0  0  0  0  0  0
    1.5784    0.0273   -2.0272 H   0  0  0  0  0  0  0  0  0  0  0  0
  1  2  1  0
  2  3  2  0
  3  4  1  0
  4  5  2  0
  5  6  1  0
  6  7  2  0
  6  8  1  0
  5  9  1  0
  9 10  2  0
 10  2  1  0
  1 11  1  0
  1 12  1  0
  3 13  1  0
  4 14  1  0
  8 15  1  0
  9 16  1  0
 10 17  1  0
M  END
$$$$
