@<TRIPOS>MOLECULE
*****
 47 49 0 0 0
SMALL
GASTEIGER

@<TRIPOS>ATOM
      1 C           8.1731   -0.8579   -3.1508 C.3     1  UNL1        0.0805
      2 O           7.7075   -0.2023   -1.9673 O.3     1  UNL1       -0.4786
      3 C           6.3980   -0.4684   -1.5859 C.ar    1  UNL1        0.2332
      4 C           5.8770    0.1265   -0.4552 C.ar    1  UNL1        0.0899
      5 N           4.5977   -0.1132   -0.0543 N.ar    1  UNL1       -0.2435
      6 C           3.8000   -0.9400   -0.7506 C.ar    1  UNL1        0.1439
      7 C           2.4327   -1.1767   -0.2950 C.2     1  UNL1        0.2681
      8 O           1.6540   -1.9438   -0.9186 O.2     1  UNL1       -0.2681
      9 N           1.9437   -0.5492    0.8627 N.am    1  UNL1       -0.2802
     10 C           0.6039   -0.7564    1.3438 C.ar    1  UNL1        0.0356
     11 C           0.3779   -1.7780    2.2254 C.ar    1  UNL1       -0.0193
     12 C          -0.8783   -1.9948    2.6946 C.ar    1  UNL1        0.0782
     13 CL         -1.1859   -3.2969    3.8230 Cl      1  UNL1       -0.0805
     14 C          -1.9346   -1.1849    2.2839 C.ar    1  UNL1        0.1472
     15 F          -3.1532   -1.4428    2.7777 F       1  UNL1       -0.2036
     16 C          -1.7352   -0.1481    1.3961 C.ar    1  UNL1        0.0183
     17 C          -2.8822    0.7049    0.9714 C.3     1  UNL1        0.0951
     18 C          -3.3363    1.4570    2.2158 C.3     1  UNL1       -0.0352
     19 C          -4.0004   -0.0922    0.3882 C.3     1  UNL1        0.0223
     20 C          -4.8734    0.6434   -0.5729 C.3     1  UNL1        0.1997
     21 C          -6.3013    0.6151   -0.0669 C.3     1  UNL1        0.4266
     22 F          -6.7345   -0.6912    0.0415 F       1  UNL1       -0.1669
     23 F          -7.1156    1.2252   -1.0051 F       1  UNL1       -0.1669
     24 F          -6.4000    1.2895    1.1310 F       1  UNL1       -0.1669
     25 O          -4.5088    1.9967   -0.7604 O.2     1  UNL1       -0.4534
     26 C          -3.1627    2.3344   -0.7884 C.2     1  UNL1        0.2765
     27 N          -2.6424    3.3256   -1.6932 N.pl3   1  UNL1       -0.3134
     28 N          -2.3982    1.7100    0.0433 N.2     1  UNL1       -0.2257
     29 C          -0.4477    0.0439    0.9398 C.ar    1  UNL1       -0.0322
     30 C           4.3166   -1.5359   -1.8803 C.ar    1  UNL1        0.0619
     31 N           5.5822   -1.2925   -2.2680 N.ar    1  UNL1       -0.2178
     32 H           7.3407   -0.7573   -3.8960 H       1  UNL1        0.0660
     33 H           9.0485   -0.3716   -3.5842 H       1  UNL1        0.0660
     34 H           8.4047   -1.9178   -2.9378 H       1  UNL1        0.0660
     35 H           6.5017    0.8027    0.1303 H       1  UNL1        0.0884
     36 H           2.5450    0.0957    1.4176 H       1  UNL1        0.1552
     37 H           1.2117   -2.4112    2.5447 H       1  UNL1        0.0652
     38 H          -2.5213    1.4683    2.9974 H       1  UNL1        0.0256
     39 H          -3.5628    2.5144    2.0115 H       1  UNL1        0.0256
     40 H          -4.2006    0.9084    2.6496 H       1  UNL1        0.0256
     41 H          -4.5922   -0.5094    1.2533 H       1  UNL1        0.0330
     42 H          -3.6008   -1.0127   -0.1286 H       1  UNL1        0.0330
     43 H          -4.8756    0.1711   -1.5964 H       1  UNL1        0.0826
     44 H          -2.8978    4.3329   -1.6294 H       1  UNL1        0.1466
     45 H          -1.9825    3.0369   -2.4471 H       1  UNL1        0.1466
     46 H          -0.2632    0.8573    0.2368 H       1  UNL1        0.0640
     47 H           3.6714   -2.2145   -2.4572 H       1  UNL1        0.0854
@<TRIPOS>BOND
     1     1     2    1
     2     2     3    1
     3     3     4   ar
     4     4     5   ar
     5     5     6   ar
     6     6     7    1
     7     7     8    2
     8     7     9   am
     9     9    10    1
    10    10    11   ar
    11    11    12   ar
    12    12    13    1
    13    12    14   ar
    14    14    15    1
    15    14    16   ar
    16    16    17    1
    17    17    18    1
    18    17    19    1
    19    19    20    1
    20    20    21    1
    21    21    22    1
    22    21    23    1
    23    21    24    1
    24    20    25    1
    25    25    26    1
    26    26    27    1
    27    26    28    2
    28    16    29   ar
    29     6    30   ar
    30    30    31   ar
    31    31     3   ar
    32    29    10   ar
    33    28    17    1
    34     1    32    1
    35     1    33    1
    36     1    34    1
    37     4    35    1
    38     9    36    1
    39    11    37    1
    40    18    38    1
    41    18    39    1
    42    18    40    1
    43    19    41    1
    44    19    42    1
    45    20    43    1
    46    27    44    1
    47    27    45    1
    48    29    46    1
    49    30    47    1
