
     RDKit          3D

 47 49  0  0  0  0  0  0  0  0999 V2000
    8.1731   -0.8579   -3.1508 C   0  0  0  0  0  0  0  0  0  0  0  0
    7.7075   -0.2023   -1.9673 O   0  0  0  0  0  0  0  0  0  0  0  0
    6.3980   -0.4684   -1.5859 C   0  0  0  0  0  0  0  0  0  0  0  0
    5.8770    0.1265   -0.4552 C   0  0  0  0  0  0  0  0  0  0  0  0
    4.5977   -0.1132   -0.0543 N   0  0  0  0  0  0  0  0  0  0  0  0
    3.8000   -0.9400   -0.7506 C   0  0  0  0  0  0  0  0  0  0  0  0
    2.4327   -1.1767   -0.2950 C   0  0  0  0  0  0  0  0  0  0  0  0
    1.6540   -1.9438   -0.9186 O   0  0  0  0  0  0  0  0  0  0  0  0
    1.9437   -0.5492    0.8627 N   0  0  0  0  0  0  0  0  0  0  0  0
    0.6039   -0.7564    1.3438 C   0  0  0  0  0  0  0  0  0  0  0  0
    0.3779   -1.7780    2.2254 C   0  0  0  0  0  0  0  0  0  0  0  0
   -0.8783   -1.9948    2.6946 C   0  0  0  0  0  0  0  0  0  0  0  0
   -1.1859   -3.2969    3.8230 Cl  0  0  0  0  0  0  0  0  0  0  0  0
   -1.9346   -1.1849    2.2839 C   0  0  0  0  0  0  0  0  0  0  0  0
   -3.1532   -1.4428    2.7777 F   0  0  0  0  0  0  0  0  0  0  0  0
   -1.7352   -0.1481    1.3961 C   0  0  0  0  0  0  0  0  0  0  0  0
   -2.8822    0.7049    0.9714 C   0  0  2  0  0  0  0  0  0  0  0  0
   -3.3363    1.4570    2.2158 C   0  0  0  0  0  0  0  0  0  0  0  0
   -4.0004   -0.0922    0.3882 C   0  0  0  0  0  0  0  0  0  0  0  0
   -4.8734    0.6434   -0.5729 C   0  0  1  0  0  0  0  0  0  0  0  0
   -6.3013    0.6151   -0.0669 C   0  0  0  0  0  0  0  0  0  0  0  0
   -6.7345   -0.6912    0.0415 F   0  0  0  0  0  0  0  0  0  0  0  0
   -7.1156    1.2252   -1.0051 F   0  0  0  0  0  0  0  0  0  0  0  0
   -6.4000    1.2895    1.1310 F   0  0  0  0  0  0  0  0  0  0  0  0
   -4.5088    1.9967   -0.7604 O   0  0  0  0  0  0  0  0  0  0  0  0
   -3.1627    2.3344   -0.7884 C   0  0  0  0  0  0  0  0  0  0  0  0
   -2.6424    3.3256   -1.6932 N   0  0  0  0  0  0  0  0  0  0  0  0
   -2.3982    1.7100    0.0433 N   0  0  0  0  0  0  0  0  0  0  0  0
   -0.4477    0.0439    0.9398 C   0  0  0  0  0  0  0  0  0  0  0  0
    4.3166   -1.5359   -1.8803 C   0  0  0  0  0  0  0  0  0  0  0  0
    5.5822   -1.2925   -2.2680 N   0  0  0  0  0  0  0  0  0  0  0  0
    7.3407   -0.7573   -3.8960 H   0  0  0  0  0  0  0  0  0  0  0  0
    9.0485   -0.3716   -3.5842 H   0  0  0  0  0  0  0  0  0  0  0  0
    8.4047   -1.9178   -2.9378 H   0  0  0  0  0  0  0  0  0  0  0  0
    6.5017    0.8027    0.1303 H   0  0  0  0  0  0  0  0  0  0  0  0
    2.5450    0.0957    1.4176 H   0  0  0  0  0  0  0  0  0  0  0  0
    1.2117   -2.4112    2.5447 H   0  0  0  0  0  0  0  0  0  0  0  0
   -2.5213    1.4683    2.9974 H   0  0  0  0  0  0  0  0  0  0  0  0
   -3.5628    2.5144    2.0115 H   0  0  0  0  0  0  0  0  0  0  0  0
   -4.2006    0.9084    2.6496 H   0  0  0  0  0  0  0  0  0  0  0  0
   -4.5922   -0.5094    1.2533 H   0  0  0  0  0  0  0  0  0  0  0  0
   -3.6008   -1.0127   -0.1286 H   0  0  0  0  0  0  0  0  0  0  0  0
   -4.8756    0.1711   -1.5964 H   0  0  0  0  0  0  0  0  0  0  0  0
   -2.8978    4.3329   -1.6294 H   0  0  0  0  0  0  0  0  0  0  0  0
   -1.9825    3.0369   -2.4471 H   0  0  0  0  0  0  0  0  0  0  0  0
   -0.2632    0.8573    0.2368 H   0  0  0  0  0  0  0  0  0  0  0  0
    3.6714   -2.2145   -2.4572 H   0  0  0  0  0  0  0  0  0  0  0  0
  1  2  1  0
  2  3  1  0
  3  4  2  0
  4  5  1  0
  5  6  2  0
  6  7  1  0
  7  8  2  0
  7  9  1  0
  9 10  1  0
 10 11  2  0
 11 12  1  0
 12 13  1  0
 12 14  2  0
 14 15  1  0
 14 16  1  0
 16 17  1  0
 17 18  1  1
 17 19  1  0
 19 20  1  0
 20 21  1  0
 21 22  1  0
 21 23  1  0
 21 24  1  0
 20 25  1  0
 25 26  1  0
 26 27  1  0
 26 28  2  0
 16 29  2  0
  6 30  1  0
 30 31  2  0
 31  3  1  0
 29 10  1  0
 28 17  1  0
  1 32  1  0
  1 33  1  0
  1 34  1  0
  4 35  1  0
  9 36  1  0
 11 37  1  0
 18 38  1  0
 18 39  1  0
 18 40  1  0
 19 41  1  0
 19 42  1  0
 20 43  1  6
 27 44  1  0
 27 45  1  0
 29 46  1  0
 30 47  1  0
M  END
$$$$
