
     RDKit          3D

 73 77  0  0  0  0  0  0  0  0999 V2000
   -7.1989    4.1072   -1.0122 C   0  0  0  0  0  0  0  0  0  0  0  0
   -8.2280    3.0891   -1.5719 C   0  0  0  0  0  0  0  0  0  0  0  0
   -8.0795    1.8401   -1.2661 O   0  0  0  0  0  0  0  0  0  0  0  0
   -7.9510    0.5965   -0.9796 C   0  0  0  0  0  0  0  0  0  0  0  0
   -8.5129   -0.5689   -1.4324 N   0  0  0  0  0  0  0  0  0  0  0  0
   -8.0564   -1.6175   -0.8305 N   0  0  0  0  0  0  0  0  0  0  0  0
   -8.3526   -3.0189   -0.9987 C   0  0  0  0  0  0  0  0  0  0  0  0
   -7.1587   -1.1970    0.0595 C   0  0  0  0  0  0  0  0  0  0  0  0
   -7.0350    0.1637    0.0220 C   0  0  0  0  0  0  0  0  0  0  0  0
   -6.1453    0.9408    0.7713 N   0  0  0  0  0  0  0  0  0  0  0  0
   -4.9941    0.3323    1.3869 C   0  0  0  0  0  0  0  0  0  0  0  0
   -5.1524   -0.2955    2.5564 N   0  0  0  0  0  0  0  0  0  0  0  0
   -4.0799   -0.8967    3.1559 C   0  0  0  0  0  0  0  0  0  0  0  0
   -2.9236   -0.8065    2.4964 C   0  0  0  0  0  0  0  0  0  0  0  0
   -1.7150   -1.5799    2.9570 C   0  0  0  0  0  0  0  0  0  0  0  0
   -2.6874   -0.1535    1.2729 C   0  0  0  0  0  0  0  0  0  0  0  0
   -1.3298   -0.2451    0.7853 C   0  0  0  0  0  0  0  0  0  0  0  0
   -0.3085    0.6601    1.2162 C   0  0  0  0  0  0  0  0  0  0  0  0
    0.8913    0.2836    0.6672 N   0  0  0  0  0  0  0  0  0  0  0  0
    0.7053   -0.8088   -0.0790 C   0  0  0  0  0  0  0  0  0  0  0  0
    1.6644   -1.5662   -0.7715 C   0  0  0  0  0  0  0  0  0  0  0  0
    3.0133   -1.3821   -0.5794 N   0  0  0  0  0  0  0  0  0  0  0  0
    4.0206   -0.7720   -1.3257 C   0  0  0  0  0  0  0  0  0  0  0  0
    3.8003   -0.2012   -2.4478 O   0  0  0  0  0  0  0  0  0  0  0  0
    5.4365   -0.7284   -0.8482 C   0  0  1  0  0  0  0  0  0  0  0  0
    6.0838   -2.0280   -1.1337 C   0  0  0  0  0  0  0  0  0  0  0  0
    6.1280    0.4275   -1.3540 N   0  0  0  0  0  0  0  0  0  0  0  0
    7.5731    0.2244   -1.3936 C   0  0  0  0  0  0  0  0  0  0  0  0
    8.2694    0.6679   -0.1473 C   0  0  0  0  0  0  0  0  0  0  0  0
    8.2414    2.1248   -0.1866 N   0  0  0  0  0  0  0  0  0  0  0  0
    8.8626    2.6148    1.0321 C   0  0  0  0  0  0  0  0  0  0  0  0
    6.8741    2.6130   -0.3573 C   0  0  0  0  0  0  0  0  0  0  0  0
    5.8668    1.4883   -0.3497 C   0  0  0  0  0  0  0  0  0  0  0  0
    1.1595   -2.6815   -1.4724 C   0  0  0  0  0  0  0  0  0  0  0  0
   -0.1697   -2.9449   -1.4466 C   0  0  0  0  0  0  0  0  0  0  0  0
   -1.0660   -2.1914   -0.7459 C   0  0  0  0  0  0  0  0  0  0  0  0
   -0.6526   -1.0894   -0.0104 C   0  0  0  0  0  0  0  0  0  0  0  0
   -3.7955    0.4071    0.7453 N   0  0  0  0  0  0  0  0  0  0  0  0
   -6.2707    4.0425   -1.6340 H   0  0  0  0  0  0  0  0  0  0  0  0
   -7.0406    3.9666    0.0707 H   0  0  0  0  0  0  0  0  0  0  0  0
   -7.6437    5.1035   -1.1967 H   0  0  0  0  0  0  0  0  0  0  0  0
   -9.2183    3.5172   -1.1428 H   0  0  0  0  0  0  0  0  0  0  0  0
   -8.2633    3.3599   -2.6611 H   0  0  0  0  0  0  0  0  0  0  0  0
   -8.7962   -3.4352   -0.0136 H   0  0  0  0  0  0  0  0  0  0  0  0
   -7.4006   -3.6123   -1.1011 H   0  0  0  0  0  0  0  0  0  0  0  0
   -8.9634   -3.2587   -1.8445 H   0  0  0  0  0  0  0  0  0  0  0  0
   -6.5826   -1.8269    0.7750 H   0  0  0  0  0  0  0  0  0  0  0  0
   -6.2811    1.9331    0.9571 H   0  0  0  0  0  0  0  0  0  0  0  0
   -4.2137   -1.4131    4.0722 H   0  0  0  0  0  0  0  0  0  0  0  0
   -1.7594   -2.5337    2.3417 H   0  0  0  0  0  0  0  0  0  0  0  0
   -1.9012   -1.8907    3.9952 H   0  0  0  0  0  0  0  0  0  0  0  0
   -0.8041   -1.0217    2.8536 H   0  0  0  0  0  0  0  0  0  0  0  0
   -0.5094    1.5042    1.8411 H   0  0  0  0  0  0  0  0  0  0  0  0
    1.7981    0.7669    0.8254 H   0  0  0  0  0  0  0  0  0  0  0  0
    3.3905   -1.7514    0.4403 H   0  0  0  0  0  0  0  0  0  0  0  0
    5.3338   -0.6599    0.2755 H   0  0  0  0  0  0  0  0  0  0  0  0
    7.0269   -2.1875   -0.5376 H   0  0  0  0  0  0  0  0  0  0  0  0
    6.2024   -2.3084   -2.1796 H   0  0  0  0  0  0  0  0  0  0  0  0
    5.4000   -2.8441   -0.6936 H   0  0  0  0  0  0  0  0  0  0  0  0
    7.8722   -0.7868   -1.6815 H   0  0  0  0  0  0  0  0  0  0  0  0
    7.9047    0.9101   -2.2207 H   0  0  0  0  0  0  0  0  0  0  0  0
    9.3638    0.3888   -0.2743 H   0  0  0  0  0  0  0  0  0  0  0  0
    7.8073    0.3223    0.7702 H   0  0  0  0  0  0  0  0  0  0  0  0
    8.4818    2.1341    1.9652 H   0  0  0  0  0  0  0  0  0  0  0  0
    8.7970    3.7092    1.1052 H   0  0  0  0  0  0  0  0  0  0  0  0
    9.9448    2.3170    0.9527 H   0  0  0  0  0  0  0  0  0  0  0  0
    6.8194    3.1168   -1.3431 H   0  0  0  0  0  0  0  0  0  0  0  0
    6.6341    3.2835    0.4301 H   0  0  0  0  0  0  0  0  0  0  0  0
    5.7754    1.0045    0.6651 H   0  0  0  0  0  0  0  0  0  0  0  0
    4.8764    1.9051   -0.5716 H   0  0  0  0  0  0  0  0  0  0  0  0
    1.8701   -3.3075   -2.0143 H   0  0  0  0  0  0  0  0  0  0  0  0
   -0.5053   -3.8331   -2.0227 H   0  0  0  0  0  0  0  0  0  0  0  0
   -2.1428   -2.4219   -0.7106 H   0  0  0  0  0  0  0  0  0  0  0  0
  1  2  1  0
  2  3  1  0
  3  4  1  0
  4  5  2  0
  5  6  1  0
  6  7  1  0
  6  8  1  0
  8  9  2  0
  9 10  1  0
 10 11  1  0
 11 12  2  0
 12 13  1  0
 13 14  2  0
 14 15  1  0
 14 16  1  0
 16 17  1  0
 17 18  2  0
 18 19  1  0
 19 20  1  0
 20 21  2  0
 21 22  1  0
 22 23  1  0
 23 24  2  0
 23 25  1  0
 25 26  1  0
 25 27  1  0
 27 28  1  0
 28 29  1  0
 29 30  1  0
 30 31  1  0
 30 32  1  0
 32 33  1  0
 21 34  1  0
 34 35  2  0
 35 36  1  0
 36 37  2  0
 16 38  2  0
  9  4  1  0
 38 11  1  0
 37 17  1  0
 37 20  1  0
 33 27  1  0
  1 39  1  0
  1 40  1  0
  1 41  1  0
  2 42  1  0
  2 43  1  0
  7 44  1  0
  7 45  1  0
  7 46  1  0
  8 47  1  0
 10 48  1  0
 13 49  1  0
 15 50  1  0
 15 51  1  0
 15 52  1  0
 18 53  1  0
 19 54  1  0
 22 55  1  0
 25 56  1  1
 26 57  1  0
 26 58  1  0
 26 59  1  0
 28 60  1  0
 28 61  1  0
 29 62  1  0
 29 63  1  0
 31 64  1  0
 31 65  1  0
 31 66  1  0
 32 67  1  0
 32 68  1  0
 33 69  1  0
 33 70  1  0
 34 71  1  0
 35 72  1  0
 36 73  1  0
M  END
$$$$
