@<TRIPOS>MOLECULE
*****
 73 77 0 0 0
SMALL
GASTEIGER

@<TRIPOS>ATOM
      1 C          -7.1989    4.1072   -1.0122 C.3     1  UNL1       -0.0306
      2 C          -8.2280    3.0891   -1.5719 C.3     1  UNL1        0.0885
      3 O          -8.0795    1.8401   -1.2661 O.3     1  UNL1       -0.4744
      4 C          -7.9510    0.5965   -0.9796 C.ar    1  UNL1        0.2555
      5 N          -8.5129   -0.5689   -1.4324 N.ar    1  UNL1       -0.1317
      6 N          -8.0564   -1.6175   -0.8305 N.ar    1  UNL1       -0.2692
      7 C          -8.3526   -3.0189   -0.9987 C.3     1  UNL1        0.0304
      8 C          -7.1587   -1.1970    0.0595 C.ar    1  UNL1        0.0503
      9 C          -7.0350    0.1637    0.0220 C.ar    1  UNL1        0.1152
     10 N          -6.1453    0.9408    0.7713 N.pl3   1  UNL1       -0.2782
     11 C          -4.9941    0.3323    1.3869 C.ar    1  UNL1        0.2202
     12 N          -5.1524   -0.2955    2.5564 N.ar    1  UNL1       -0.2224
     13 C          -4.0799   -0.8967    3.1559 C.ar    1  UNL1        0.0361
     14 C          -2.9236   -0.8065    2.4964 C.ar    1  UNL1       -0.0062
     15 C          -1.7150   -1.5799    2.9570 C.3     1  UNL1       -0.0362
     16 C          -2.6874   -0.1535    1.2729 C.ar    1  UNL1        0.0809
     17 C          -1.3298   -0.2451    0.7853 C.ar    1  UNL1        0.0258
     18 C          -0.3085    0.6601    1.2162 C.ar    1  UNL1        0.0120
     19 N           0.8913    0.2836    0.6672 N.ar    1  UNL1       -0.3586
     20 C           0.7053   -0.8088   -0.0790 C.ar    1  UNL1        0.0686
     21 C           1.6644   -1.5662   -0.7715 C.ar    1  UNL1        0.0576
     22 N           3.0133   -1.3821   -0.5794 N.am    1  UNL1       -0.2825
     23 C           4.0206   -0.7720   -1.3257 C.2     1  UNL1        0.2342
     24 O           3.8003   -0.2012   -2.4478 O.2     1  UNL1       -0.2738
     25 C           5.4365   -0.7284   -0.8482 C.3     1  UNL1        0.0848
     26 C           6.0838   -2.0280   -1.1337 C.3     1  UNL1       -0.0409
     27 N           6.1280    0.4275   -1.3540 N.3     1  UNL1       -0.2893
     28 C           7.5731    0.2244   -1.3936 C.3     1  UNL1        0.0124
     29 C           8.2694    0.6679   -0.1473 C.3     1  UNL1        0.0114
     30 N           8.2414    2.1248   -0.1866 N.3     1  UNL1       -0.3029
     31 C           8.8626    2.6148    1.0321 C.3     1  UNL1       -0.0127
     32 C           6.8741    2.6130   -0.3573 C.3     1  UNL1        0.0114
     33 C           5.8668    1.4883   -0.3497 C.3     1  UNL1        0.0124
     34 C           1.1595   -2.6815   -1.4724 C.ar    1  UNL1       -0.0384
     35 C          -0.1697   -2.9449   -1.4466 C.ar    1  UNL1       -0.0593
     36 C          -1.0660   -2.1914   -0.7459 C.ar    1  UNL1       -0.0518
     37 C          -0.6526   -1.0894   -0.0104 C.ar    1  UNL1        0.0107
     38 N          -3.7955    0.4071    0.7453 N.ar    1  UNL1       -0.2139
     39 H          -6.2707    4.0425   -1.6340 H       1  UNL1        0.0262
     40 H          -7.0406    3.9666    0.0707 H       1  UNL1        0.0262
     41 H          -7.6437    5.1035   -1.1967 H       1  UNL1        0.0262
     42 H          -9.2183    3.5172   -1.1428 H       1  UNL1        0.0694
     43 H          -8.2633    3.3599   -2.6611 H       1  UNL1        0.0694
     44 H          -8.7962   -3.4352   -0.0136 H       1  UNL1        0.0473
     45 H          -7.4006   -3.6123   -1.1011 H       1  UNL1        0.0473
     46 H          -8.9634   -3.2587   -1.8445 H       1  UNL1        0.0473
     47 H          -6.5826   -1.8269    0.7750 H       1  UNL1        0.0846
     48 H          -6.2811    1.9331    0.9571 H       1  UNL1        0.1552
     49 H          -4.2137   -1.4131    4.0722 H       1  UNL1        0.0834
     50 H          -1.7594   -2.5337    2.3417 H       1  UNL1        0.0279
     51 H          -1.9012   -1.8907    3.9952 H       1  UNL1        0.0279
     52 H          -0.8041   -1.0217    2.8536 H       1  UNL1        0.0279
     53 H          -0.5094    1.5042    1.8411 H       1  UNL1        0.0814
     54 H           1.7981    0.7669    0.8254 H       1  UNL1        0.1654
     55 H           3.3905   -1.7514    0.4403 H       1  UNL1        0.1549
     56 H           5.3338   -0.6599    0.2755 H       1  UNL1        0.0556
     57 H           7.0269   -2.1875   -0.5376 H       1  UNL1        0.0249
     58 H           6.2024   -2.3084   -2.1796 H       1  UNL1        0.0249
     59 H           5.4000   -2.8441   -0.6936 H       1  UNL1        0.0249
     60 H           7.8722   -0.7868   -1.6815 H       1  UNL1        0.0439
     61 H           7.9047    0.9101   -2.2207 H       1  UNL1        0.0439
     62 H           9.3638    0.3888   -0.2743 H       1  UNL1        0.0439
     63 H           7.8073    0.3223    0.7702 H       1  UNL1        0.0439
     64 H           8.4818    2.1341    1.9652 H       1  UNL1        0.0391
     65 H           8.7970    3.7092    1.1052 H       1  UNL1        0.0391
     66 H           9.9448    2.3170    0.9527 H       1  UNL1        0.0391
     67 H           6.8194    3.1168   -1.3431 H       1  UNL1        0.0439
     68 H           6.6341    3.2835    0.4301 H       1  UNL1        0.0439
     69 H           5.7754    1.0045    0.6651 H       1  UNL1        0.0439
     70 H           4.8764    1.9051   -0.5716 H       1  UNL1        0.0439
     71 H           1.8701   -3.3075   -2.0143 H       1  UNL1        0.0637
     72 H          -0.5053   -3.8331   -2.0227 H       1  UNL1        0.0618
     73 H          -2.1428   -2.4219   -0.7106 H       1  UNL1        0.0624
@<TRIPOS>BOND
     1     1     2    1
     2     2     3    1
     3     3     4    1
     4     4     5   ar
     5     5     6   ar
     6     6     7    1
     7     6     8   ar
     8     8     9   ar
     9     9    10    1
    10    10    11    1
    11    11    12   ar
    12    12    13   ar
    13    13    14   ar
    14    14    15    1
    15    14    16   ar
    16    16    17    1
    17    17    18   ar
    18    18    19   ar
    19    19    20   ar
    20    20    21   ar
    21    21    22    1
    22    22    23   am
    23    23    24    2
    24    23    25    1
    25    25    26    1
    26    25    27    1
    27    27    28    1
    28    28    29    1
    29    29    30    1
    30    30    31    1
    31    30    32    1
    32    32    33    1
    33    21    34   ar
    34    34    35   ar
    35    35    36   ar
    36    36    37   ar
    37    16    38   ar
    38     9     4   ar
    39    38    11   ar
    40    37    17   ar
    41    37    20   ar
    42    33    27    1
    43     1    39    1
    44     1    40    1
    45     1    41    1
    46     2    42    1
    47     2    43    1
    48     7    44    1
    49     7    45    1
    50     7    46    1
    51     8    47    1
    52    10    48    1
    53    13    49    1
    54    15    50    1
    55    15    51    1
    56    15    52    1
    57    18    53    1
    58    19    54    1
    59    22    55    1
    60    25    56    1
    61    26    57    1
    62    26    58    1
    63    26    59    1
    64    28    60    1
    65    28    61    1
    66    29    62    1
    67    29    63    1
    68    31    64    1
    69    31    65    1
    70    31    66    1
    71    32    67    1
    72    32    68    1
    73    33    69    1
    74    33    70    1
    75    34    71    1
    76    35    72    1
    77    36    73    1
