@<TRIPOS>MOLECULE
*****
 41 44 0 0 0
SMALL
GASTEIGER

@<TRIPOS>ATOM
      1 O          -2.5793    2.2556   -1.2205 O.2     1  UNL1       -0.2698
      2 C          -3.2987    1.3252   -0.7547 C.2     1  UNL1        0.2501
      3 N          -4.6047    1.5147   -0.2100 N.am    1  UNL1       -0.2809
      4 C          -5.1142    0.2499    0.2169 C.ar    1  UNL1        0.0416
      5 C          -6.3041   -0.1326    0.8022 C.ar    1  UNL1       -0.0399
      6 C          -6.5446   -1.4558    1.1200 C.ar    1  UNL1       -0.0600
      7 C          -5.5902   -2.4409    0.8575 C.ar    1  UNL1       -0.0611
      8 C          -4.4196   -2.0120    0.2733 C.ar    1  UNL1       -0.0521
      9 C          -4.1486   -0.6975   -0.0565 C.ar    1  UNL1        0.0095
     10 C          -2.9720   -0.0870   -0.6724 C.2     1  UNL1        0.0596
     11 C          -1.8484   -0.6771   -1.0726 C.2     1  UNL1        0.0065
     12 N          -0.8632    0.1704   -1.6422 N.pl3   1  UNL1       -0.3198
     13 C           0.3598    0.6471   -1.1573 C.ar    1  UNL1        0.0310
     14 C           1.1455    1.4881   -1.9537 C.ar    1  UNL1       -0.0387
     15 C           2.3279    1.9218   -1.4288 C.ar    1  UNL1       -0.0333
     16 C           2.7916    1.5766   -0.1554 C.ar    1  UNL1        0.1087
     17 C           1.9923    0.7542    0.5861 C.ar    1  UNL1       -0.0333
     18 C           0.7904    0.2982    0.0839 C.ar    1  UNL1       -0.0387
     19 S           4.3185    2.2577    0.2742 S.O2    1  UNL1        0.0738
     20 O           4.4105    2.5119    1.7598 O.2     1  UNL1       -0.1499
     21 O           4.5136    3.6047   -0.3900 O.2     1  UNL1       -0.1499
     22 N           5.6141    1.2500   -0.1927 N.pl3   1  UNL1       -0.1938
     23 C           5.5567   -0.0121    0.4518 C.ar    1  UNL1        0.1774
     24 N           4.9136   -0.6086    1.2071 N.ar    1  UNL1       -0.2321
     25 C           5.1081   -1.8369    1.6511 C.ar    1  UNL1        0.0369
     26 C           6.2236   -2.5355    1.1682 C.ar    1  UNL1       -0.0030
     27 S           6.9528   -1.2226    0.0079 S.2     1  UNL1       -0.0594
     28 H          -5.0994    2.4307   -0.1388 H       1  UNL1        0.1552
     29 H          -7.0162    0.6740    0.9866 H       1  UNL1        0.0636
     30 H          -7.5098   -1.7026    1.5845 H       1  UNL1        0.0618
     31 H          -5.7865   -3.4734    1.1092 H       1  UNL1        0.0618
     32 H          -3.6996   -2.8094    0.0839 H       1  UNL1        0.0624
     33 H          -1.7232   -1.7471   -0.9564 H       1  UNL1        0.0789
     34 H          -1.2366    0.4096   -2.5873 H       1  UNL1        0.1516
     35 H           0.7912    1.7560   -2.9351 H       1  UNL1        0.0637
     36 H           2.8897    2.5750   -2.1055 H       1  UNL1        0.0638
     37 H           2.3732    0.5062    1.5599 H       1  UNL1        0.0638
     38 H           0.2330   -0.3535    0.7629 H       1  UNL1        0.0637
     39 H           6.3461    1.5513   -0.8722 H       1  UNL1        0.1757
     40 H           4.3530   -2.1900    2.3723 H       1  UNL1        0.0835
     41 H           6.3536   -3.6037    1.5830 H       1  UNL1        0.0710
@<TRIPOS>BOND
     1     1     2    2
     2     2     3   am
     3     3     4    1
     4     4     5   ar
     5     5     6   ar
     6     6     7   ar
     7     7     8   ar
     8     8     9   ar
     9     9    10    1
    10    10    11    2
    11    11    12    1
    12    12    13    1
    13    13    14   ar
    14    14    15   ar
    15    15    16   ar
    16    16    17   ar
    17    17    18   ar
    18    16    19    1
    19    19    20    2
    20    19    21    2
    21    19    22    1
    22    22    23    1
    23    23    24   ar
    24    24    25   ar
    25    25    26   ar
    26    26    27   ar
    27    10     2    1
    28    18    13   ar
    29    27    23   ar
    30     9     4   ar
    31     3    28    1
    32     5    29    1
    33     6    30    1
    34     7    31    1
    35     8    32    1
    36    11    33    1
    37    12    34    1
    38    14    35    1
    39    15    36    1
    40    17    37    1
    41    18    38    1
    42    22    39    1
    43    25    40    1
    44    26    41    1
