
     RDKit          3D

 41 44  0  0  0  0  0  0  0  0999 V2000
   -2.5793    2.2556   -1.2205 O   0  0  0  0  0  0  0  0  0  0  0  0
   -3.2987    1.3252   -0.7547 C   0  0  0  0  0  0  0  0  0  0  0  0
   -4.6047    1.5147   -0.2100 N   0  0  0  0  0  0  0  0  0  0  0  0
   -5.1142    0.2499    0.2169 C   0  0  0  0  0  0  0  0  0  0  0  0
   -6.3041   -0.1326    0.8022 C   0  0  0  0  0  0  0  0  0  0  0  0
   -6.5446   -1.4558    1.1200 C   0  0  0  0  0  0  0  0  0  0  0  0
   -5.5902   -2.4409    0.8575 C   0  0  0  0  0  0  0  0  0  0  0  0
   -4.4196   -2.0120    0.2733 C   0  0  0  0  0  0  0  0  0  0  0  0
   -4.1486   -0.6975   -0.0565 C   0  0  0  0  0  0  0  0  0  0  0  0
   -2.9720   -0.0870   -0.6724 C   0  0  0  0  0  0  0  0  0  0  0  0
   -1.8484   -0.6771   -1.0726 C   0  0  0  0  0  0  0  0  0  0  0  0
   -0.8632    0.1704   -1.6422 N   0  0  0  0  0  0  0  0  0  0  0  0
    0.3598    0.6471   -1.1573 C   0  0  0  0  0  0  0  0  0  0  0  0
    1.1455    1.4881   -1.9537 C   0  0  0  0  0  0  0  0  0  0  0  0
    2.3279    1.9218   -1.4288 C   0  0  0  0  0  0  0  0  0  0  0  0
    2.7916    1.5766   -0.1554 C   0  0  0  0  0  0  0  0  0  0  0  0
    1.9923    0.7542    0.5861 C   0  0  0  0  0  0  0  0  0  0  0  0
    0.7904    0.2982    0.0839 C   0  0  0  0  0  0  0  0  0  0  0  0
    4.3185    2.2577    0.2742 S   0  0  0  0  0  0  0  0  0  0  0  0
    4.4105    2.5119    1.7598 O   0  0  0  0  0  0  0  0  0  0  0  0
    4.5136    3.6047   -0.3900 O   0  0  0  0  0  0  0  0  0  0  0  0
    5.6141    1.2500   -0.1927 N   0  0  0  0  0  0  0  0  0  0  0  0
    5.5567   -0.0121    0.4518 C   0  0  0  0  0  0  0  0  0  0  0  0
    4.9136   -0.6086    1.2071 N   0  0  0  0  0  0  0  0  0  0  0  0
    5.1081   -1.8369    1.6511 C   0  0  0  0  0  0  0  0  0  0  0  0
    6.2236   -2.5355    1.1682 C   0  0  0  0  0  0  0  0  0  0  0  0
    6.9528   -1.2226    0.0079 S   0  0  0  0  0  0  0  0  0  0  0  0
   -5.0994    2.4307   -0.1388 H   0  0  0  0  0  0  0  0  0  0  0  0
   -7.0162    0.6740    0.9866 H   0  0  0  0  0  0  0  0  0  0  0  0
   -7.5098   -1.7026    1.5845 H   0  0  0  0  0  0  0  0  0  0  0  0
   -5.7865   -3.4734    1.1092 H   0  0  0  0  0  0  0  0  0  0  0  0
   -3.6996   -2.8094    0.0839 H   0  0  0  0  0  0  0  0  0  0  0  0
   -1.7232   -1.7471   -0.9564 H   0  0  0  0  0  0  0  0  0  0  0  0
   -1.2366    0.4096   -2.5873 H   0  0  0  0  0  0  0  0  0  0  0  0
    0.7912    1.7560   -2.9351 H   0  0  0  0  0  0  0  0  0  0  0  0
    2.8897    2.5750   -2.1055 H   0  0  0  0  0  0  0  0  0  0  0  0
    2.3732    0.5062    1.5599 H   0  0  0  0  0  0  0  0  0  0  0  0
    0.2330   -0.3535    0.7629 H   0  0  0  0  0  0  0  0  0  0  0  0
    6.3461    1.5513   -0.8722 H   0  0  0  0  0  0  0  0  0  0  0  0
    4.3530   -2.1900    2.3723 H   0  0  0  0  0  0  0  0  0  0  0  0
    6.3536   -3.6037    1.5830 H   0  0  0  0  0  0  0  0  0  0  0  0
  1  2  2  0
  2  3  1  0
  3  4  1  0
  4  5  2  0
  5  6  1  0
  6  7  2  0
  7  8  1  0
  8  9  2  0
  9 10  1  0
 10 11  2  0
 11 12  1  0
 12 13  1  0
 13 14  2  0
 14 15  1  0
 15 16  2  0
 16 17  1  0
 17 18  2  0
 16 19  1  0
 19 20  2  0
 19 21  2  0
 19 22  1  0
 22 23  1  0
 23 24  2  0
 24 25  1  0
 25 26  2  0
 26 27  1  0
 10  2  1  0
 18 13  1  0
 27 23  1  0
  9  4  1  0
  3 28  1  0
  5 29  1  0
  6 30  1  0
  7 31  1  0
  8 32  1  0
 11 33  1  0
 12 34  1  0
 14 35  1  0
 15 36  1  0
 17 37  1  0
 18 38  1  0
 22 39  1  0
 25 40  1  0
 26 41  1  0
M  END
$$$$
