@<TRIPOS>MOLECULE
*****
 45 48 0 0 0
SMALL
GASTEIGER

@<TRIPOS>ATOM
      1 O          -3.2813    1.5259    0.5971 O.2     1  UNL1       -0.2523
      2 C          -2.9961    0.3855    0.0843 C.2     1  UNL1        0.3065
      3 N          -4.0588   -0.2853   -0.5267 N.am    1  UNL1       -0.2693
      4 C          -5.3901    0.2693   -0.5876 C.ar    1  UNL1        0.0348
      5 C          -5.8226    1.0233   -1.6400 C.ar    1  UNL1       -0.0404
      6 C          -7.1294    1.5429   -1.6248 C.ar    1  UNL1       -0.0600
      7 C          -7.9923    1.3148   -0.5737 C.ar    1  UNL1       -0.0616
      8 C          -7.5380    0.5516    0.4819 C.ar    1  UNL1       -0.0600
      9 C          -6.2347    0.0315    0.4676 C.ar    1  UNL1       -0.0404
     10 N          -1.6473   -0.0574    0.1990 N.am    1  UNL1       -0.2824
     11 C          -0.7714    0.8717    0.9219 C.3     1  UNL1        0.0320
     12 C           0.1350    0.0197    1.8112 C.3     1  UNL1        0.0299
     13 N           0.8762   -0.8064    0.8786 N.pl3   1  UNL1       -0.3054
     14 C           2.3163   -0.7420    0.9205 C.ar    1  UNL1        0.1810
     15 N           3.2902   -0.4355    0.4199 N.ar    1  UNL1       -0.2038
     16 C           4.5394   -0.5015    0.8143 C.ar    1  UNL1        0.1705
     17 C           5.7584   -0.0529    0.0764 C.ar    1  UNL1        0.0198
     18 C           6.1845   -0.6292   -1.0859 C.ar    1  UNL1       -0.0510
     19 C           7.3226   -0.1890   -1.7235 C.ar    1  UNL1       -0.0611
     20 C           8.0777    0.8523   -1.2139 C.ar    1  UNL1       -0.0617
     21 C           7.6390    1.4295   -0.0379 C.ar    1  UNL1       -0.0611
     22 C           6.5047    0.9908    0.5988 C.ar    1  UNL1       -0.0510
     23 N           4.7244   -1.0316    2.0499 N.ar    1  UNL1       -0.1873
     24 S           2.9813   -1.4122    2.5641 S.2     1  UNL1        0.0494
     25 C           0.2091   -1.6289   -0.0630 C.3     1  UNL1        0.0299
     26 C          -1.2025   -1.2947   -0.3612 C.3     1  UNL1        0.0320
     27 H          -3.8686   -1.2153   -0.9469 H       1  UNL1        0.1564
     28 H          -5.1751    1.2227   -2.4872 H       1  UNL1        0.0636
     29 H          -7.4897    2.1417   -2.4476 H       1  UNL1        0.0618
     30 H          -9.0017    1.7212   -0.5666 H       1  UNL1        0.0618
     31 H          -8.2238    0.3806    1.2953 H       1  UNL1        0.0618
     32 H          -5.9153   -0.5587    1.3123 H       1  UNL1        0.0636
     33 H          -0.2218    1.5048    0.2331 H       1  UNL1        0.0480
     34 H          -1.3853    1.4769    1.6292 H       1  UNL1        0.0480
     35 H           0.7269    0.6933    2.4239 H       1  UNL1        0.0480
     36 H          -0.5422   -0.5652    2.4630 H       1  UNL1        0.0480
     37 H           5.6371   -1.4382   -1.5223 H       1  UNL1        0.0625
     38 H           7.6598   -0.6631   -2.6613 H       1  UNL1        0.0618
     39 H           8.9637    1.1998   -1.7093 H       1  UNL1        0.0618
     40 H           8.2387    2.2411    0.3490 H       1  UNL1        0.0618
     41 H           6.1648    1.4446    1.5091 H       1  UNL1        0.0625
     42 H           0.3189   -2.7270    0.2436 H       1  UNL1        0.0480
     43 H           0.8139   -1.6003   -1.0227 H       1  UNL1        0.0480
     44 H          -1.3276   -1.2031   -1.4670 H       1  UNL1        0.0480
     45 H          -1.8671   -2.1491   -0.0748 H       1  UNL1        0.0480
@<TRIPOS>BOND
     1     1     2    2
     2     2     3   am
     3     3     4    1
     4     4     5   ar
     5     5     6   ar
     6     6     7   ar
     7     7     8   ar
     8     8     9   ar
     9     2    10   am
    10    10    11    1
    11    11    12    1
    12    12    13    1
    13    13    14    1
    14    14    15   ar
    15    15    16   ar
    16    16    17    1
    17    17    18   ar
    18    18    19   ar
    19    19    20   ar
    20    20    21   ar
    21    21    22   ar
    22    16    23   ar
    23    23    24   ar
    24    13    25    1
    25    25    26    1
    26     9     4   ar
    27    26    10    1
    28    24    14   ar
    29    22    17   ar
    30     3    27    1
    31     5    28    1
    32     6    29    1
    33     7    30    1
    34     8    31    1
    35     9    32    1
    36    11    33    1
    37    11    34    1
    38    12    35    1
    39    12    36    1
    40    18    37    1
    41    19    38    1
    42    20    39    1
    43    21    40    1
    44    22    41    1
    45    25    42    1
    46    25    43    1
    47    26    44    1
    48    26    45    1
