
     RDKit          3D

 45 48  0  0  0  0  0  0  0  0999 V2000
   -3.2813    1.5259    0.5971 O   0  0  0  0  0  0  0  0  0  0  0  0
   -2.9961    0.3855    0.0843 C   0  0  0  0  0  0  0  0  0  0  0  0
   -4.0588   -0.2853   -0.5267 N   0  0  0  0  0  0  0  0  0  0  0  0
   -5.3901    0.2693   -0.5876 C   0  0  0  0  0  0  0  0  0  0  0  0
   -5.8226    1.0233   -1.6400 C   0  0  0  0  0  0  0  0  0  0  0  0
   -7.1294    1.5429   -1.6248 C   0  0  0  0  0  0  0  0  0  0  0  0
   -7.9923    1.3148   -0.5737 C   0  0  0  0  0  0  0  0  0  0  0  0
   -7.5380    0.5516    0.4819 C   0  0  0  0  0  0  0  0  0  0  0  0
   -6.2347    0.0315    0.4676 C   0  0  0  0  0  0  0  0  0  0  0  0
   -1.6473   -0.0574    0.1990 N   0  0  0  0  0  0  0  0  0  0  0  0
   -0.7714    0.8717    0.9219 C   0  0  0  0  0  0  0  0  0  0  0  0
    0.1350    0.0197    1.8112 C   0  0  0  0  0  0  0  0  0  0  0  0
    0.8762   -0.8064    0.8786 N   0  0  0  0  0  0  0  0  0  0  0  0
    2.3163   -0.7420    0.9205 C   0  0  0  0  0  0  0  0  0  0  0  0
    3.2902   -0.4355    0.4199 N   0  0  0  0  0  0  0  0  0  0  0  0
    4.5394   -0.5015    0.8143 C   0  0  0  0  0  0  0  0  0  0  0  0
    5.7584   -0.0529    0.0764 C   0  0  0  0  0  0  0  0  0  0  0  0
    6.1845   -0.6292   -1.0859 C   0  0  0  0  0  0  0  0  0  0  0  0
    7.3226   -0.1890   -1.7235 C   0  0  0  0  0  0  0  0  0  0  0  0
    8.0777    0.8523   -1.2139 C   0  0  0  0  0  0  0  0  0  0  0  0
    7.6390    1.4295   -0.0379 C   0  0  0  0  0  0  0  0  0  0  0  0
    6.5047    0.9908    0.5988 C   0  0  0  0  0  0  0  0  0  0  0  0
    4.7244   -1.0316    2.0499 N   0  0  0  0  0  0  0  0  0  0  0  0
    2.9813   -1.4122    2.5641 S   0  0  0  0  0  0  0  0  0  0  0  0
    0.2091   -1.6289   -0.0630 C   0  0  0  0  0  0  0  0  0  0  0  0
   -1.2025   -1.2947   -0.3612 C   0  0  0  0  0  0  0  0  0  0  0  0
   -3.8686   -1.2153   -0.9469 H   0  0  0  0  0  0  0  0  0  0  0  0
   -5.1751    1.2227   -2.4872 H   0  0  0  0  0  0  0  0  0  0  0  0
   -7.4897    2.1417   -2.4476 H   0  0  0  0  0  0  0  0  0  0  0  0
   -9.0017    1.7212   -0.5666 H   0  0  0  0  0  0  0  0  0  0  0  0
   -8.2238    0.3806    1.2953 H   0  0  0  0  0  0  0  0  0  0  0  0
   -5.9153   -0.5587    1.3123 H   0  0  0  0  0  0  0  0  0  0  0  0
   -0.2218    1.5048    0.2331 H   0  0  0  0  0  0  0  0  0  0  0  0
   -1.3853    1.4769    1.6292 H   0  0  0  0  0  0  0  0  0  0  0  0
    0.7269    0.6933    2.4239 H   0  0  0  0  0  0  0  0  0  0  0  0
   -0.5422   -0.5652    2.4630 H   0  0  0  0  0  0  0  0  0  0  0  0
    5.6371   -1.4382   -1.5223 H   0  0  0  0  0  0  0  0  0  0  0  0
    7.6598   -0.6631   -2.6613 H   0  0  0  0  0  0  0  0  0  0  0  0
    8.9637    1.1998   -1.7093 H   0  0  0  0  0  0  0  0  0  0  0  0
    8.2387    2.2411    0.3490 H   0  0  0  0  0  0  0  0  0  0  0  0
    6.1648    1.4446    1.5091 H   0  0  0  0  0  0  0  0  0  0  0  0
    0.3189   -2.7270    0.2436 H   0  0  0  0  0  0  0  0  0  0  0  0
    0.8139   -1.6003   -1.0227 H   0  0  0  0  0  0  0  0  0  0  0  0
   -1.3276   -1.2031   -1.4670 H   0  0  0  0  0  0  0  0  0  0  0  0
   -1.8671   -2.1491   -0.0748 H   0  0  0  0  0  0  0  0  0  0  0  0
  1  2  2  0
  2  3  1  0
  3  4  1  0
  4  5  2  0
  5  6  1  0
  6  7  2  0
  7  8  1  0
  8  9  2  0
  2 10  1  0
 10 11  1  0
 11 12  1  0
 12 13  1  0
 13 14  1  0
 14 15  2  0
 15 16  1  0
 16 17  1  0
 17 18  2  0
 18 19  1  0
 19 20  2  0
 20 21  1  0
 21 22  2  0
 16 23  2  0
 23 24  1  0
 13 25  1  0
 25 26  1  0
  9  4  1  0
 26 10  1  0
 24 14  1  0
 22 17  1  0
  3 27  1  0
  5 28  1  0
  6 29  1  0
  7 30  1  0
  8 31  1  0
  9 32  1  0
 11 33  1  0
 11 34  1  0
 12 35  1  0
 12 36  1  0
 18 37  1  0
 19 38  1  0
 20 39  1  0
 21 40  1  0
 22 41  1  0
 25 42  1  0
 25 43  1  0
 26 44  1  0
 26 45  1  0
M  END
$$$$
