@<TRIPOS>MOLECULE
*****
 25 27 0 0 0
SMALL
GASTEIGER

@<TRIPOS>ATOM
      1 O           4.6842    0.9092   -1.5060 O.2     1  UNL1       -0.2622
      2 C           4.4171    0.2865   -0.4777 C.2     1  UNL1        0.2832
      3 N           4.6916   -0.4262    0.7111 N.am    1  UNL1       -0.2425
      4 C           3.5903   -0.8818    1.4775 C.2     1  UNL1        0.2577
      5 O           3.8799   -1.5137    2.5290 O.2     1  UNL1       -0.2692
      6 C           2.2916   -0.5339    0.9064 C.2     1  UNL1        0.0795
      7 S           2.6291    0.3618   -0.6334 S.3     1  UNL1       -0.0260
      8 C           1.1242   -0.8475    1.4310 C.2     1  UNL1       -0.0356
      9 C          -0.0814   -0.4139    0.7201 C.ar    1  UNL1       -0.0217
     10 C          -1.2116   -1.1698    0.4678 C.ar    1  UNL1       -0.0270
     11 C          -2.2679   -0.5790   -0.2328 C.ar    1  UNL1        0.0897
     12 C          -2.2211    0.7261   -0.6796 C.ar    1  UNL1        0.0892
     13 C          -1.0939    1.4988   -0.4341 C.ar    1  UNL1       -0.0337
     14 C          -0.0490    0.8984    0.2665 C.ar    1  UNL1       -0.0524
     15 N          -3.2398    1.2590   -1.3487 N.ar    1  UNL1       -0.2519
     16 C          -4.3494    0.5208   -1.6031 C.ar    1  UNL1        0.0464
     17 C          -4.3670   -0.7770   -1.1444 C.ar    1  UNL1        0.0464
     18 N          -3.3542   -1.3301   -0.4715 N.ar    1  UNL1       -0.2519
     19 H           5.7319   -0.4698    0.7795 H       1  UNL1        0.1587
     20 H           1.1254   -1.4228    2.3671 H       1  UNL1        0.0636
     21 H          -1.1999   -2.1814    0.8386 H       1  UNL1        0.0645
     22 H          -1.0883    2.5136   -0.7992 H       1  UNL1        0.0640
     23 H           0.7686    1.6202    0.4005 H       1  UNL1        0.0624
     24 H          -5.0995    1.0673   -2.1532 H       1  UNL1        0.0845
     25 H          -5.3108   -1.2767   -1.4112 H       1  UNL1        0.0845
@<TRIPOS>BOND
     1     1     2    2
     2     2     3   am
     3     3     4   am
     4     4     5    2
     5     4     6    1
     6     6     7    1
     7     6     8    2
     8     8     9    1
     9     9    10   ar
    10    10    11   ar
    11    11    12   ar
    12    12    13   ar
    13    13    14   ar
    14    12    15   ar
    15    15    16   ar
    16    16    17   ar
    17    17    18   ar
    18     7     2    1
    19    14     9   ar
    20    18    11   ar
    21     3    19    1
    22     8    20    1
    23    10    21    1
    24    13    22    1
    25    14    23    1
    26    16    24    1
    27    17    25    1
