@<TRIPOS>MOLECULE
*****
 39 39 0 0 0
SMALL
GASTEIGER

@<TRIPOS>ATOM
      1 O           1.0817   -2.7921    0.0681 O.3     1  UNL1       -0.3865
      2 C           1.0660   -1.4971    0.6200 C.3     1  UNL1        0.1127
      3 C          -0.2594   -1.2752    1.2491 C.3     1  UNL1        0.1127
      4 O          -0.7307   -2.5066    1.7166 O.3     1  UNL1       -0.3865
      5 C          -1.2834   -0.5730    0.4015 C.3     1  UNL1        0.1274
      6 O          -2.3117   -0.1142    1.2202 O.3     1  UNL1       -0.2781
      7 P          -3.8104   -0.7614    0.8804 P.3     1  UNL1        0.4728
      8 O          -4.0193   -2.2880    1.6185 O.3     1  UNL1       -0.3026
      9 O          -4.2076   -0.7901   -0.7476 O.3     1  UNL1       -0.3026
     10 O          -4.8495    0.1395    1.5547 O.2     1  UNL1       -0.2275
     11 C          -0.6168    0.6439   -0.1653 C.3     1  UNL1        0.1275
     12 O          -1.4640    1.6040   -0.6327 O.3     1  UNL1       -0.2781
     13 P          -1.4161    3.1005    0.0468 P.3     1  UNL1        0.4728
     14 O          -0.1554    3.1461    1.1846 O.3     1  UNL1       -0.3026
     15 O          -1.3010    4.3850   -1.0046 O.3     1  UNL1       -0.3026
     16 O          -2.7103    3.2803    0.8397 O.2     1  UNL1       -0.2275
     17 C           0.3758    0.1338   -1.1777 C.3     1  UNL1        0.1135
     18 O           0.8871    1.2393   -1.8570 O.3     1  UNL1       -0.3864
     19 C           1.4926   -0.5021   -0.3991 C.3     1  UNL1        0.1266
     20 O           2.3304   -1.1377   -1.3151 O.3     1  UNL1       -0.2781
     21 P           3.8618   -0.4397   -1.3784 P.3     1  UNL1        0.4728
     22 O           3.8733    0.7351   -2.6186 O.3     1  UNL1       -0.3026
     23 O           4.2843    0.2878    0.0632 O.3     1  UNL1       -0.3026
     24 O           4.9164   -1.4486   -1.7726 O.2     1  UNL1       -0.2275
     25 H           1.8158   -2.9307   -0.5713 H       1  UNL1        0.2100
     26 H           1.8313   -1.5107    1.4266 H       1  UNL1        0.0647
     27 H          -0.1414   -0.6519    2.1743 H       1  UNL1        0.0647
     28 H          -0.9790   -3.0334    0.9077 H       1  UNL1        0.2100
     29 H          -1.6413   -1.3005   -0.3474 H       1  UNL1        0.0656
     30 H          -3.5373   -2.9905    1.1185 H       1  UNL1        0.2220
     31 H          -4.1067   -1.7327   -1.0495 H       1  UNL1        0.2220
     32 H          -0.0137    1.1044    0.6489 H       1  UNL1        0.0656
     33 H          -0.4398    2.7627    2.0379 H       1  UNL1        0.2220
     34 H          -0.4439    4.8389   -1.0210 H       1  UNL1        0.2220
     35 H          -0.0345   -0.6102   -1.8597 H       1  UNL1        0.0647
     36 H           1.3256    1.8106   -1.2011 H       1  UNL1        0.2100
     37 H           2.0994    0.3223    0.0501 H       1  UNL1        0.0655
     38 H           4.2267    1.5844   -2.2691 H       1  UNL1        0.2220
     39 H           5.0052   -0.2320    0.4929 H       1  UNL1        0.2220
@<TRIPOS>BOND
     1     1     2    1
     2     2     3    1
     3     3     4    1
     4     3     5    1
     5     5     6    1
     6     6     7    1
     7     7     8    1
     8     7     9    1
     9     7    10    2
    10     5    11    1
    11    11    12    1
    12    12    13    1
    13    13    14    1
    14    13    15    1
    15    13    16    2
    16    11    17    1
    17    17    18    1
    18    17    19    1
    19    19    20    1
    20    20    21    1
    21    21    22    1
    22    21    23    1
    23    21    24    2
    24    19     2    1
    25     1    25    1
    26     2    26    1
    27     3    27    1
    28     4    28    1
    29     5    29    1
    30     8    30    1
    31     9    31    1
    32    11    32    1
    33    14    33    1
    34    15    34    1
    35    17    35    1
    36    18    36    1
    37    19    37    1
    38    22    38    1
    39    23    39    1
