
     RDKit          3D

 39 39  0  0  0  0  0  0  0  0999 V2000
    1.0817   -2.7921    0.0681 O   0  0  0  0  0  0  0  0  0  0  0  0
    1.0660   -1.4971    0.6200 C   0  0  2  0  0  0  0  0  0  0  0  0
   -0.2594   -1.2752    1.2491 C   0  0  2  0  0  0  0  0  0  0  0  0
   -0.7307   -2.5066    1.7166 O   0  0  0  0  0  0  0  0  0  0  0  0
   -1.2834   -0.5730    0.4015 C   0  0  1  0  0  0  0  0  0  0  0  0
   -2.3117   -0.1142    1.2202 O   0  0  0  0  0  0  0  0  0  0  0  0
   -3.8104   -0.7614    0.8804 P   0  0  0  0  0  0  0  0  0  0  0  0
   -4.0193   -2.2880    1.6185 O   0  0  0  0  0  0  0  0  0  0  0  0
   -4.2076   -0.7901   -0.7476 O   0  0  0  0  0  0  0  0  0  0  0  0
   -4.8495    0.1395    1.5547 O   0  0  0  0  0  0  0  0  0  0  0  0
   -0.6168    0.6439   -0.1653 C   0  0  2  0  0  0  0  0  0  0  0  0
   -1.4640    1.6040   -0.6327 O   0  0  0  0  0  0  0  0  0  0  0  0
   -1.4161    3.1005    0.0468 P   0  0  0  0  0  0  0  0  0  0  0  0
   -0.1554    3.1461    1.1846 O   0  0  0  0  0  0  0  0  0  0  0  0
   -1.3010    4.3850   -1.0046 O   0  0  0  0  0  0  0  0  0  0  0  0
   -2.7103    3.2803    0.8397 O   0  0  0  0  0  0  0  0  0  0  0  0
    0.3758    0.1338   -1.1777 C   0  0  1  0  0  0  0  0  0  0  0  0
    0.8871    1.2393   -1.8570 O   0  0  0  0  0  0  0  0  0  0  0  0
    1.4926   -0.5021   -0.3991 C   0  0  2  0  0  0  0  0  0  0  0  0
    2.3304   -1.1377   -1.3151 O   0  0  0  0  0  0  0  0  0  0  0  0
    3.8618   -0.4397   -1.3784 P   0  0  0  0  0  0  0  0  0  0  0  0
    3.8733    0.7351   -2.6186 O   0  0  0  0  0  0  0  0  0  0  0  0
    4.2843    0.2878    0.0632 O   0  0  0  0  0  0  0  0  0  0  0  0
    4.9164   -1.4486   -1.7726 O   0  0  0  0  0  0  0  0  0  0  0  0
    1.8158   -2.9307   -0.5713 H   0  0  0  0  0  0  0  0  0  0  0  0
    1.8313   -1.5107    1.4266 H   0  0  0  0  0  0  0  0  0  0  0  0
   -0.1414   -0.6519    2.1743 H   0  0  0  0  0  0  0  0  0  0  0  0
   -0.9790   -3.0334    0.9077 H   0  0  0  0  0  0  0  0  0  0  0  0
   -1.6413   -1.3005   -0.3474 H   0  0  0  0  0  0  0  0  0  0  0  0
   -3.5373   -2.9905    1.1185 H   0  0  0  0  0  0  0  0  0  0  0  0
   -4.1067   -1.7327   -1.0495 H   0  0  0  0  0  0  0  0  0  0  0  0
   -0.0137    1.1044    0.6489 H   0  0  0  0  0  0  0  0  0  0  0  0
   -0.4398    2.7627    2.0379 H   0  0  0  0  0  0  0  0  0  0  0  0
   -0.4439    4.8389   -1.0210 H   0  0  0  0  0  0  0  0  0  0  0  0
   -0.0345   -0.6102   -1.8597 H   0  0  0  0  0  0  0  0  0  0  0  0
    1.3256    1.8106   -1.2011 H   0  0  0  0  0  0  0  0  0  0  0  0
    2.0994    0.3223    0.0501 H   0  0  0  0  0  0  0  0  0  0  0  0
    4.2267    1.5844   -2.2691 H   0  0  0  0  0  0  0  0  0  0  0  0
    5.0052   -0.2320    0.4929 H   0  0  0  0  0  0  0  0  0  0  0  0
  1  2  1  0
  2  3  1  0
  3  4  1  0
  3  5  1  0
  5  6  1  0
  6  7  1  0
  7  8  1  0
  7  9  1  0
  7 10  2  0
  5 11  1  0
 11 12  1  0
 12 13  1  0
 13 14  1  0
 13 15  1  0
 13 16  2  0
 11 17  1  0
 17 18  1  0
 17 19  1  0
 19 20  1  0
 20 21  1  0
 21 22  1  0
 21 23  1  0
 21 24  2  0
 19  2  1  0
  1 25  1  0
  2 26  1  1
  3 27  1  1
  4 28  1  0
  5 29  1  6
  8 30  1  0
  9 31  1  0
 11 32  1  1
 14 33  1  0
 15 34  1  0
 17 35  1  6
 18 36  1  0
 19 37  1  1
 22 38  1  0
 23 39  1  0
M  END
$$$$
