@<TRIPOS>MOLECULE
*****
 30 31 0 0 0
SMALL
GASTEIGER

@<TRIPOS>ATOM
      1 O          -0.7710    1.9097   -0.9897 O.2     1  UNL1       -0.2451
      2 C          -1.6150    1.0462   -1.2895 C.2     1  UNL1        0.3386
      3 O          -2.1262    1.1395   -2.6002 O.3     1  UNL1       -0.4771
      4 C          -2.0847   -0.0145   -0.3938 C.ar    1  UNL1        0.0799
      5 C          -3.1053   -0.8687   -0.8265 C.ar    1  UNL1       -0.0460
      6 C          -3.6127   -1.8350   -0.0062 C.ar    1  UNL1       -0.0609
      7 C          -3.0956   -1.9538    1.2680 C.ar    1  UNL1       -0.0600
      8 C          -2.0947   -1.1167    1.6909 C.ar    1  UNL1       -0.0397
      9 C          -1.5594   -0.1174    0.8604 C.ar    1  UNL1        0.0454
     10 N          -0.5416    0.6983    1.3637 N.pl3   1  UNL1       -0.3138
     11 C           0.7901    0.7608    0.8961 C.ar    1  UNL1        0.0319
     12 C           1.6233    1.7996    1.2840 C.ar    1  UNL1       -0.0405
     13 C           2.9333    1.8935    0.8719 C.ar    1  UNL1       -0.0595
     14 C           3.4758    0.9384    0.0412 C.ar    1  UNL1       -0.0500
     15 C           2.6443   -0.1128   -0.3556 C.ar    1  UNL1        0.0566
     16 C           3.2730   -1.1265   -1.2563 C.3     1  UNL1        0.4175
     17 F           2.3222   -1.8190   -1.9762 F       1  UNL1       -0.1659
     18 F           4.0775   -1.9808   -0.5277 F       1  UNL1       -0.1659
     19 F           4.0189   -0.4076   -2.1816 F       1  UNL1       -0.1659
     20 C           1.3509   -0.1981    0.0563 C.ar    1  UNL1       -0.0289
     21 H          -1.9820    2.0007   -3.1496 H       1  UNL1        0.2954
     22 H          -3.5030   -0.7675   -1.8255 H       1  UNL1        0.0626
     23 H          -4.4199   -2.5152   -0.3399 H       1  UNL1        0.0618
     24 H          -3.5106   -2.7356    1.9253 H       1  UNL1        0.0618
     25 H          -1.7128   -1.2365    2.6932 H       1  UNL1        0.0636
     26 H          -0.8010    1.3310    2.1792 H       1  UNL1        0.1522
     27 H           1.2164    2.5761    1.9470 H       1  UNL1        0.0636
     28 H           3.5786    2.7020    1.1749 H       1  UNL1        0.0618
     29 H           4.5023    1.0135   -0.2807 H       1  UNL1        0.0623
     30 H           0.7286   -1.0034   -0.2530 H       1  UNL1        0.0642
@<TRIPOS>BOND
     1     1     2    2
     2     2     3    1
     3     2     4    1
     4     4     5   ar
     5     5     6   ar
     6     6     7   ar
     7     7     8   ar
     8     8     9   ar
     9     9    10    1
    10    10    11    1
    11    11    12   ar
    12    12    13   ar
    13    13    14   ar
    14    14    15   ar
    15    15    16    1
    16    16    17    1
    17    16    18    1
    18    16    19    1
    19    15    20   ar
    20     9     4   ar
    21    20    11   ar
    22     3    21    1
    23     5    22    1
    24     6    23    1
    25     7    24    1
    26     8    25    1
    27    10    26    1
    28    12    27    1
    29    13    28    1
    30    14    29    1
    31    20    30    1
