
     RDKit          3D

 30 31  0  0  0  0  0  0  0  0999 V2000
   -0.7710    1.9097   -0.9897 O   0  0  0  0  0  0  0  0  0  0  0  0
   -1.6150    1.0462   -1.2895 C   0  0  0  0  0  0  0  0  0  0  0  0
   -2.1262    1.1395   -2.6002 O   0  0  0  0  0  0  0  0  0  0  0  0
   -2.0847   -0.0145   -0.3938 C   0  0  0  0  0  0  0  0  0  0  0  0
   -3.1053   -0.8687   -0.8265 C   0  0  0  0  0  0  0  0  0  0  0  0
   -3.6127   -1.8350   -0.0062 C   0  0  0  0  0  0  0  0  0  0  0  0
   -3.0956   -1.9538    1.2680 C   0  0  0  0  0  0  0  0  0  0  0  0
   -2.0947   -1.1167    1.6909 C   0  0  0  0  0  0  0  0  0  0  0  0
   -1.5594   -0.1174    0.8604 C   0  0  0  0  0  0  0  0  0  0  0  0
   -0.5416    0.6983    1.3637 N   0  0  0  0  0  0  0  0  0  0  0  0
    0.7901    0.7608    0.8961 C   0  0  0  0  0  0  0  0  0  0  0  0
    1.6233    1.7996    1.2840 C   0  0  0  0  0  0  0  0  0  0  0  0
    2.9333    1.8935    0.8719 C   0  0  0  0  0  0  0  0  0  0  0  0
    3.4758    0.9384    0.0412 C   0  0  0  0  0  0  0  0  0  0  0  0
    2.6443   -0.1128   -0.3556 C   0  0  0  0  0  0  0  0  0  0  0  0
    3.2730   -1.1265   -1.2563 C   0  0  0  0  0  0  0  0  0  0  0  0
    2.3222   -1.8190   -1.9762 F   0  0  0  0  0  0  0  0  0  0  0  0
    4.0775   -1.9808   -0.5277 F   0  0  0  0  0  0  0  0  0  0  0  0
    4.0189   -0.4076   -2.1816 F   0  0  0  0  0  0  0  0  0  0  0  0
    1.3509   -0.1981    0.0563 C   0  0  0  0  0  0  0  0  0  0  0  0
   -1.9820    2.0007   -3.1496 H   0  0  0  0  0  0  0  0  0  0  0  0
   -3.5030   -0.7675   -1.8255 H   0  0  0  0  0  0  0  0  0  0  0  0
   -4.4199   -2.5152   -0.3399 H   0  0  0  0  0  0  0  0  0  0  0  0
   -3.5106   -2.7356    1.9253 H   0  0  0  0  0  0  0  0  0  0  0  0
   -1.7128   -1.2365    2.6932 H   0  0  0  0  0  0  0  0  0  0  0  0
   -0.8010    1.3310    2.1792 H   0  0  0  0  0  0  0  0  0  0  0  0
    1.2164    2.5761    1.9470 H   0  0  0  0  0  0  0  0  0  0  0  0
    3.5786    2.7020    1.1749 H   0  0  0  0  0  0  0  0  0  0  0  0
    4.5023    1.0135   -0.2807 H   0  0  0  0  0  0  0  0  0  0  0  0
    0.7286   -1.0034   -0.2530 H   0  0  0  0  0  0  0  0  0  0  0  0
  1  2  2  0
  2  3  1  0
  2  4  1  0
  4  5  2  0
  5  6  1  0
  6  7  2  0
  7  8  1  0
  8  9  2  0
  9 10  1  0
 10 11  1  0
 11 12  2  0
 12 13  1  0
 13 14  2  0
 14 15  1  0
 15 16  1  0
 16 17  1  0
 16 18  1  0
 16 19  1  0
 15 20  2  0
  9  4  1  0
 20 11  1  0
  3 21  1  0
  5 22  1  0
  6 23  1  0
  7 24  1  0
  8 25  1  0
 10 26  1  0
 12 27  1  0
 13 28  1  0
 14 29  1  0
 20 30  1  0
M  END
$$$$
