@<TRIPOS>MOLECULE
*****
 45 47 0 0 0
SMALL
GASTEIGER

@<TRIPOS>ATOM
      1 C           8.2217   -0.2837   -1.3875 C.3     1  UNL1        0.0125
      2 C           6.8277    0.1432   -1.0952 C.2     1  UNL1        0.2141
      3 O           6.3279    1.1177   -1.6979 O.2     1  UNL1       -0.2758
      4 N           6.0381   -0.5434   -0.1302 N.am    1  UNL1       -0.2857
      5 C           4.7073   -0.1830    0.1894 C.ar    1  UNL1        0.0334
      6 C           4.4254    0.7124    1.1790 C.ar    1  UNL1       -0.0398
      7 C           3.0993    1.0475    1.4703 C.ar    1  UNL1       -0.0502
      8 C           2.0740    0.4781    0.7628 C.ar    1  UNL1        0.0091
      9 C           0.6626    0.8597    1.1009 C.ar    1  UNL1        0.1318
     10 N           0.0099    1.5094    1.7900 N.ar    1  UNL1       -0.1620
     11 N          -1.2699    1.6451    1.8597 N.ar    1  UNL1       -0.2435
     12 C          -1.9331    2.5381    2.8196 C.3     1  UNL1        0.0329
     13 C          -1.9819    0.9215    0.9990 C.ar    1  UNL1        0.1869
     14 N          -3.2012    0.7732    0.7530 N.2     1  UNL1       -0.2564
     15 C          -3.6145   -0.1349   -0.2960 C.3     1  UNL1        0.0536
     16 C          -4.9728    0.3462   -0.7814 C.3     1  UNL1       -0.0305
     17 C          -5.7624   -0.7573   -1.4347 C.3     1  UNL1       -0.0511
     18 C          -4.8249   -1.8276   -1.9468 C.3     1  UNL1       -0.0529
     19 C          -4.2460   -2.5181   -0.7112 C.3     1  UNL1       -0.0511
     20 C          -3.7651   -1.5090    0.2990 C.3     1  UNL1       -0.0305
     21 S          -0.7062    0.0350    0.0838 S.2     1  UNL1       -0.0286
     22 C           2.3706   -0.4198   -0.2286 C.ar    1  UNL1       -0.0502
     23 C           3.6936   -0.7587   -0.5244 C.ar    1  UNL1       -0.0398
     24 H           8.5713    0.2003   -2.3223 H       1  UNL1        0.0323
     25 H           8.1881   -1.3763   -1.5878 H       1  UNL1        0.0323
     26 H           8.9046   -0.1175   -0.5449 H       1  UNL1        0.0323
     27 H           6.5234   -1.3615    0.3447 H       1  UNL1        0.1548
     28 H           5.2249    1.1593    1.7338 H       1  UNL1        0.0636
     29 H           2.8355    1.7425    2.2355 H       1  UNL1        0.0625
     30 H          -2.2191    3.4449    2.2131 H       1  UNL1        0.0473
     31 H          -2.8923    2.0522    3.1554 H       1  UNL1        0.0473
     32 H          -1.3290    2.7829    3.6885 H       1  UNL1        0.0473
     33 H          -2.9035   -0.1653   -1.1436 H       1  UNL1        0.0545
     34 H          -4.8705    1.2035   -1.4720 H       1  UNL1        0.0286
     35 H          -5.5710    0.6777    0.1088 H       1  UNL1        0.0286
     36 H          -6.4653   -1.2620   -0.7370 H       1  UNL1        0.0266
     37 H          -6.3865   -0.3137   -2.2338 H       1  UNL1        0.0266
     38 H          -4.0267   -1.3356   -2.5052 H       1  UNL1        0.0265
     39 H          -5.3824   -2.5904   -2.5103 H       1  UNL1        0.0265
     40 H          -5.0830   -3.0835   -0.2515 H       1  UNL1        0.0266
     41 H          -3.4785   -3.2627   -0.9886 H       1  UNL1        0.0266
     42 H          -4.4746   -1.4228    1.1489 H       1  UNL1        0.0286
     43 H          -2.8012   -1.8551    0.6926 H       1  UNL1        0.0286
     44 H           1.5755   -0.8680   -0.7848 H       1  UNL1        0.0625
     45 H           3.8802   -1.4692   -1.3122 H       1  UNL1        0.0636
@<TRIPOS>BOND
     1     1     2    1
     2     2     3    2
     3     2     4   am
     4     4     5    1
     5     5     6   ar
     6     6     7   ar
     7     7     8   ar
     8     8     9    1
     9     9    10   ar
    10    10    11   ar
    11    11    12    1
    12    11    13   ar
    13    13    14    2
    14    14    15    1
    15    15    16    1
    16    16    17    1
    17    17    18    1
    18    18    19    1
    19    19    20    1
    20    13    21   ar
    21     8    22   ar
    22    22    23   ar
    23    23     5   ar
    24    21     9   ar
    25    20    15    1
    26     1    24    1
    27     1    25    1
    28     1    26    1
    29     4    27    1
    30     6    28    1
    31     7    29    1
    32    12    30    1
    33    12    31    1
    34    12    32    1
    35    15    33    1
    36    16    34    1
    37    16    35    1
    38    17    36    1
    39    17    37    1
    40    18    38    1
    41    18    39    1
    42    19    40    1
    43    19    41    1
    44    20    42    1
    45    20    43    1
    46    22    44    1
    47    23    45    1
