
     RDKit          3D

 45 47  0  0  0  0  0  0  0  0999 V2000
    8.2217   -0.2837   -1.3875 C   0  0  0  0  0  0  0  0  0  0  0  0
    6.8277    0.1432   -1.0952 C   0  0  0  0  0  0  0  0  0  0  0  0
    6.3279    1.1177   -1.6979 O   0  0  0  0  0  0  0  0  0  0  0  0
    6.0381   -0.5434   -0.1302 N   0  0  0  0  0  0  0  0  0  0  0  0
    4.7073   -0.1830    0.1894 C   0  0  0  0  0  0  0  0  0  0  0  0
    4.4254    0.7124    1.1790 C   0  0  0  0  0  0  0  0  0  0  0  0
    3.0993    1.0475    1.4703 C   0  0  0  0  0  0  0  0  0  0  0  0
    2.0740    0.4781    0.7628 C   0  0  0  0  0  0  0  0  0  0  0  0
    0.6626    0.8597    1.1009 C   0  0  0  0  0  0  0  0  0  0  0  0
    0.0099    1.5094    1.7900 N   0  0  0  0  0  0  0  0  0  0  0  0
   -1.2699    1.6451    1.8597 N   0  0  0  0  0  0  0  0  0  0  0  0
   -1.9331    2.5381    2.8196 C   0  0  0  0  0  0  0  0  0  0  0  0
   -1.9819    0.9215    0.9990 C   0  0  0  0  0  0  0  0  0  0  0  0
   -3.2012    0.7732    0.7530 N   0  0  0  0  0  0  0  0  0  0  0  0
   -3.6145   -0.1349   -0.2960 C   0  0  0  0  0  0  0  0  0  0  0  0
   -4.9728    0.3462   -0.7814 C   0  0  0  0  0  0  0  0  0  0  0  0
   -5.7624   -0.7573   -1.4347 C   0  0  0  0  0  0  0  0  0  0  0  0
   -4.8249   -1.8276   -1.9468 C   0  0  0  0  0  0  0  0  0  0  0  0
   -4.2460   -2.5181   -0.7112 C   0  0  0  0  0  0  0  0  0  0  0  0
   -3.7651   -1.5090    0.2990 C   0  0  0  0  0  0  0  0  0  0  0  0
   -0.7062    0.0350    0.0838 S   0  0  0  0  0  0  0  0  0  0  0  0
    2.3706   -0.4198   -0.2286 C   0  0  0  0  0  0  0  0  0  0  0  0
    3.6936   -0.7587   -0.5244 C   0  0  0  0  0  0  0  0  0  0  0  0
    8.5713    0.2003   -2.3223 H   0  0  0  0  0  0  0  0  0  0  0  0
    8.1881   -1.3763   -1.5878 H   0  0  0  0  0  0  0  0  0  0  0  0
    8.9046   -0.1175   -0.5449 H   0  0  0  0  0  0  0  0  0  0  0  0
    6.5234   -1.3615    0.3447 H   0  0  0  0  0  0  0  0  0  0  0  0
    5.2249    1.1593    1.7338 H   0  0  0  0  0  0  0  0  0  0  0  0
    2.8355    1.7425    2.2355 H   0  0  0  0  0  0  0  0  0  0  0  0
   -2.2191    3.4449    2.2131 H   0  0  0  0  0  0  0  0  0  0  0  0
   -2.8923    2.0522    3.1554 H   0  0  0  0  0  0  0  0  0  0  0  0
   -1.3290    2.7829    3.6885 H   0  0  0  0  0  0  0  0  0  0  0  0
   -2.9035   -0.1653   -1.1436 H   0  0  0  0  0  0  0  0  0  0  0  0
   -4.8705    1.2035   -1.4720 H   0  0  0  0  0  0  0  0  0  0  0  0
   -5.5710    0.6777    0.1088 H   0  0  0  0  0  0  0  0  0  0  0  0
   -6.4653   -1.2620   -0.7370 H   0  0  0  0  0  0  0  0  0  0  0  0
   -6.3865   -0.3137   -2.2338 H   0  0  0  0  0  0  0  0  0  0  0  0
   -4.0267   -1.3356   -2.5052 H   0  0  0  0  0  0  0  0  0  0  0  0
   -5.3824   -2.5904   -2.5103 H   0  0  0  0  0  0  0  0  0  0  0  0
   -5.0830   -3.0835   -0.2515 H   0  0  0  0  0  0  0  0  0  0  0  0
   -3.4785   -3.2627   -0.9886 H   0  0  0  0  0  0  0  0  0  0  0  0
   -4.4746   -1.4228    1.1489 H   0  0  0  0  0  0  0  0  0  0  0  0
   -2.8012   -1.8551    0.6926 H   0  0  0  0  0  0  0  0  0  0  0  0
    1.5755   -0.8680   -0.7848 H   0  0  0  0  0  0  0  0  0  0  0  0
    3.8802   -1.4692   -1.3122 H   0  0  0  0  0  0  0  0  0  0  0  0
  1  2  1  0
  2  3  2  0
  2  4  1  0
  4  5  1  0
  5  6  2  0
  6  7  1  0
  7  8  2  0
  8  9  1  0
  9 10  2  0
 10 11  1  0
 11 12  1  0
 11 13  1  0
 13 14  2  0
 14 15  1  0
 15 16  1  0
 16 17  1  0
 17 18  1  0
 18 19  1  0
 19 20  1  0
 13 21  1  0
  8 22  1  0
 22 23  2  0
 23  5  1  0
 21  9  1  0
 20 15  1  0
  1 24  1  0
  1 25  1  0
  1 26  1  0
  4 27  1  0
  6 28  1  0
  7 29  1  0
 12 30  1  0
 12 31  1  0
 12 32  1  0
 15 33  1  0
 16 34  1  0
 16 35  1  0
 17 36  1  0
 17 37  1  0
 18 38  1  0
 18 39  1  0
 19 40  1  0
 19 41  1  0
 20 42  1  0
 20 43  1  0
 22 44  1  0
 23 45  1  0
M  END
$$$$
