
     RDKit          3D

 76 83  0  0  0  0  0  0  0  0999 V2000
    8.1579    6.2500   -1.3464 C   0  0  0  0  0  0  0  0  0  0  0  0
    8.1686    5.0009   -0.6407 N   0  0  0  0  0  0  0  0  0  0  0  0
    8.8832    4.7289    0.4279 N   0  0  0  0  0  0  0  0  0  0  0  0
    8.6321    3.4903    0.7918 N   0  0  0  0  0  0  0  0  0  0  0  0
    7.7439    2.9451   -0.0468 C   0  0  0  0  0  0  0  0  0  0  0  0
    7.2072    1.5968    0.0126 C   0  0  0  0  0  0  0  0  0  0  0  0
    8.0172    0.4863   -0.0464 C   0  0  0  0  0  0  0  0  0  0  0  0
    7.4389   -0.7599    0.0174 C   0  0  0  0  0  0  0  0  0  0  0  0
    6.0643   -0.9078    0.1392 C   0  0  0  0  0  0  0  0  0  0  0  0
    5.5029   -2.1504    0.2015 N   0  0  0  0  0  0  0  0  0  0  0  0
    4.1781   -2.3410    0.3190 C   0  0  0  0  0  0  0  0  0  0  0  0
    3.5901   -3.6811    0.3872 C   0  0  0  0  0  0  0  0  0  0  0  0
    2.8962   -4.1434    1.4855 C   0  0  0  0  0  0  0  0  0  0  0  0
    2.3529   -5.4121    1.5164 C   0  0  0  0  0  0  0  0  0  0  0  0
    2.4829   -6.2767    0.4410 C   0  0  0  0  0  0  0  0  0  0  0  0
    3.1754   -5.8189   -0.6584 C   0  0  0  0  0  0  0  0  0  0  0  0
    3.7166   -4.5439   -0.6791 C   0  0  0  0  0  0  0  0  0  0  0  0
    3.3828   -1.2077    0.3760 C   0  0  0  0  0  0  0  0  0  0  0  0
    1.9304   -1.3773    0.5013 C   0  0  0  0  0  0  0  0  0  0  0  0
    1.2780   -0.8826    1.5970 C   0  0  0  0  0  0  0  0  0  0  0  0
   -0.0770   -1.0439    1.7141 C   0  0  0  0  0  0  0  0  0  0  0  0
   -0.7938   -1.6987    0.7414 C   0  0  0  0  0  0  0  0  0  0  0  0
   -2.2516   -1.8458    0.9042 C   0  0  0  0  0  0  0  0  0  0  0  0
   -2.9367   -0.7947    0.2595 N   0  0  0  0  0  0  0  0  0  0  0  0
   -2.7579    0.5207    0.6630 C   0  0  0  0  0  0  0  0  0  0  0  0
   -3.8962    1.4801    0.5334 C   0  0  0  0  0  0  0  0  0  0  0  0
   -5.1408    0.8444   -0.0344 C   0  0  0  0  0  0  0  0  0  0  0  0
   -6.1486    1.7559   -0.4579 N   0  0  0  0  0  0  0  0  0  0  0  0
   -6.0423    2.8512   -1.2317 C   0  0  0  0  0  0  0  0  0  0  0  0
   -4.9645    3.2909   -1.7531 O   0  0  0  0  0  0  0  0  0  0  0  0
   -7.2599    3.4215   -1.3762 N   0  0  0  0  0  0  0  0  0  0  0  0
   -8.1475    2.7056   -0.7046 C   0  0  0  0  0  0  0  0  0  0  0  0
   -9.5083    2.8501   -0.5282 C   0  0  0  0  0  0  0  0  0  0  0  0
  -10.1956    1.9378    0.2371 C   0  0  0  0  0  0  0  0  0  0  0  0
   -9.4970    0.8952    0.8112 C   0  0  0  0  0  0  0  0  0  0  0  0
   -8.1452    0.7283    0.6520 C   0  0  0  0  0  0  0  0  0  0  0  0
   -7.4724    1.6693   -0.1300 C   0  0  0  0  0  0  0  0  0  0  0  0
   -4.7925   -0.1109   -1.1569 C   0  0  0  0  0  0  0  0  0  0  0  0
   -4.0194   -1.2253   -0.5075 C   0  0  0  0  0  0  0  0  0  0  0  0
   -0.1532   -2.2127   -0.3859 C   0  0  0  0  0  0  0  0  0  0  0  0
    1.2067   -2.0316   -0.4681 C   0  0  0  0  0  0  0  0  0  0  0  0
    3.9106    0.0242    0.3168 N   0  0  0  0  0  0  0  0  0  0  0  0
    5.2575    0.2047    0.1976 C   0  0  0  0  0  0  0  0  0  0  0  0
    5.8262    1.4524    0.1348 C   0  0  0  0  0  0  0  0  0  0  0  0
    7.4555    3.9125   -0.9535 N   0  0  0  0  0  0  0  0  0  0  0  0
    8.2318    6.1326   -2.4450 H   0  0  0  0  0  0  0  0  0  0  0  0
    7.2090    6.8241   -1.1490 H   0  0  0  0  0  0  0  0  0  0  0  0
    8.9808    6.8979   -0.9955 H   0  0  0  0  0  0  0  0  0  0  0  0
    9.0964    0.6288   -0.1421 H   0  0  0  0  0  0  0  0  0  0  0  0
    8.0380   -1.6573   -0.0254 H   0  0  0  0  0  0  0  0  0  0  0  0
    2.7682   -3.5162    2.3399 H   0  0  0  0  0  0  0  0  0  0  0  0
    1.7989   -5.7908    2.3842 H   0  0  0  0  0  0  0  0  0  0  0  0
    2.0467   -7.2750    0.4850 H   0  0  0  0  0  0  0  0  0  0  0  0
    3.2827   -6.4768   -1.4964 H   0  0  0  0  0  0  0  0  0  0  0  0
    4.2678   -4.1696   -1.5447 H   0  0  0  0  0  0  0  0  0  0  0  0
    1.8306   -0.3602    2.3787 H   0  0  0  0  0  0  0  0  0  0  0  0
   -0.6243   -0.6582    2.5949 H   0  0  0  0  0  0  0  0  0  0  0  0
   -2.5269   -2.8346    0.4746 H   0  0  0  0  0  0  0  0  0  0  0  0
   -2.5345   -1.8162    1.9916 H   0  0  0  0  0  0  0  0  0  0  0  0
   -1.8233    0.9863    0.2129 H   0  0  0  0  0  0  0  0  0  0  0  0
   -2.4928    0.5099    1.7670 H   0  0  0  0  0  0  0  0  0  0  0  0
   -3.5931    2.2826   -0.1776 H   0  0  0  0  0  0  0  0  0  0  0  0
   -4.0857    1.9991    1.4886 H   0  0  0  0  0  0  0  0  0  0  0  0
   -5.5477    0.2013    0.7841 H   0  0  0  0  0  0  0  0  0  0  0  0
   -7.4057    4.2862   -1.9405 H   0  0  0  0  0  0  0  0  0  0  0  0
  -10.0646    3.6574   -0.9697 H   0  0  0  0  0  0  0  0  0  0  0  0
  -11.2655    1.9861    0.4203 H   0  0  0  0  0  0  0  0  0  0  0  0
  -10.0529    0.1707    1.4208 H   0  0  0  0  0  0  0  0  0  0  0  0
   -7.5895   -0.0769    1.0926 H   0  0  0  0  0  0  0  0  0  0  0  0
   -5.7473   -0.4688   -1.5869 H   0  0  0  0  0  0  0  0  0  0  0  0
   -4.1793    0.4645   -1.8947 H   0  0  0  0  0  0  0  0  0  0  0  0
   -3.6530   -1.8669   -1.3570 H   0  0  0  0  0  0  0  0  0  0  0  0
   -4.7535   -1.7874    0.1152 H   0  0  0  0  0  0  0  0  0  0  0  0
   -0.7454   -2.7243   -1.1352 H   0  0  0  0  0  0  0  0  0  0  0  0
    1.7216   -2.4284   -1.3442 H   0  0  0  0  0  0  0  0  0  0  0  0
    5.1574    2.3034    0.1842 H   0  0  0  0  0  0  0  0  0  0  0  0
  1  2  1  0
  2  3  1  0
  3  4  2  0
  4  5  1  0
  5  6  1  0
  6  7  2  0
  7  8  1  0
  8  9  2  0
  9 10  1  0
 10 11  2  0
 11 12  1  0
 12 13  2  0
 13 14  1  0
 14 15  2  0
 15 16  1  0
 16 17  2  0
 11 18  1  0
 18 19  1  0
 19 20  2  0
 20 21  1  0
 21 22  2  0
 22 23  1  0
 23 24  1  0
 24 25  1  0
 25 26  1  0
 26 27  1  0
 27 28  1  0
 28 29  1  0
 29 30  2  0
 29 31  1  0
 31 32  1  0
 32 33  2  0
 33 34  1  0
 34 35  2  0
 35 36  1  0
 36 37  2  0
 27 38  1  0
 38 39  1  0
 22 40  1  0
 40 41  2  0
 18 42  2  0
 42 43  1  0
 43 44  2  0
  5 45  2  0
 45  2  1  0
 44  6  1  0
 43  9  1  0
 17 12  1  0
 41 19  1  0
 39 24  1  0
 37 28  1  0
 37 32  1  0
  1 46  1  0
  1 47  1  0
  1 48  1  0
  7 49  1  0
  8 50  1  0
 13 51  1  0
 14 52  1  0
 15 53  1  0
 16 54  1  0
 17 55  1  0
 20 56  1  0
 21 57  1  0
 23 58  1  0
 23 59  1  0
 25 60  1  0
 25 61  1  0
 26 62  1  0
 26 63  1  0
 27 64  1  0
 31 65  1  0
 33 66  1  0
 34 67  1  0
 35 68  1  0
 36 69  1  0
 38 70  1  0
 38 71  1  0
 39 72  1  0
 39 73  1  0
 40 74  1  0
 41 75  1  0
 44 76  1  0
M  END
$$$$
