@<TRIPOS>MOLECULE
*****
 76 83 0 0 0
SMALL
GASTEIGER

@<TRIPOS>ATOM
      1 C           8.1579    6.2500   -1.3464 C.3     1  UNL1        0.0516
      2 N           8.1686    5.0009   -0.6407 N.ar    1  UNL1       -0.1659
      3 N           8.8832    4.7289    0.4279 N.ar    1  UNL1       -0.0460
      4 N           8.6321    3.4903    0.7918 N.ar    1  UNL1       -0.1078
      5 C           7.7439    2.9451   -0.0468 C.ar    1  UNL1        0.2046
      6 C           7.2072    1.5968    0.0126 C.ar    1  UNL1        0.0248
      7 C           8.0172    0.4863   -0.0464 C.ar    1  UNL1       -0.0488
      8 C           7.4389   -0.7599    0.0174 C.ar    1  UNL1       -0.0335
      9 C           6.0643   -0.9078    0.1392 C.ar    1  UNL1        0.0899
     10 N           5.5029   -2.1504    0.2015 N.ar    1  UNL1       -0.2430
     11 C           4.1781   -2.3410    0.3190 C.ar    1  UNL1        0.0976
     12 C           3.5901   -3.6811    0.3872 C.ar    1  UNL1        0.0025
     13 C           2.8962   -4.1434    1.4855 C.ar    1  UNL1       -0.0525
     14 C           2.3529   -5.4121    1.5164 C.ar    1  UNL1       -0.0611
     15 C           2.4829   -6.2767    0.4410 C.ar    1  UNL1       -0.0617
     16 C           3.1754   -5.8189   -0.6584 C.ar    1  UNL1       -0.0611
     17 C           3.7166   -4.5439   -0.6791 C.ar    1  UNL1       -0.0525
     18 C           3.3828   -1.2077    0.3760 C.ar    1  UNL1        0.0976
     19 C           1.9304   -1.3773    0.5013 C.ar    1  UNL1        0.0025
     20 C           1.2780   -0.8826    1.5970 C.ar    1  UNL1       -0.0522
     21 C          -0.0770   -1.0439    1.7141 C.ar    1  UNL1       -0.0567
     22 C          -0.7938   -1.6987    0.7414 C.ar    1  UNL1       -0.0333
     23 C          -2.2516   -1.8458    0.9042 C.3     1  UNL1        0.0240
     24 N          -2.9367   -0.7947    0.2595 N.3     1  UNL1       -0.2980
     25 C          -2.7579    0.5207    0.6630 C.3     1  UNL1        0.0011
     26 C          -3.8962    1.4801    0.5334 C.3     1  UNL1       -0.0191
     27 C          -5.1408    0.8444   -0.0344 C.3     1  UNL1        0.0417
     28 N          -6.1486    1.7559   -0.4579 N.ar    1  UNL1       -0.2891
     29 C          -6.0423    2.8512   -1.2317 C.ar    1  UNL1        0.3278
     30 O          -4.9645    3.2909   -1.7531 O.2     1  UNL1       -0.2465
     31 N          -7.2599    3.4215   -1.3762 N.ar    1  UNL1       -0.3059
     32 C          -8.1475    2.7056   -0.7046 C.ar    1  UNL1        0.0670
     33 C          -9.5083    2.8501   -0.5282 C.ar    1  UNL1       -0.0362
     34 C         -10.1956    1.9378    0.2371 C.ar    1  UNL1       -0.0597
     35 C          -9.4970    0.8952    0.8112 C.ar    1  UNL1       -0.0597
     36 C          -8.1452    0.7283    0.6520 C.ar    1  UNL1       -0.0360
     37 C          -7.4724    1.6693   -0.1300 C.ar    1  UNL1        0.0700
     38 C          -4.7925   -0.1109   -1.1569 C.3     1  UNL1       -0.0191
     39 C          -4.0194   -1.2253   -0.5075 C.3     1  UNL1        0.0011
     40 C          -0.1532   -2.2127   -0.3859 C.ar    1  UNL1       -0.0567
     41 C           1.2067   -2.0316   -0.4681 C.ar    1  UNL1       -0.0522
     42 N           3.9106    0.0242    0.3168 N.ar    1  UNL1       -0.2430
     43 C           5.2575    0.2047    0.1976 C.ar    1  UNL1        0.0906
     44 C           5.8262    1.4524    0.1348 C.ar    1  UNL1       -0.0234
     45 N           7.4555    3.9125   -0.9535 N.ar    1  UNL1       -0.1307
     46 H           8.2318    6.1326   -2.4450 H       1  UNL1        0.0491
     47 H           7.2090    6.8241   -1.1490 H       1  UNL1        0.0491
     48 H           8.9808    6.8979   -0.9955 H       1  UNL1        0.0491
     49 H           9.0964    0.6288   -0.1421 H       1  UNL1        0.0625
     50 H           8.0380   -1.6573   -0.0254 H       1  UNL1        0.0640
     51 H           2.7682   -3.5162    2.3399 H       1  UNL1        0.0624
     52 H           1.7989   -5.7908    2.3842 H       1  UNL1        0.0618
     53 H           2.0467   -7.2750    0.4850 H       1  UNL1        0.0618
     54 H           3.2827   -6.4768   -1.4964 H       1  UNL1        0.0618
     55 H           4.2678   -4.1696   -1.5447 H       1  UNL1        0.0624
     56 H           1.8306   -0.3602    2.3787 H       1  UNL1        0.0624
     57 H          -0.6243   -0.6582    2.5949 H       1  UNL1        0.0621
     58 H          -2.5269   -2.8346    0.4746 H       1  UNL1        0.0476
     59 H          -2.5345   -1.8162    1.9916 H       1  UNL1        0.0476
     60 H          -1.8233    0.9863    0.2129 H       1  UNL1        0.0427
     61 H          -2.4928    0.5099    1.7670 H       1  UNL1        0.0427
     62 H          -3.5931    2.2826   -0.1776 H       1  UNL1        0.0298
     63 H          -4.0857    1.9991    1.4886 H       1  UNL1        0.0298
     64 H          -5.5477    0.2013    0.7841 H       1  UNL1        0.0530
     65 H          -7.4057    4.2862   -1.9405 H       1  UNL1        0.1704
     66 H         -10.0646    3.6574   -0.9697 H       1  UNL1        0.0639
     67 H         -11.2655    1.9861    0.4203 H       1  UNL1        0.0618
     68 H         -10.0529    0.1707    1.4208 H       1  UNL1        0.0618
     69 H          -7.5895   -0.0769    1.0926 H       1  UNL1        0.0639
     70 H          -5.7473   -0.4688   -1.5869 H       1  UNL1        0.0298
     71 H          -4.1793    0.4645   -1.8947 H       1  UNL1        0.0298
     72 H          -3.6530   -1.8669   -1.3570 H       1  UNL1        0.0427
     73 H          -4.7535   -1.7874    0.1152 H       1  UNL1        0.0427
     74 H          -0.7454   -2.7243   -1.1352 H       1  UNL1        0.0621
     75 H           1.7216   -2.4284   -1.3442 H       1  UNL1        0.0624
     76 H           5.1574    2.3034    0.1842 H       1  UNL1        0.0646
@<TRIPOS>BOND
     1     1     2    1
     2     2     3   ar
     3     3     4   ar
     4     4     5   ar
     5     5     6    1
     6     6     7   ar
     7     7     8   ar
     8     8     9   ar
     9     9    10   ar
    10    10    11   ar
    11    11    12    1
    12    12    13   ar
    13    13    14   ar
    14    14    15   ar
    15    15    16   ar
    16    16    17   ar
    17    11    18   ar
    18    18    19    1
    19    19    20   ar
    20    20    21   ar
    21    21    22   ar
    22    22    23    1
    23    23    24    1
    24    24    25    1
    25    25    26    1
    26    26    27    1
    27    27    28    1
    28    28    29   ar
    29    29    30    2
    30    29    31   ar
    31    31    32   ar
    32    32    33   ar
    33    33    34   ar
    34    34    35   ar
    35    35    36   ar
    36    36    37   ar
    37    27    38    1
    38    38    39    1
    39    22    40   ar
    40    40    41   ar
    41    18    42   ar
    42    42    43   ar
    43    43    44   ar
    44     5    45   ar
    45    45     2   ar
    46    44     6   ar
    47    43     9   ar
    48    17    12   ar
    49    41    19   ar
    50    39    24    1
    51    37    28   ar
    52    37    32   ar
    53     1    46    1
    54     1    47    1
    55     1    48    1
    56     7    49    1
    57     8    50    1
    58    13    51    1
    59    14    52    1
    60    15    53    1
    61    16    54    1
    62    17    55    1
    63    20    56    1
    64    21    57    1
    65    23    58    1
    66    23    59    1
    67    25    60    1
    68    25    61    1
    69    26    62    1
    70    26    63    1
    71    27    64    1
    72    31    65    1
    73    33    66    1
    74    34    67    1
    75    35    68    1
    76    36    69    1
    77    38    70    1
    78    38    71    1
    79    39    72    1
    80    39    73    1
    81    40    74    1
    82    41    75    1
    83    44    76    1
