@<TRIPOS>MOLECULE
*****
 40 41 0 0 0
SMALL
GASTEIGER

@<TRIPOS>ATOM
      1 C          -2.4178   -3.8706   -0.2144 C.3     1  UNL1       -0.0158
      2 N          -2.8961   -2.5090   -0.3670 N.3     1  UNL1       -0.3188
      3 C          -1.7901   -1.6287   -0.0024 C.3     1  UNL1       -0.0007
      4 C          -2.2002   -0.1676   -0.1324 C.3     1  UNL1        0.0010
      5 C          -0.9856    0.6380    0.2677 C.3     1  UNL1        0.1263
      6 O           0.0522    0.2784   -0.6099 O.3     1  UNL1       -0.4842
      7 C           1.2775   -0.2224   -0.3205 C.ar    1  UNL1        0.1214
      8 C           1.7133   -0.4682    0.9585 C.ar    1  UNL1       -0.0194
      9 C           2.9889   -0.9815    1.1190 C.ar    1  UNL1       -0.0467
     10 C           3.8170   -1.2474    0.0528 C.ar    1  UNL1        0.0550
     11 C           5.1692   -1.7967    0.3148 C.3     1  UNL1        0.4174
     12 F           5.7660   -1.0034    1.2933 F       1  UNL1       -0.1659
     13 F           5.0513   -3.0958    0.7541 F       1  UNL1       -0.1659
     14 F           5.9712   -1.7394   -0.8093 F       1  UNL1       -0.1659
     15 C           3.3679   -0.9964   -1.2253 C.ar    1  UNL1       -0.0467
     16 C           2.1131   -0.4894   -1.4194 C.ar    1  UNL1       -0.0194
     17 C          -1.3065    2.0963    0.1331 C.ar    1  UNL1       -0.0073
     18 C          -2.5990    2.5149    0.0171 C.ar    1  UNL1       -0.0551
     19 C          -2.8840    3.8796   -0.1042 C.ar    1  UNL1       -0.0614
     20 C          -1.8657    4.7971   -0.1068 C.ar    1  UNL1       -0.0617
     21 C          -0.5678    4.3653    0.0104 C.ar    1  UNL1       -0.0614
     22 C          -0.2719    3.0297    0.1302 C.ar    1  UNL1       -0.0551
     23 H          -3.2426   -4.5804   -0.0023 H       1  UNL1        0.0388
     24 H          -1.8476   -4.1679   -1.1107 H       1  UNL1        0.0388
     25 H          -1.7003   -3.8663    0.6374 H       1  UNL1        0.0388
     26 H          -3.6384   -2.3822    0.3715 H       1  UNL1        0.1216
     27 H          -1.5204   -1.8622    1.0463 H       1  UNL1        0.0425
     28 H          -0.9631   -1.8714   -0.6850 H       1  UNL1        0.0425
     29 H          -2.5179    0.0171   -1.1726 H       1  UNL1        0.0317
     30 H          -3.0886    0.0341    0.5175 H       1  UNL1        0.0317
     31 H          -0.7625    0.4881    1.3365 H       1  UNL1        0.0785
     32 H           1.0473   -0.2520    1.7745 H       1  UNL1        0.0654
     33 H           3.3063   -1.1655    2.1372 H       1  UNL1        0.0624
     34 H           4.0520   -1.2194   -2.0472 H       1  UNL1        0.0624
     35 H           1.7849   -0.3020   -2.4234 H       1  UNL1        0.0654
     36 H          -3.4639    1.8835    0.0053 H       1  UNL1        0.0621
     37 H          -3.9074    4.2400   -0.1981 H       1  UNL1        0.0618
     38 H          -2.0376    5.8777   -0.1993 H       1  UNL1        0.0618
     39 H           0.2486    5.1000    0.0083 H       1  UNL1        0.0618
     40 H           0.7481    2.6459    0.2256 H       1  UNL1        0.0621
@<TRIPOS>BOND
     1     1     2    1
     2     2     3    1
     3     3     4    1
     4     4     5    1
     5     5     6    1
     6     6     7    1
     7     7     8   ar
     8     8     9   ar
     9     9    10   ar
    10    10    11    1
    11    11    12    1
    12    11    13    1
    13    11    14    1
    14    10    15   ar
    15    15    16   ar
    16     5    17    1
    17    17    18   ar
    18    18    19   ar
    19    19    20   ar
    20    20    21   ar
    21    21    22   ar
    22    16     7   ar
    23    22    17   ar
    24     1    23    1
    25     1    24    1
    26     1    25    1
    27     2    26    1
    28     3    27    1
    29     3    28    1
    30     4    29    1
    31     4    30    1
    32     5    31    1
    33     8    32    1
    34     9    33    1
    35    15    34    1
    36    16    35    1
    37    18    36    1
    38    19    37    1
    39    20    38    1
    40    21    39    1
    41    22    40    1
