
     RDKit          3D

 40 41  0  0  0  0  0  0  0  0999 V2000
   -2.4178   -3.8706   -0.2144 C   0  0  0  0  0  0  0  0  0  0  0  0
   -2.8961   -2.5090   -0.3670 N   0  0  0  0  0  0  0  0  0  0  0  0
   -1.7901   -1.6287   -0.0024 C   0  0  0  0  0  0  0  0  0  0  0  0
   -2.2002   -0.1676   -0.1324 C   0  0  0  0  0  0  0  0  0  0  0  0
   -0.9856    0.6380    0.2677 C   0  0  0  0  0  0  0  0  0  0  0  0
    0.0522    0.2784   -0.6099 O   0  0  0  0  0  0  0  0  0  0  0  0
    1.2775   -0.2224   -0.3205 C   0  0  0  0  0  0  0  0  0  0  0  0
    1.7133   -0.4682    0.9585 C   0  0  0  0  0  0  0  0  0  0  0  0
    2.9889   -0.9815    1.1190 C   0  0  0  0  0  0  0  0  0  0  0  0
    3.8170   -1.2474    0.0528 C   0  0  0  0  0  0  0  0  0  0  0  0
    5.1692   -1.7967    0.3148 C   0  0  0  0  0  0  0  0  0  0  0  0
    5.7660   -1.0034    1.2933 F   0  0  0  0  0  0  0  0  0  0  0  0
    5.0513   -3.0958    0.7541 F   0  0  0  0  0  0  0  0  0  0  0  0
    5.9712   -1.7394   -0.8093 F   0  0  0  0  0  0  0  0  0  0  0  0
    3.3679   -0.9964   -1.2253 C   0  0  0  0  0  0  0  0  0  0  0  0
    2.1131   -0.4894   -1.4194 C   0  0  0  0  0  0  0  0  0  0  0  0
   -1.3065    2.0963    0.1331 C   0  0  0  0  0  0  0  0  0  0  0  0
   -2.5990    2.5149    0.0171 C   0  0  0  0  0  0  0  0  0  0  0  0
   -2.8840    3.8796   -0.1042 C   0  0  0  0  0  0  0  0  0  0  0  0
   -1.8657    4.7971   -0.1068 C   0  0  0  0  0  0  0  0  0  0  0  0
   -0.5678    4.3653    0.0104 C   0  0  0  0  0  0  0  0  0  0  0  0
   -0.2719    3.0297    0.1302 C   0  0  0  0  0  0  0  0  0  0  0  0
   -3.2426   -4.5804   -0.0023 H   0  0  0  0  0  0  0  0  0  0  0  0
   -1.8476   -4.1679   -1.1107 H   0  0  0  0  0  0  0  0  0  0  0  0
   -1.7003   -3.8663    0.6374 H   0  0  0  0  0  0  0  0  0  0  0  0
   -3.6384   -2.3822    0.3715 H   0  0  0  0  0  0  0  0  0  0  0  0
   -1.5204   -1.8622    1.0463 H   0  0  0  0  0  0  0  0  0  0  0  0
   -0.9631   -1.8714   -0.6850 H   0  0  0  0  0  0  0  0  0  0  0  0
   -2.5179    0.0171   -1.1726 H   0  0  0  0  0  0  0  0  0  0  0  0
   -3.0886    0.0341    0.5175 H   0  0  0  0  0  0  0  0  0  0  0  0
   -0.7625    0.4881    1.3365 H   0  0  0  0  0  0  0  0  0  0  0  0
    1.0473   -0.2520    1.7745 H   0  0  0  0  0  0  0  0  0  0  0  0
    3.3063   -1.1655    2.1372 H   0  0  0  0  0  0  0  0  0  0  0  0
    4.0520   -1.2194   -2.0472 H   0  0  0  0  0  0  0  0  0  0  0  0
    1.7849   -0.3020   -2.4234 H   0  0  0  0  0  0  0  0  0  0  0  0
   -3.4639    1.8835    0.0053 H   0  0  0  0  0  0  0  0  0  0  0  0
   -3.9074    4.2400   -0.1981 H   0  0  0  0  0  0  0  0  0  0  0  0
   -2.0376    5.8777   -0.1993 H   0  0  0  0  0  0  0  0  0  0  0  0
    0.2486    5.1000    0.0083 H   0  0  0  0  0  0  0  0  0  0  0  0
    0.7481    2.6459    0.2256 H   0  0  0  0  0  0  0  0  0  0  0  0
  1  2  1  0
  2  3  1  0
  3  4  1  0
  4  5  1  0
  5  6  1  0
  6  7  1  0
  7  8  2  0
  8  9  1  0
  9 10  2  0
 10 11  1  0
 11 12  1  0
 11 13  1  0
 11 14  1  0
 10 15  1  0
 15 16  2  0
  5 17  1  0
 17 18  2  0
 18 19  1  0
 19 20  2  0
 20 21  1  0
 21 22  2  0
 16  7  1  0
 22 17  1  0
  1 23  1  0
  1 24  1  0
  1 25  1  0
  2 26  1  0
  3 27  1  0
  3 28  1  0
  4 29  1  0
  4 30  1  0
  5 31  1  0
  8 32  1  0
  9 33  1  0
 15 34  1  0
 16 35  1  0
 18 36  1  0
 19 37  1  0
 20 38  1  0
 21 39  1  0
 22 40  1  0
M  END
$$$$
