@<TRIPOS>MOLECULE
*****
 59 62 0 0 0
SMALL
GASTEIGER

@<TRIPOS>ATOM
      1 C          -9.6718    0.9662   -0.3606 C.3     1  UNL1        0.0817
      2 O          -8.4328    0.6063   -0.9294 O.3     1  UNL1       -0.4677
      3 C          -7.6807   -0.4943   -0.5530 C.2     1  UNL1        0.3100
      4 O          -7.8442   -1.4226    0.3138 O.2     1  UNL1       -0.2505
      5 C          -6.4313   -0.5517   -1.3646 C.3     1  UNL1        0.0593
      6 C          -5.7121    0.7721   -1.1430 C.3     1  UNL1       -0.0242
      7 C          -5.2024    0.7223    0.2889 C.3     1  UNL1        0.0157
      8 N          -4.0974   -0.2124    0.2557 N.am    1  UNL1       -0.2975
      9 C          -4.4811   -1.5457   -0.0756 C.3     1  UNL1        0.0157
     10 C          -5.5734   -1.7204   -1.0547 C.3     1  UNL1       -0.0242
     11 C          -2.8213    0.3384    0.5506 C.2     1  UNL1        0.2466
     12 O          -2.8809    1.5668    0.8045 O.2     1  UNL1       -0.2700
     13 C          -1.4167    0.0026    0.6753 C.ar    1  UNL1        0.0370
     14 C          -0.7401   -0.1074    1.8747 C.ar    1  UNL1       -0.0479
     15 C           0.6071   -0.4015    1.8196 C.ar    1  UNL1       -0.0399
     16 C           1.2257   -0.5726    0.6004 C.ar    1  UNL1        0.0298
     17 C           0.5597   -0.4660   -0.5986 C.ar    1  UNL1       -0.0399
     18 C          -0.7967   -0.1701   -0.5422 C.ar    1  UNL1       -0.0479
     19 N           2.6238   -0.8414    0.5788 N.pl3   1  UNL1       -0.3271
     20 C           3.5118   -1.0014    1.7022 C.3     1  UNL1        0.0011
     21 C           3.2977   -0.9659   -0.7182 C.3     1  UNL1        0.0555
     22 C           4.7741   -0.9140   -0.5446 C.ar    1  UNL1        0.0774
     23 N           5.2422    0.3430   -0.5541 N.ar    1  UNL1       -0.2419
     24 C           6.5377    0.6329   -0.3891 C.ar    1  UNL1        0.1477
     25 C           6.9137    1.9804   -0.4087 C.ar    1  UNL1        0.1491
     26 N           5.8923    2.9492   -0.6110 N.pl3   1  UNL1       -0.3413
     27 N           8.2090    2.2811   -0.2333 N.ar    1  UNL1       -0.1978
     28 C           9.0697    1.2381   -0.0485 C.ar    1  UNL1        0.2163
     29 N          10.4146    1.6682    0.1319 N.pl3   1  UNL1       -0.3274
     30 N           8.7009   -0.0733   -0.0300 N.ar    1  UNL1       -0.1932
     31 C           7.4129   -0.4148   -0.2007 C.ar    1  UNL1        0.1851
     32 N           6.9859   -1.6852   -0.1844 N.ar    1  UNL1       -0.2324
     33 C           5.6610   -1.9492   -0.3568 C.ar    1  UNL1        0.0528
     34 H          -9.5765    1.9066    0.2371 H       1  UNL1        0.0661
     35 H         -10.3685    1.1694   -1.1976 H       1  UNL1        0.0661
     36 H         -10.1016    0.1503    0.2486 H       1  UNL1        0.0661
     37 H          -6.7257   -0.5803   -2.4211 H       1  UNL1        0.0414
     38 H          -4.8388    0.9057   -1.7851 H       1  UNL1        0.0288
     39 H          -6.4464    1.5727   -1.2095 H       1  UNL1        0.0288
     40 H          -4.8498    1.7180    0.5649 H       1  UNL1        0.0465
     41 H          -5.9807    0.3744    0.9973 H       1  UNL1        0.0465
     42 H          -4.6509   -2.0967    0.8793 H       1  UNL1        0.0465
     43 H          -3.5534   -2.0354   -0.4946 H       1  UNL1        0.0465
     44 H          -6.2600   -2.5191   -0.6416 H       1  UNL1        0.0288
     45 H          -5.2054   -2.1870   -2.0109 H       1  UNL1        0.0288
     46 H          -1.3197    0.0487    2.7763 H       1  UNL1        0.0626
     47 H           1.0547   -0.4719    2.7776 H       1  UNL1        0.0636
     48 H           1.0330   -0.6036   -1.5710 H       1  UNL1        0.0636
     49 H          -1.3029   -0.0864   -1.5125 H       1  UNL1        0.0626
     50 H           2.9828   -0.9110    2.6593 H       1  UNL1        0.0428
     51 H           4.0187   -2.0190    1.6861 H       1  UNL1        0.0428
     52 H           4.3032   -0.1974    1.6875 H       1  UNL1        0.0428
     53 H           3.0656   -1.9475   -1.2000 H       1  UNL1        0.0529
     54 H           2.9730   -0.1226   -1.3331 H       1  UNL1        0.0529
     55 H           4.8925    2.7080   -0.4910 H       1  UNL1        0.1438
     56 H           6.0014    3.9296   -0.8814 H       1  UNL1        0.1438
     57 H          11.3135    1.9412   -0.3253 H       1  UNL1        0.1452
     58 H          10.4861    1.7174    1.1735 H       1  UNL1        0.1452
     59 H           5.1990   -2.9218   -0.3641 H       1  UNL1        0.0849
@<TRIPOS>BOND
     1     1     2    1
     2     2     3    1
     3     3     4    2
     4     3     5    1
     5     5     6    1
     6     6     7    1
     7     7     8    1
     8     8     9    1
     9     9    10    1
    10     8    11   am
    11    11    12    2
    12    11    13    1
    13    13    14   ar
    14    14    15   ar
    15    15    16   ar
    16    16    17   ar
    17    17    18   ar
    18    16    19    1
    19    19    20    1
    20    19    21    1
    21    21    22    1
    22    22    23   ar
    23    23    24   ar
    24    24    25   ar
    25    25    26    1
    26    25    27   ar
    27    27    28   ar
    28    28    29    1
    29    28    30   ar
    30    30    31   ar
    31    31    32   ar
    32    32    33   ar
    33    10     5    1
    34    18    13   ar
    35    33    22   ar
    36    31    24   ar
    37     1    34    1
    38     1    35    1
    39     1    36    1
    40     5    37    1
    41     6    38    1
    42     6    39    1
    43     7    40    1
    44     7    41    1
    45     9    42    1
    46     9    43    1
    47    10    44    1
    48    10    45    1
    49    14    46    1
    50    15    47    1
    51    17    48    1
    52    18    49    1
    53    20    50    1
    54    20    51    1
    55    20    52    1
    56    21    53    1
    57    21    54    1
    58    26    55    1
    59    26    56    1
    60    29    57    1
    61    29    58    1
    62    33    59    1
