
     RDKit          3D

 59 62  0  0  0  0  0  0  0  0999 V2000
   -9.6718    0.9662   -0.3606 C   0  0  0  0  0  0  0  0  0  0  0  0
   -8.4328    0.6063   -0.9294 O   0  0  0  0  0  0  0  0  0  0  0  0
   -7.6807   -0.4943   -0.5530 C   0  0  0  0  0  0  0  0  0  0  0  0
   -7.8442   -1.4226    0.3138 O   0  0  0  0  0  0  0  0  0  0  0  0
   -6.4313   -0.5517   -1.3646 C   0  0  0  0  0  0  0  0  0  0  0  0
   -5.7121    0.7721   -1.1430 C   0  0  0  0  0  0  0  0  0  0  0  0
   -5.2024    0.7223    0.2889 C   0  0  0  0  0  0  0  0  0  0  0  0
   -4.0974   -0.2124    0.2557 N   0  0  0  0  0  0  0  0  0  0  0  0
   -4.4811   -1.5457   -0.0756 C   0  0  0  0  0  0  0  0  0  0  0  0
   -5.5734   -1.7204   -1.0547 C   0  0  0  0  0  0  0  0  0  0  0  0
   -2.8213    0.3384    0.5506 C   0  0  0  0  0  0  0  0  0  0  0  0
   -2.8809    1.5668    0.8045 O   0  0  0  0  0  0  0  0  0  0  0  0
   -1.4167    0.0026    0.6753 C   0  0  0  0  0  0  0  0  0  0  0  0
   -0.7401   -0.1074    1.8747 C   0  0  0  0  0  0  0  0  0  0  0  0
    0.6071   -0.4015    1.8196 C   0  0  0  0  0  0  0  0  0  0  0  0
    1.2257   -0.5726    0.6004 C   0  0  0  0  0  0  0  0  0  0  0  0
    0.5597   -0.4660   -0.5986 C   0  0  0  0  0  0  0  0  0  0  0  0
   -0.7967   -0.1701   -0.5422 C   0  0  0  0  0  0  0  0  0  0  0  0
    2.6238   -0.8414    0.5788 N   0  0  0  0  0  0  0  0  0  0  0  0
    3.5118   -1.0014    1.7022 C   0  0  0  0  0  0  0  0  0  0  0  0
    3.2977   -0.9659   -0.7182 C   0  0  0  0  0  0  0  0  0  0  0  0
    4.7741   -0.9140   -0.5446 C   0  0  0  0  0  0  0  0  0  0  0  0
    5.2422    0.3430   -0.5541 N   0  0  0  0  0  0  0  0  0  0  0  0
    6.5377    0.6329   -0.3891 C   0  0  0  0  0  0  0  0  0  0  0  0
    6.9137    1.9804   -0.4087 C   0  0  0  0  0  0  0  0  0  0  0  0
    5.8923    2.9492   -0.6110 N   0  0  0  0  0  0  0  0  0  0  0  0
    8.2090    2.2811   -0.2333 N   0  0  0  0  0  0  0  0  0  0  0  0
    9.0697    1.2381   -0.0485 C   0  0  0  0  0  0  0  0  0  0  0  0
   10.4146    1.6682    0.1319 N   0  0  0  0  0  0  0  0  0  0  0  0
    8.7009   -0.0733   -0.0300 N   0  0  0  0  0  0  0  0  0  0  0  0
    7.4129   -0.4148   -0.2007 C   0  0  0  0  0  0  0  0  0  0  0  0
    6.9859   -1.6852   -0.1844 N   0  0  0  0  0  0  0  0  0  0  0  0
    5.6610   -1.9492   -0.3568 C   0  0  0  0  0  0  0  0  0  0  0  0
   -9.5765    1.9066    0.2371 H   0  0  0  0  0  0  0  0  0  0  0  0
  -10.3685    1.1694   -1.1976 H   0  0  0  0  0  0  0  0  0  0  0  0
  -10.1016    0.1503    0.2486 H   0  0  0  0  0  0  0  0  0  0  0  0
   -6.7257   -0.5803   -2.4211 H   0  0  0  0  0  0  0  0  0  0  0  0
   -4.8388    0.9057   -1.7851 H   0  0  0  0  0  0  0  0  0  0  0  0
   -6.4464    1.5727   -1.2095 H   0  0  0  0  0  0  0  0  0  0  0  0
   -4.8498    1.7180    0.5649 H   0  0  0  0  0  0  0  0  0  0  0  0
   -5.9807    0.3744    0.9973 H   0  0  0  0  0  0  0  0  0  0  0  0
   -4.6509   -2.0967    0.8793 H   0  0  0  0  0  0  0  0  0  0  0  0
   -3.5534   -2.0354   -0.4946 H   0  0  0  0  0  0  0  0  0  0  0  0
   -6.2600   -2.5191   -0.6416 H   0  0  0  0  0  0  0  0  0  0  0  0
   -5.2054   -2.1870   -2.0109 H   0  0  0  0  0  0  0  0  0  0  0  0
   -1.3197    0.0487    2.7763 H   0  0  0  0  0  0  0  0  0  0  0  0
    1.0547   -0.4719    2.7776 H   0  0  0  0  0  0  0  0  0  0  0  0
    1.0330   -0.6036   -1.5710 H   0  0  0  0  0  0  0  0  0  0  0  0
   -1.3029   -0.0864   -1.5125 H   0  0  0  0  0  0  0  0  0  0  0  0
    2.9828   -0.9110    2.6593 H   0  0  0  0  0  0  0  0  0  0  0  0
    4.0187   -2.0190    1.6861 H   0  0  0  0  0  0  0  0  0  0  0  0
    4.3032   -0.1974    1.6875 H   0  0  0  0  0  0  0  0  0  0  0  0
    3.0656   -1.9475   -1.2000 H   0  0  0  0  0  0  0  0  0  0  0  0
    2.9730   -0.1226   -1.3331 H   0  0  0  0  0  0  0  0  0  0  0  0
    4.8925    2.7080   -0.4910 H   0  0  0  0  0  0  0  0  0  0  0  0
    6.0014    3.9296   -0.8814 H   0  0  0  0  0  0  0  0  0  0  0  0
   11.3135    1.9412   -0.3253 H   0  0  0  0  0  0  0  0  0  0  0  0
   10.4861    1.7174    1.1735 H   0  0  0  0  0  0  0  0  0  0  0  0
    5.1990   -2.9218   -0.3641 H   0  0  0  0  0  0  0  0  0  0  0  0
  1  2  1  0
  2  3  1  0
  3  4  2  0
  3  5  1  0
  5  6  1  0
  6  7  1  0
  7  8  1  0
  8  9  1  0
  9 10  1  0
  8 11  1  0
 11 12  2  0
 11 13  1  0
 13 14  2  0
 14 15  1  0
 15 16  2  0
 16 17  1  0
 17 18  2  0
 16 19  1  0
 19 20  1  0
 19 21  1  0
 21 22  1  0
 22 23  2  0
 23 24  1  0
 24 25  2  0
 25 26  1  0
 25 27  1  0
 27 28  2  0
 28 29  1  0
 28 30  1  0
 30 31  2  0
 31 32  1  0
 32 33  2  0
 10  5  1  0
 18 13  1  0
 33 22  1  0
 31 24  1  0
  1 34  1  0
  1 35  1  0
  1 36  1  0
  5 37  1  0
  6 38  1  0
  6 39  1  0
  7 40  1  0
  7 41  1  0
  9 42  1  0
  9 43  1  0
 10 44  1  0
 10 45  1  0
 14 46  1  0
 15 47  1  0
 17 48  1  0
 18 49  1  0
 20 50  1  0
 20 51  1  0
 20 52  1  0
 21 53  1  0
 21 54  1  0
 26 55  1  0
 26 56  1  0
 29 57  1  0
 29 58  1  0
 33 59  1  0
M  END
$$$$
