@<TRIPOS>MOLECULE
*****
 71 75 0 0 0
SMALL
GASTEIGER

@<TRIPOS>ATOM
      1 C         -10.5196    0.5046    1.8020 C.3     1  UNL1        0.0003
      2 N         -10.2970    0.5413    0.3849 N.pl3   1  UNL1       -0.3164
      3 C          -8.9838    0.4423   -0.1288 C.ar    1  UNL1        0.2183
      4 N          -8.7332    0.4760   -1.4583 N.ar    1  UNL1       -0.2030
      5 C          -7.4876    0.3826   -1.9494 C.ar    1  UNL1        0.1219
      6 N          -6.4665    0.2525   -1.0973 N.ar    1  UNL1       -0.2157
      7 C          -6.6600    0.2139    0.2205 C.ar    1  UNL1        0.1700
      8 C          -5.5322    0.0711    1.1104 C.ar    1  UNL1        0.0811
      9 C          -5.7818    0.0336    2.4753 C.ar    1  UNL1       -0.0445
     10 C          -4.7615   -0.1021    3.3876 C.ar    1  UNL1       -0.0427
     11 C          -3.4824   -0.1974    2.8566 C.ar    1  UNL1        0.0314
     12 N          -3.2729   -0.1584    1.5402 N.ar    1  UNL1       -0.2204
     13 C          -4.2315   -0.0274    0.6023 C.ar    1  UNL1        0.2312
     14 O          -4.0566    0.0169   -0.7440 O.3     1  UNL1       -0.4370
     15 C          -2.8680   -0.0705   -1.4047 C.ar    1  UNL1        0.1340
     16 C          -1.6343   -0.2256   -0.8237 C.ar    1  UNL1       -0.0069
     17 C          -0.4413   -0.3092   -1.5653 C.ar    1  UNL1        0.0405
     18 C           0.8236   -0.4792   -0.8649 C.2     1  UNL1        0.2485
     19 O           0.8174   -0.5655    0.3886 O.2     1  UNL1       -0.2698
     20 N           2.0576   -0.5515   -1.5394 N.am    1  UNL1       -0.2785
     21 C           3.3053   -0.7202   -0.8754 C.ar    1  UNL1        0.0761
     22 C           4.0770    0.3318   -0.4368 C.ar    1  UNL1       -0.0334
     23 C           5.3006    0.1172    0.2097 C.ar    1  UNL1       -0.0423
     24 C           6.0542    1.2750    0.6482 C.3     1  UNL1       -0.0158
     25 C           6.4946    1.2548    2.0798 C.3     1  UNL1       -0.0462
     26 C           7.4709    2.4366    2.2195 C.3     1  UNL1       -0.0525
     27 C           8.7432    1.9629    1.5570 C.3     1  UNL1       -0.0530
     28 C           8.5334    1.1621    0.3181 C.3     1  UNL1       -0.0525
     29 C           7.2084    1.5161   -0.3019 C.3     1  UNL1       -0.0462
     30 C           5.7293   -1.1840    0.4048 C.ar    1  UNL1       -0.0547
     31 C           4.9354   -2.2095   -0.0448 C.ar    1  UNL1       -0.0178
     32 C           3.7320   -2.0120   -0.6813 C.ar    1  UNL1        0.1412
     33 O           2.9903   -3.1076   -1.1049 O.3     1  UNL1       -0.4933
     34 C           3.4165   -4.4367   -0.9114 C.3     1  UNL1        0.0789
     35 C          -0.5398   -0.2294   -2.9326 C.ar    1  UNL1       -0.0491
     36 C          -1.7549   -0.0731   -3.5759 C.ar    1  UNL1       -0.0546
     37 C          -2.8924    0.0034   -2.8071 C.ar    1  UNL1       -0.0081
     38 C          -4.2318    0.1710   -3.4500 C.3     1  UNL1       -0.0362
     39 N          -7.9209    0.3097    0.6890 N.ar    1  UNL1       -0.1946
     40 H          -9.9825   -0.3617    2.2570 H       1  UNL1        0.0426
     41 H         -10.1592    1.4704    2.2213 H       1  UNL1        0.0426
     42 H         -11.6015    0.3355    2.0401 H       1  UNL1        0.0426
     43 H         -11.0917    0.6396   -0.2624 H       1  UNL1        0.1486
     44 H          -7.2932    0.4102   -3.0220 H       1  UNL1        0.1049
     45 H          -6.8189    0.1144    2.8213 H       1  UNL1        0.0627
     46 H          -4.9640   -0.1303    4.4434 H       1  UNL1        0.0633
     47 H          -2.6765   -0.3040    3.5707 H       1  UNL1        0.0831
     48 H          -1.5214   -0.2906    0.2289 H       1  UNL1        0.0662
     49 H           2.1075   -0.4827   -2.5742 H       1  UNL1        0.1552
     50 H           3.7229    1.3509   -0.5994 H       1  UNL1        0.0640
     51 H           5.4044    2.1949    0.5339 H       1  UNL1        0.0349
     52 H           7.0613    0.3710    2.3755 H       1  UNL1        0.0271
     53 H           5.6367    1.5038    2.7355 H       1  UNL1        0.0271
     54 H           7.0651    3.3486    1.7625 H       1  UNL1        0.0265
     55 H           7.6488    2.6133    3.2855 H       1  UNL1        0.0265
     56 H           9.2303    1.2754    2.3123 H       1  UNL1        0.0265
     57 H           9.4113    2.8382    1.4231 H       1  UNL1        0.0265
     58 H           8.5640    0.0681    0.4825 H       1  UNL1        0.0265
     59 H           9.3259    1.3934   -0.4426 H       1  UNL1        0.0265
     60 H           7.0575    0.9039   -1.2247 H       1  UNL1        0.0271
     61 H           7.2290    2.5774   -0.6910 H       1  UNL1        0.0271
     62 H           6.6738   -1.3064    0.9074 H       1  UNL1        0.0622
     63 H           5.3041   -3.2153    0.1257 H       1  UNL1        0.0655
     64 H           3.6584   -4.5643    0.1660 H       1  UNL1        0.0660
     65 H           2.6236   -5.1668   -1.1524 H       1  UNL1        0.0660
     66 H           4.3516   -4.6712   -1.4759 H       1  UNL1        0.0660
     67 H           0.3742   -0.2918   -3.5288 H       1  UNL1        0.0625
     68 H          -1.7988   -0.0149   -4.6375 H       1  UNL1        0.0622
     69 H          -4.1311    0.2004   -4.5639 H       1  UNL1        0.0279
     70 H          -4.7184    1.0812   -3.1075 H       1  UNL1        0.0279
     71 H          -4.8331   -0.7066   -3.1365 H       1  UNL1        0.0279
@<TRIPOS>BOND
     1     1     2    1
     2     2     3    1
     3     3     4   ar
     4     4     5   ar
     5     5     6   ar
     6     6     7   ar
     7     7     8    1
     8     8     9   ar
     9     9    10   ar
    10    10    11   ar
    11    11    12   ar
    12    12    13   ar
    13    13    14    1
    14    14    15    1
    15    15    16   ar
    16    16    17   ar
    17    17    18    1
    18    18    19    2
    19    18    20   am
    20    20    21    1
    21    21    22   ar
    22    22    23   ar
    23    23    24    1
    24    24    25    1
    25    25    26    1
    26    26    27    1
    27    27    28    1
    28    28    29    1
    29    23    30   ar
    30    30    31   ar
    31    31    32   ar
    32    32    33    1
    33    33    34    1
    34    17    35   ar
    35    35    36   ar
    36    36    37   ar
    37    37    38    1
    38     7    39   ar
    39    39     3   ar
    40    13     8   ar
    41    37    15   ar
    42    32    21   ar
    43    29    24    1
    44     1    40    1
    45     1    41    1
    46     1    42    1
    47     2    43    1
    48     5    44    1
    49     9    45    1
    50    10    46    1
    51    11    47    1
    52    16    48    1
    53    20    49    1
    54    22    50    1
    55    24    51    1
    56    25    52    1
    57    25    53    1
    58    26    54    1
    59    26    55    1
    60    27    56    1
    61    27    57    1
    62    28    58    1
    63    28    59    1
    64    29    60    1
    65    29    61    1
    66    30    62    1
    67    31    63    1
    68    34    64    1
    69    34    65    1
    70    34    66    1
    71    35    67    1
    72    36    68    1
    73    38    69    1
    74    38    70    1
    75    38    71    1
