@<TRIPOS>MOLECULE
*****
 49 51 0 0 0
SMALL
GASTEIGER

@<TRIPOS>ATOM
      1 C          -4.8104   -0.8244    2.8089 C.3     1  UNL1       -0.0307
      2 C          -4.5121   -0.8941    1.3077 C.3     1  UNL1        0.0868
      3 O          -3.1323   -0.6199    1.0830 O.3     1  UNL1       -0.4920
      4 C          -2.6945   -0.6338   -0.2611 C.ar    1  UNL1        0.1237
      5 C          -3.5607   -0.8866   -1.2845 C.ar    1  UNL1       -0.0197
      6 C          -3.1497   -0.9029   -2.6004 C.ar    1  UNL1       -0.0583
      7 C          -1.8030   -0.6517   -2.8661 C.ar    1  UNL1       -0.0613
      8 C          -0.9334   -0.3982   -1.8368 C.ar    1  UNL1       -0.0550
      9 C          -1.3435   -0.3825   -0.5416 C.ar    1  UNL1       -0.0039
     10 C          -0.4924   -0.1452    0.6056 C.3     1  UNL1       -0.0044
     11 C           0.8641    0.3518    0.5366 C.3     1  UNL1        0.0398
     12 C           1.0787    1.6938   -0.0527 C.ar    1  UNL1       -0.0300
     13 C           1.6420    1.9547   -1.2715 C.ar    1  UNL1       -0.0571
     14 C           1.7817    3.2383   -1.7461 C.ar    1  UNL1       -0.0615
     15 C           1.3649    4.3271   -1.0222 C.ar    1  UNL1       -0.0617
     16 C           0.7964    4.1005    0.2035 C.ar    1  UNL1       -0.0615
     17 C           0.6590    2.8245    0.6708 C.ar    1  UNL1       -0.0571
     18 N           1.8979   -0.5226    0.1291 N.3     1  UNL1       -0.2927
     19 C           3.2321   -0.0618    0.1722 C.3     1  UNL1        0.0121
     20 C           4.0158   -0.9669    1.1286 C.3     1  UNL1        0.0087
     21 N           4.0476   -2.3302    0.6852 N.3     1  UNL1       -0.3136
     22 C           2.9526   -2.6061   -0.2227 C.3     1  UNL1        0.0087
     23 C           1.6764   -1.9117    0.2482 C.3     1  UNL1        0.0121
     24 H          -5.5530   -1.6202    3.0553 H       1  UNL1        0.0262
     25 H          -3.8370   -0.9811    3.3297 H       1  UNL1        0.0262
     26 H          -5.1889    0.1674    3.1146 H       1  UNL1        0.0262
     27 H          -5.1946   -0.1884    0.8130 H       1  UNL1        0.0694
     28 H          -4.7698   -1.9165    0.9292 H       1  UNL1        0.0694
     29 H          -4.6014   -1.0781   -1.0231 H       1  UNL1        0.0654
     30 H          -3.8869   -1.1054   -3.3510 H       1  UNL1        0.0619
     31 H          -1.5188   -0.6717   -3.9128 H       1  UNL1        0.0618
     32 H           0.1016   -0.2321   -2.1228 H       1  UNL1        0.0621
     33 H          -1.0776    0.5921    1.2669 H       1  UNL1        0.0333
     34 H          -0.5042   -1.0677    1.2590 H       1  UNL1        0.0333
     35 H           1.1436    0.5505    1.6507 H       1  UNL1        0.0515
     36 H           1.9854    1.1056   -1.8625 H       1  UNL1        0.0621
     37 H           2.2303    3.3970   -2.7128 H       1  UNL1        0.0618
     38 H           1.4624    5.3536   -1.3710 H       1  UNL1        0.0618
     39 H           0.4454    4.9127    0.8380 H       1  UNL1        0.0618
     40 H           0.2139    2.6372    1.6347 H       1  UNL1        0.0621
     41 H           3.7219   -0.1705   -0.8184 H       1  UNL1        0.0439
     42 H           3.3426    0.9733    0.5618 H       1  UNL1        0.0439
     43 H           5.0536   -0.5570    1.2598 H       1  UNL1        0.0437
     44 H           3.5260   -0.9257    2.1029 H       1  UNL1        0.0437
     45 H           4.9570   -2.4730    0.1631 H       1  UNL1        0.1220
     46 H           3.2065   -2.1490   -1.1998 H       1  UNL1        0.0437
     47 H           2.7870   -3.6917   -0.3913 H       1  UNL1        0.0437
     48 H           0.8712   -2.3341   -0.3834 H       1  UNL1        0.0439
     49 H           1.5065   -2.2794    1.2963 H       1  UNL1        0.0439
@<TRIPOS>BOND
     1     1     2    1
     2     2     3    1
     3     3     4    1
     4     4     5   ar
     5     5     6   ar
     6     6     7   ar
     7     7     8   ar
     8     8     9   ar
     9     9    10    1
    10    10    11    1
    11    11    12    1
    12    12    13   ar
    13    13    14   ar
    14    14    15   ar
    15    15    16   ar
    16    16    17   ar
    17    11    18    1
    18    18    19    1
    19    19    20    1
    20    20    21    1
    21    21    22    1
    22    22    23    1
    23     9     4   ar
    24    17    12   ar
    25    23    18    1
    26     1    24    1
    27     1    25    1
    28     1    26    1
    29     2    27    1
    30     2    28    1
    31     5    29    1
    32     6    30    1
    33     7    31    1
    34     8    32    1
    35    10    33    1
    36    10    34    1
    37    11    35    1
    38    13    36    1
    39    14    37    1
    40    15    38    1
    41    16    39    1
    42    17    40    1
    43    19    41    1
    44    19    42    1
    45    20    43    1
    46    20    44    1
    47    21    45    1
    48    22    46    1
    49    22    47    1
    50    23    48    1
    51    23    49    1
