@<TRIPOS>MOLECULE
*****
 48 51 0 0 0
SMALL
GASTEIGER

@<TRIPOS>ATOM
      1 C           1.3213    0.6315    0.3010 C.3     1  UNL1       -0.0289
      2 C           2.1434    1.8612    0.4093 C.3     1  UNL1       -0.0458
      3 C           3.5507    1.3093    0.2717 C.3     1  UNL1       -0.0118
      4 C           3.4020   -0.0789   -0.3645 C.3     1  UNL1        0.1317
      5 O           4.2506   -0.1611   -1.4636 O.3     1  UNL1       -0.3760
      6 C           3.6110   -1.1345    0.5932 C.1     1  UNL1       -0.0704
      7 C           3.8046   -2.0078    1.3942 C.1     1  UNL1       -0.1163
      8 C           1.9628   -0.0805   -0.8415 C.3     1  UNL1        0.0111
      9 C           1.9949    0.7237   -2.1185 C.3     1  UNL1       -0.0558
     10 C           1.3399   -1.4181   -0.9799 C.3     1  UNL1       -0.0435
     11 C           0.1020   -1.6883   -0.2212 C.3     1  UNL1       -0.0488
     12 C          -0.7074   -0.5857    0.3085 C.3     1  UNL1       -0.0314
     13 C          -2.1361   -0.4974   -0.1588 C.3     1  UNL1       -0.0160
     14 C          -2.8123   -1.8071   -0.3012 C.3     1  UNL1       -0.0392
     15 C          -4.3025   -1.7108   -0.2682 C.3     1  UNL1        0.0104
     16 C          -4.7508   -0.9996    0.9535 C.2     1  UNL1        0.1561
     17 O          -5.6896   -1.4169    1.6888 O.2     1  UNL1       -0.2927
     18 C          -4.0283    0.2375    1.2633 C.2     1  UNL1       -0.0197
     19 C          -2.8198    0.4515    0.7390 C.2     1  UNL1       -0.0629
     20 C          -2.1944    1.7200    1.1182 C.3     1  UNL1       -0.0308
     21 C          -0.7509    1.8660    0.8527 C.3     1  UNL1       -0.0460
     22 C          -0.1205    0.8034    0.0231 C.3     1  UNL1       -0.0339
     23 H           1.4737    0.0183    1.2038 H       1  UNL1        0.0310
     24 H           2.0302    2.2622    1.4551 H       1  UNL1        0.0269
     25 H           1.9145    2.6370   -0.3230 H       1  UNL1        0.0269
     26 H           4.0491    1.2321    1.2812 H       1  UNL1        0.0303
     27 H           4.1311    1.9929   -0.4014 H       1  UNL1        0.0303
     28 H           4.2036   -1.0797   -1.7911 H       1  UNL1        0.2114
     29 H           3.9599   -2.7950    2.1149 H       1  UNL1        0.1229
     30 H           1.0502    1.1414   -2.4456 H       1  UNL1        0.0236
     31 H           2.7561    1.5129   -2.0698 H       1  UNL1        0.0236
     32 H           2.3087    0.0024   -2.9247 H       1  UNL1        0.0236
     33 H           2.1294   -2.1745   -0.7773 H       1  UNL1        0.0272
     34 H           1.1508   -1.5441   -2.0882 H       1  UNL1        0.0272
     35 H          -0.5690   -2.3261   -0.8569 H       1  UNL1        0.0268
     36 H           0.3736   -2.3929    0.6207 H       1  UNL1        0.0268
     37 H          -0.7598   -0.6134    1.4212 H       1  UNL1        0.0309
     38 H          -2.1182   -0.0112   -1.1741 H       1  UNL1        0.0349
     39 H          -2.5613   -2.2180   -1.3056 H       1  UNL1        0.0275
     40 H          -2.4783   -2.5765    0.4290 H       1  UNL1        0.0275
     41 H          -4.7569   -2.7080   -0.2636 H       1  UNL1        0.0345
     42 H          -4.6294   -1.0897   -1.1346 H       1  UNL1        0.0345
     43 H          -4.5133    0.9651    1.9307 H       1  UNL1        0.0652
     44 H          -2.3521    1.8619    2.2145 H       1  UNL1        0.0310
     45 H          -2.8137    2.5417    0.6572 H       1  UNL1        0.0310
     46 H          -0.1347    2.0165    1.7698 H       1  UNL1        0.0271
     47 H          -0.6092    2.8292    0.2818 H       1  UNL1        0.0271
     48 H          -0.4051    1.0019   -1.0230 H       1  UNL1        0.0307
@<TRIPOS>BOND
     1     1     2    1
     2     2     3    1
     3     3     4    1
     4     4     5    1
     5     4     6    1
     6     6     7    3
     7     4     8    1
     8     8     9    1
     9     8    10    1
    10    10    11    1
    11    11    12    1
    12    12    13    1
    13    13    14    1
    14    14    15    1
    15    15    16    1
    16    16    17    2
    17    16    18    1
    18    18    19    2
    19    19    20    1
    20    20    21    1
    21    21    22    1
    22     8     1    1
    23    22    12    1
    24    22     1    1
    25    19    13    1
    26     1    23    1
    27     2    24    1
    28     2    25    1
    29     3    26    1
    30     3    27    1
    31     5    28    1
    32     7    29    1
    33     9    30    1
    34     9    31    1
    35     9    32    1
    36    10    33    1
    37    10    34    1
    38    11    35    1
    39    11    36    1
    40    12    37    1
    41    13    38    1
    42    14    39    1
    43    14    40    1
    44    15    41    1
    45    15    42    1
    46    18    43    1
    47    20    44    1
    48    20    45    1
    49    21    46    1
    50    21    47    1
    51    22    48    1
