
     RDKit          3D

 24 24  0  0  0  0  0  0  0  0999 V2000
    4.3787   -0.1529   -0.8973 N   0  0  0  0  0  0  0  0  0  0  0  0
    3.3228   -0.0412    0.0876 C   0  0  0  0  0  0  0  0  0  0  0  0
    3.7935    0.6131    1.0540 N   0  0  0  0  0  0  0  0  0  0  0  0
    2.0883   -0.6391   -0.2524 N   0  0  0  0  0  0  0  0  0  0  0  0
    1.0468   -0.4743    0.7153 C   0  0  0  0  0  0  0  0  0  0  0  0
    1.2846    0.1650    1.7658 O   0  0  0  0  0  0  0  0  0  0  0  0
   -0.2337   -1.0822    0.3749 C   0  0  0  0  0  0  0  0  0  0  0  0
   -1.3361   -0.1762    0.0557 C   0  0  0  0  0  0  0  0  0  0  0  0
   -2.5121   -0.9097   -0.1600 C   0  0  0  0  0  0  0  0  0  0  0  0
   -2.7279   -2.6596   -0.0737 Cl  0  0  0  0  0  0  0  0  0  0  0  0
   -3.6991   -0.2506   -0.4905 C   0  0  0  0  0  0  0  0  0  0  0  0
   -3.7587    1.1362   -0.6159 C   0  0  0  0  0  0  0  0  0  0  0  0
   -2.5912    1.8515   -0.4008 C   0  0  0  0  0  0  0  0  0  0  0  0
   -1.4586    1.1755   -0.0814 C   0  0  0  0  0  0  0  0  0  0  0  0
    0.0202    2.0528    0.1767 Cl  0  0  0  0  0  0  0  0  0  0  0  0
    5.0373    0.4498   -1.4418 H   0  0  0  0  0  0  0  0  0  0  0  0
    4.5640   -1.1403   -1.1720 H   0  0  0  0  0  0  0  0  0  0  0  0
    3.3763    0.8986    1.9260 H   0  0  0  0  0  0  0  0  0  0  0  0
    1.9741   -1.1565   -1.1471 H   0  0  0  0  0  0  0  0  0  0  0  0
   -0.1594   -1.8003   -0.4921 H   0  0  0  0  0  0  0  0  0  0  0  0
   -0.5620   -1.7817    1.2150 H   0  0  0  0  0  0  0  0  0  0  0  0
   -4.6653   -0.7158   -0.6792 H   0  0  0  0  0  0  0  0  0  0  0  0
   -4.6347    1.7145   -0.8645 H   0  0  0  0  0  0  0  0  0  0  0  0
   -2.5476    2.9235   -0.4769 H   0  0  0  0  0  0  0  0  0  0  0  0
  1  2  1  0
  2  3  2  3
  2  4  1  0
  4  5  1  0
  5  6  2  0
  5  7  1  0
  7  8  1  0
  8  9  2  0
  9 10  1  0
  9 11  1  0
 11 12  2  0
 12 13  1  0
 13 14  2  0
 14 15  1  0
 14  8  1  0
  1 16  1  0
  1 17  1  0
  3 18  1  0
  4 19  1  0
  7 20  1  0
  7 21  1  0
 11 22  1  0
 12 23  1  0
 13 24  1  0
M  END
$$$$
