@<TRIPOS>MOLECULE
*****
 24 24 0 0 0
SMALL
GASTEIGER

@<TRIPOS>ATOM
      1 N           4.3787   -0.1529   -0.8973 N.pl3   1  UNL1       -0.2906
      2 C           3.3228   -0.0412    0.0876 C.2     1  UNL1        0.3748
      3 N           3.7935    0.6131    1.0540 N.pl3   1  UNL1       -0.1313
      4 N           2.0883   -0.6391   -0.2524 N.am    1  UNL1       -0.1747
      5 C           1.0468   -0.4743    0.7153 C.2     1  UNL1        0.2797
      6 O           1.2846    0.1650    1.7658 O.2     1  UNL1       -0.2570
      7 C          -0.2337   -1.0822    0.3749 C.3     1  UNL1        0.0671
      8 C          -1.3361   -0.1762    0.0557 C.ar    1  UNL1       -0.0006
      9 C          -2.5121   -0.9097   -0.1600 C.ar    1  UNL1        0.0460
     10 CL         -2.7279   -2.6596   -0.0737 Cl      1  UNL1       -0.0832
     11 C          -3.6991   -0.2506   -0.4905 C.ar    1  UNL1       -0.0430
     12 C          -3.7587    1.1362   -0.6159 C.ar    1  UNL1       -0.0590
     13 C          -2.5912    1.8515   -0.4008 C.ar    1  UNL1       -0.0430
     14 C          -1.4586    1.1755   -0.0814 C.ar    1  UNL1        0.0460
     15 CL          0.0202    2.0528    0.1767 Cl      1  UNL1       -0.0832
     16 H           5.0373    0.4498   -1.4418 H       1  UNL1        0.2545
     17 H           4.5640   -1.1403   -1.1720 H       1  UNL1        0.2545
     18 H           3.3763    0.8986    1.9260 H       1  UNL1        0.3060
     19 H           1.9741   -1.1565   -1.1471 H       1  UNL1        0.2542
     20 H          -0.1594   -1.8003   -0.4921 H       1  UNL1        0.0423
     21 H          -0.5620   -1.7817    1.2150 H       1  UNL1        0.0423
     22 H          -4.6653   -0.7158   -0.6792 H       1  UNL1        0.0632
     23 H          -4.6347    1.7145   -0.8645 H       1  UNL1        0.0618
     24 H          -2.5476    2.9235   -0.4769 H       1  UNL1        0.0632
@<TRIPOS>BOND
     1     1     2    1
     2     2     3    2
     3     2     4    1
     4     4     5   am
     5     5     6    2
     6     5     7    1
     7     7     8    1
     8     8     9   ar
     9     9    10    1
    10     9    11   ar
    11    11    12   ar
    12    12    13   ar
    13    13    14   ar
    14    14    15    1
    15    14     8   ar
    16     1    16    1
    17     1    17    1
    18     3    18    1
    19     4    19    1
    20     7    20    1
    21     7    21    1
    22    11    22    1
    23    12    23    1
    24    13    24    1
