@<TRIPOS>MOLECULE
*****
 45 47 0 0 0
SMALL
GASTEIGER

@<TRIPOS>ATOM
      1 C           8.0592    0.4960   -1.9548 C.3     1  UNL1        0.0788
      2 O           6.9375   -0.2306   -1.5378 O.3     1  UNL1       -0.4951
      3 C           5.7629    0.3379   -1.0639 C.ar    1  UNL1        0.1219
      4 C           5.6639    1.7070   -0.9871 C.ar    1  UNL1       -0.0198
      5 C           4.4808    2.2153   -0.5117 C.ar    1  UNL1       -0.0566
      6 C           3.4141    1.4209   -0.1180 C.ar    1  UNL1       -0.0402
      7 C           3.5243    0.0605   -0.1989 C.ar    1  UNL1        0.0369
      8 N           2.4902   -0.8260    0.1794 N.am    1  UNL1       -0.2850
      9 C           1.2190   -0.5071    0.6835 C.2     1  UNL1        0.2245
     10 O           0.8951    0.6826    0.8427 O.2     1  UNL1       -0.2750
     11 C           0.2229   -1.5671    1.0423 C.3     1  UNL1        0.0824
     12 C          -1.0357   -0.9402    1.5497 C.ar    1  UNL1        0.1206
     13 N          -2.0125   -0.6358    0.6808 N.ar    1  UNL1       -0.2186
     14 C          -3.1887   -0.0698    1.0172 C.ar    1  UNL1        0.1285
     15 N          -4.1798    0.2284    0.0459 N.pl3   1  UNL1       -0.3106
     16 C          -3.8843   -0.0426   -1.3506 C.3     1  UNL1        0.0370
     17 C          -5.0293   -0.8969   -1.8662 C.3     1  UNL1        0.0634
     18 O          -6.2326   -0.2025   -1.7480 O.3     1  UNL1       -0.3767
     19 C          -6.5798    0.0558   -0.4481 C.3     1  UNL1        0.0634
     20 C          -5.4761    0.7865    0.3334 C.3     1  UNL1        0.0370
     21 C          -3.3768    0.2053    2.3508 C.ar    1  UNL1        0.0427
     22 C          -2.3568   -0.1127    3.2576 C.ar    1  UNL1        0.2533
     23 O          -2.5223    0.1361    4.4779 O.2     1  UNL1       -0.2677
     24 N          -1.2153   -0.6731    2.8544 N.ar    1  UNL1       -0.3104
     25 C           4.7331   -0.4726   -0.6851 C.ar    1  UNL1        0.0013
     26 H           8.9344   -0.1834   -1.9772 H       1  UNL1        0.0660
     27 H           8.2715    1.3311   -1.2643 H       1  UNL1        0.0660
     28 H           7.8606    0.9143   -2.9617 H       1  UNL1        0.0660
     29 H           6.4965    2.3370   -1.2941 H       1  UNL1        0.0654
     30 H           4.3824    3.2945   -0.4432 H       1  UNL1        0.0619
     31 H           2.5334    1.9120    0.2391 H       1  UNL1        0.0636
     32 H           2.6896   -1.8634    0.0729 H       1  UNL1        0.1548
     33 H           0.6140   -2.2520    1.8204 H       1  UNL1        0.0438
     34 H          -0.0143   -2.1696    0.1553 H       1  UNL1        0.0438
     35 H          -3.7813    0.8939   -1.9360 H       1  UNL1        0.0487
     36 H          -2.9537   -0.6177   -1.4424 H       1  UNL1        0.0487
     37 H          -5.0223   -1.8558   -1.3378 H       1  UNL1        0.0575
     38 H          -4.8706   -1.0731   -2.9458 H       1  UNL1        0.0575
     39 H          -7.4548    0.7354   -0.4551 H       1  UNL1        0.0575
     40 H          -6.8257   -0.8547    0.1354 H       1  UNL1        0.0575
     41 H          -5.4808    1.8161   -0.0942 H       1  UNL1        0.0487
     42 H          -5.7681    0.7945    1.3816 H       1  UNL1        0.0487
     43 H          -4.2873    0.6597    2.7143 H       1  UNL1        0.0706
     44 H          -0.4521   -0.9107    3.5351 H       1  UNL1        0.1700
     45 H           4.8158   -1.5638   -0.7478 H       1  UNL1        0.0673
@<TRIPOS>BOND
     1     1     2    1
     2     2     3    1
     3     3     4   ar
     4     4     5   ar
     5     5     6   ar
     6     6     7   ar
     7     7     8    1
     8     8     9   am
     9     9    10    2
    10     9    11    1
    11    11    12    1
    12    12    13   ar
    13    13    14   ar
    14    14    15    1
    15    15    16    1
    16    16    17    1
    17    17    18    1
    18    18    19    1
    19    19    20    1
    20    14    21   ar
    21    21    22   ar
    22    22    23    2
    23    22    24   ar
    24     7    25   ar
    25    25     3   ar
    26    24    12   ar
    27    20    15    1
    28     1    26    1
    29     1    27    1
    30     1    28    1
    31     4    29    1
    32     5    30    1
    33     6    31    1
    34     8    32    1
    35    11    33    1
    36    11    34    1
    37    16    35    1
    38    16    36    1
    39    17    37    1
    40    17    38    1
    41    19    39    1
    42    19    40    1
    43    20    41    1
    44    20    42    1
    45    21    43    1
    46    24    44    1
    47    25    45    1
