
     RDKit          3D

 45 47  0  0  0  0  0  0  0  0999 V2000
    8.0592    0.4960   -1.9548 C   0  0  0  0  0  0  0  0  0  0  0  0
    6.9375   -0.2306   -1.5378 O   0  0  0  0  0  0  0  0  0  0  0  0
    5.7629    0.3379   -1.0639 C   0  0  0  0  0  0  0  0  0  0  0  0
    5.6639    1.7070   -0.9871 C   0  0  0  0  0  0  0  0  0  0  0  0
    4.4808    2.2153   -0.5117 C   0  0  0  0  0  0  0  0  0  0  0  0
    3.4141    1.4209   -0.1180 C   0  0  0  0  0  0  0  0  0  0  0  0
    3.5243    0.0605   -0.1989 C   0  0  0  0  0  0  0  0  0  0  0  0
    2.4902   -0.8260    0.1794 N   0  0  0  0  0  0  0  0  0  0  0  0
    1.2190   -0.5071    0.6835 C   0  0  0  0  0  0  0  0  0  0  0  0
    0.8951    0.6826    0.8427 O   0  0  0  0  0  0  0  0  0  0  0  0
    0.2229   -1.5671    1.0423 C   0  0  0  0  0  0  0  0  0  0  0  0
   -1.0357   -0.9402    1.5497 C   0  0  0  0  0  0  0  0  0  0  0  0
   -2.0125   -0.6358    0.6808 N   0  0  0  0  0  0  0  0  0  0  0  0
   -3.1887   -0.0698    1.0172 C   0  0  0  0  0  0  0  0  0  0  0  0
   -4.1798    0.2284    0.0459 N   0  0  0  0  0  0  0  0  0  0  0  0
   -3.8843   -0.0426   -1.3506 C   0  0  0  0  0  0  0  0  0  0  0  0
   -5.0293   -0.8969   -1.8662 C   0  0  0  0  0  0  0  0  0  0  0  0
   -6.2326   -0.2025   -1.7480 O   0  0  0  0  0  0  0  0  0  0  0  0
   -6.5798    0.0558   -0.4481 C   0  0  0  0  0  0  0  0  0  0  0  0
   -5.4761    0.7865    0.3334 C   0  0  0  0  0  0  0  0  0  0  0  0
   -3.3768    0.2053    2.3508 C   0  0  0  0  0  0  0  0  0  0  0  0
   -2.3568   -0.1127    3.2576 C   0  0  0  0  0  0  0  0  0  0  0  0
   -2.5223    0.1361    4.4779 O   0  0  0  0  0  0  0  0  0  0  0  0
   -1.2153   -0.6731    2.8544 N   0  0  0  0  0  0  0  0  0  0  0  0
    4.7331   -0.4726   -0.6851 C   0  0  0  0  0  0  0  0  0  0  0  0
    8.9344   -0.1834   -1.9772 H   0  0  0  0  0  0  0  0  0  0  0  0
    8.2715    1.3311   -1.2643 H   0  0  0  0  0  0  0  0  0  0  0  0
    7.8606    0.9143   -2.9617 H   0  0  0  0  0  0  0  0  0  0  0  0
    6.4965    2.3370   -1.2941 H   0  0  0  0  0  0  0  0  0  0  0  0
    4.3824    3.2945   -0.4432 H   0  0  0  0  0  0  0  0  0  0  0  0
    2.5334    1.9120    0.2391 H   0  0  0  0  0  0  0  0  0  0  0  0
    2.6896   -1.8634    0.0729 H   0  0  0  0  0  0  0  0  0  0  0  0
    0.6140   -2.2520    1.8204 H   0  0  0  0  0  0  0  0  0  0  0  0
   -0.0143   -2.1696    0.1553 H   0  0  0  0  0  0  0  0  0  0  0  0
   -3.7813    0.8939   -1.9360 H   0  0  0  0  0  0  0  0  0  0  0  0
   -2.9537   -0.6177   -1.4424 H   0  0  0  0  0  0  0  0  0  0  0  0
   -5.0223   -1.8558   -1.3378 H   0  0  0  0  0  0  0  0  0  0  0  0
   -4.8706   -1.0731   -2.9458 H   0  0  0  0  0  0  0  0  0  0  0  0
   -7.4548    0.7354   -0.4551 H   0  0  0  0  0  0  0  0  0  0  0  0
   -6.8257   -0.8547    0.1354 H   0  0  0  0  0  0  0  0  0  0  0  0
   -5.4808    1.8161   -0.0942 H   0  0  0  0  0  0  0  0  0  0  0  0
   -5.7681    0.7945    1.3816 H   0  0  0  0  0  0  0  0  0  0  0  0
   -4.2873    0.6597    2.7143 H   0  0  0  0  0  0  0  0  0  0  0  0
   -0.4521   -0.9107    3.5351 H   0  0  0  0  0  0  0  0  0  0  0  0
    4.8158   -1.5638   -0.7478 H   0  0  0  0  0  0  0  0  0  0  0  0
  1  2  1  0
  2  3  1  0
  3  4  2  0
  4  5  1  0
  5  6  2  0
  6  7  1  0
  7  8  1  0
  8  9  1  0
  9 10  2  0
  9 11  1  0
 11 12  1  0
 12 13  2  0
 13 14  1  0
 14 15  1  0
 15 16  1  0
 16 17  1  0
 17 18  1  0
 18 19  1  0
 19 20  1  0
 14 21  2  0
 21 22  1  0
 22 23  2  0
 22 24  1  0
  7 25  2  0
 25  3  1  0
 24 12  1  0
 20 15  1  0
  1 26  1  0
  1 27  1  0
  1 28  1  0
  4 29  1  0
  5 30  1  0
  6 31  1  0
  8 32  1  0
 11 33  1  0
 11 34  1  0
 16 35  1  0
 16 36  1  0
 17 37  1  0
 17 38  1  0
 19 39  1  0
 19 40  1  0
 20 41  1  0
 20 42  1  0
 21 43  1  0
 24 44  1  0
 25 45  1  0
M  END
$$$$
