
     RDKit          3D

 50 52  0  0  0  0  0  0  0  0999 V2000
   -4.2767   -2.0846    2.6458 C   0  0  0  0  0  0  0  0  0  0  0  0
   -3.1465   -1.1634    2.3175 C   0  0  0  0  0  0  0  0  0  0  0  0
   -2.6897   -1.3460    0.8734 C   0  0  0  0  0  0  0  0  0  0  0  0
   -1.5414   -0.3773    0.6166 C   0  0  0  0  0  0  0  0  0  0  0  0
   -1.0687   -0.4957   -0.7118 N   0  0  0  0  0  0  0  0  0  0  0  0
   -1.0465    0.6595   -1.5286 C   0  0  0  0  0  0  0  0  0  0  0  0
   -0.8432    1.9693   -0.8464 C   0  0  0  0  0  0  0  0  0  0  0  0
   -2.0741    2.8561   -0.8860 C   0  0  0  0  0  0  0  0  0  0  0  0
   -2.4995    3.1347   -2.2347 N   0  0  0  0  0  0  0  0  0  0  0  0
   -2.3960    2.0390   -3.1276 C   0  0  0  0  0  0  0  0  0  0  0  0
   -2.2389    0.6966   -2.4609 C   0  0  0  0  0  0  0  0  0  0  0  0
    0.1600   -1.6328   -0.9705 S   0  0  0  0  0  6  0  0  0  0  0  0
   -0.2753   -3.0362   -0.6269 O   0  0  0  0  0  0  0  0  0  0  0  0
    0.4615   -1.6519   -2.4633 O   0  0  0  0  0  0  0  0  0  0  0  0
    1.6233   -1.3105   -0.0912 C   0  0  0  0  0  0  0  0  0  0  0  0
    1.8208   -1.8190    1.1710 C   0  0  0  0  0  0  0  0  0  0  0  0
    2.9870   -1.5557    1.8587 C   0  0  0  0  0  0  0  0  0  0  0  0
    3.9701   -0.7739    1.2788 C   0  0  0  0  0  0  0  0  0  0  0  0
    5.1550   -0.4851    1.9336 C   0  0  0  0  0  0  0  0  0  0  0  0
    6.1319    0.2941    1.3528 C   0  0  0  0  0  0  0  0  0  0  0  0
    5.9568    0.8219    0.0746 C   0  0  0  0  0  0  0  0  0  0  0  0
    4.7739    0.5278   -0.5672 C   0  0  0  0  0  0  0  0  0  0  0  0
    3.7997   -0.2544    0.0227 C   0  0  0  0  0  0  0  0  0  0  0  0
    2.6189   -0.5370   -0.6405 C   0  0  0  0  0  0  0  0  0  0  0  0
   -4.8340   -2.4426    1.7668 H   0  0  0  0  0  0  0  0  0  0  0  0
   -3.9122   -2.9677    3.2345 H   0  0  0  0  0  0  0  0  0  0  0  0
   -4.9970   -1.5640    3.3334 H   0  0  0  0  0  0  0  0  0  0  0  0
   -3.5027   -0.1119    2.3845 H   0  0  0  0  0  0  0  0  0  0  0  0
   -2.2871   -1.3174    3.0253 H   0  0  0  0  0  0  0  0  0  0  0  0
   -2.4226   -2.3810    0.6698 H   0  0  0  0  0  0  0  0  0  0  0  0
   -3.5776   -1.0986    0.2425 H   0  0  0  0  0  0  0  0  0  0  0  0
   -0.7317   -0.6870    1.3304 H   0  0  0  0  0  0  0  0  0  0  0  0
   -1.9439    0.6129    0.8160 H   0  0  0  0  0  0  0  0  0  0  0  0
   -0.1480    0.5345   -2.2112 H   0  0  0  0  0  0  0  0  0  0  0  0
   -0.5217    1.9142    0.2093 H   0  0  0  0  0  0  0  0  0  0  0  0
   -0.0364    2.5948   -1.3383 H   0  0  0  0  0  0  0  0  0  0  0  0
   -2.9204    2.4830   -0.3086 H   0  0  0  0  0  0  0  0  0  0  0  0
   -1.7682    3.8266   -0.4322 H   0  0  0  0  0  0  0  0  0  0  0  0
   -2.0901    4.0192   -2.6021 H   0  0  0  0  0  0  0  0  0  0  0  0
   -3.3190    1.9926   -3.7420 H   0  0  0  0  0  0  0  0  0  0  0  0
   -1.5492    2.2329   -3.8280 H   0  0  0  0  0  0  0  0  0  0  0  0
   -2.0643   -0.0454   -3.2694 H   0  0  0  0  0  0  0  0  0  0  0  0
   -3.1852    0.4144   -1.9613 H   0  0  0  0  0  0  0  0  0  0  0  0
    1.0659   -2.4446    1.6686 H   0  0  0  0  0  0  0  0  0  0  0  0
    3.1662   -1.9465    2.8578 H   0  0  0  0  0  0  0  0  0  0  0  0
    5.3283   -0.8689    2.9122 H   0  0  0  0  0  0  0  0  0  0  0  0
    7.0665    0.5357    1.8409 H   0  0  0  0  0  0  0  0  0  0  0  0
    6.7298    1.4366   -0.3810 H   0  0  0  0  0  0  0  0  0  0  0  0
    4.5837    0.9176   -1.5758 H   0  0  0  0  0  0  0  0  0  0  0  0
    2.5087   -0.1147   -1.6318 H   0  0  0  0  0  0  0  0  0  0  0  0
  1  2  1  0
  2  3  1  0
  3  4  1  0
  4  5  1  0
  5  6  1  0
  6  7  1  0
  7  8  1  0
  8  9  1  0
  9 10  1  0
 10 11  1  0
  5 12  1  0
 12 13  2  0
 12 14  2  0
 12 15  1  0
 15 16  2  0
 16 17  1  0
 17 18  2  0
 18 19  1  0
 19 20  2  0
 20 21  1  0
 21 22  2  0
 22 23  1  0
 23 24  2  0
 11  6  1  0
 24 15  1  0
 23 18  1  0
  1 25  1  0
  1 26  1  0
  1 27  1  0
  2 28  1  0
  2 29  1  0
  3 30  1  0
  3 31  1  0
  4 32  1  0
  4 33  1  0
  6 34  1  0
  7 35  1  0
  7 36  1  0
  8 37  1  0
  8 38  1  0
  9 39  1  0
 10 40  1  0
 10 41  1  0
 11 42  1  0
 11 43  1  0
 16 44  1  0
 17 45  1  0
 19 46  1  0
 20 47  1  0
 21 48  1  0
 22 49  1  0
 24 50  1  0
M  END
$$$$
