@<TRIPOS>MOLECULE
*****
 50 52 0 0 0
SMALL
GASTEIGER

@<TRIPOS>ATOM
      1 C          -4.2767   -2.0846    2.6458 C.3     1  UNL1       -0.0652
      2 C          -3.1465   -1.1634    2.3175 C.3     1  UNL1       -0.0547
      3 C          -2.6897   -1.3460    0.8734 C.3     1  UNL1       -0.0388
      4 C          -1.5414   -0.3773    0.6166 C.3     1  UNL1        0.0208
      5 N          -1.0687   -0.4957   -0.7118 N.3     1  UNL1       -0.1735
      6 C          -1.0465    0.6595   -1.5286 C.3     1  UNL1        0.0342
      7 C          -0.8432    1.9693   -0.8464 C.3     1  UNL1       -0.0231
      8 C          -2.0741    2.8561   -0.8860 C.3     1  UNL1       -0.0026
      9 N          -2.4995    3.1347   -2.2347 N.3     1  UNL1       -0.3159
     10 C          -2.3960    2.0390   -3.1276 C.3     1  UNL1       -0.0026
     11 C          -2.2389    0.6966   -2.4609 C.3     1  UNL1       -0.0231
     12 S           0.1600   -1.6328   -0.9705 S.O2    1  UNL1        0.0611
     13 O          -0.2753   -3.0362   -0.6269 O.2     1  UNL1       -0.1528
     14 O           0.4615   -1.6519   -2.4633 O.2     1  UNL1       -0.1528
     15 C           1.6233   -1.3105   -0.0912 C.ar    1  UNL1        0.1061
     16 C           1.8208   -1.8190    1.1710 C.ar    1  UNL1       -0.0348
     17 C           2.9870   -1.5557    1.8587 C.ar    1  UNL1       -0.0522
     18 C           3.9701   -0.7739    1.2788 C.ar    1  UNL1       -0.0178
     19 C           5.1550   -0.4851    1.9336 C.ar    1  UNL1       -0.0540
     20 C           6.1319    0.2941    1.3528 C.ar    1  UNL1       -0.0612
     21 C           5.9568    0.8219    0.0746 C.ar    1  UNL1       -0.0612
     22 C           4.7739    0.5278   -0.5672 C.ar    1  UNL1       -0.0540
     23 C           3.7997   -0.2544    0.0227 C.ar    1  UNL1       -0.0160
     24 C           2.6189   -0.5370   -0.6405 C.ar    1  UNL1       -0.0276
     25 H          -4.8340   -2.4426    1.7668 H       1  UNL1        0.0230
     26 H          -3.9122   -2.9677    3.2345 H       1  UNL1        0.0230
     27 H          -4.9970   -1.5640    3.3334 H       1  UNL1        0.0230
     28 H          -3.5027   -0.1119    2.3845 H       1  UNL1        0.0263
     29 H          -2.2871   -1.3174    3.0253 H       1  UNL1        0.0263
     30 H          -2.4226   -2.3810    0.6698 H       1  UNL1        0.0278
     31 H          -3.5776   -1.0986    0.2425 H       1  UNL1        0.0278
     32 H          -0.7317   -0.6870    1.3304 H       1  UNL1        0.0444
     33 H          -1.9439    0.6129    0.8160 H       1  UNL1        0.0444
     34 H          -0.1480    0.5345   -2.2112 H       1  UNL1        0.0481
     35 H          -0.5217    1.9142    0.2093 H       1  UNL1        0.0293
     36 H          -0.0364    2.5948   -1.3383 H       1  UNL1        0.0293
     37 H          -2.9204    2.4830   -0.3086 H       1  UNL1        0.0424
     38 H          -1.7682    3.8266   -0.4322 H       1  UNL1        0.0424
     39 H          -2.0901    4.0192   -2.6021 H       1  UNL1        0.1219
     40 H          -3.3190    1.9926   -3.7420 H       1  UNL1        0.0424
     41 H          -1.5492    2.2329   -3.8280 H       1  UNL1        0.0424
     42 H          -2.0643   -0.0454   -3.2694 H       1  UNL1        0.0293
     43 H          -3.1852    0.4144   -1.9613 H       1  UNL1        0.0293
     44 H           1.0659   -2.4446    1.6686 H       1  UNL1        0.0637
     45 H           3.1662   -1.9465    2.8578 H       1  UNL1        0.0624
     46 H           5.3283   -0.8689    2.9122 H       1  UNL1        0.0624
     47 H           7.0665    0.5357    1.8409 H       1  UNL1        0.0618
     48 H           6.7298    1.4366   -0.3810 H       1  UNL1        0.0618
     49 H           4.5837    0.9176   -1.5758 H       1  UNL1        0.0624
     50 H           2.5087   -0.1147   -1.6318 H       1  UNL1        0.0643
@<TRIPOS>BOND
     1     1     2    1
     2     2     3    1
     3     3     4    1
     4     4     5    1
     5     5     6    1
     6     6     7    1
     7     7     8    1
     8     8     9    1
     9     9    10    1
    10    10    11    1
    11     5    12    1
    12    12    13    2
    13    12    14    2
    14    12    15    1
    15    15    16   ar
    16    16    17   ar
    17    17    18   ar
    18    18    19   ar
    19    19    20   ar
    20    20    21   ar
    21    21    22   ar
    22    22    23   ar
    23    23    24   ar
    24    11     6    1
    25    24    15   ar
    26    23    18   ar
    27     1    25    1
    28     1    26    1
    29     1    27    1
    30     2    28    1
    31     2    29    1
    32     3    30    1
    33     3    31    1
    34     4    32    1
    35     4    33    1
    36     6    34    1
    37     7    35    1
    38     7    36    1
    39     8    37    1
    40     8    38    1
    41     9    39    1
    42    10    40    1
    43    10    41    1
    44    11    42    1
    45    11    43    1
    46    16    44    1
    47    17    45    1
    48    19    46    1
    49    20    47    1
    50    21    48    1
    51    22    49    1
    52    24    50    1
