
     RDKit          3D

 36 38  0  0  0  0  0  0  0  0999 V2000
   -5.5858    0.0875   -1.1964 C   0  0  0  0  0  0  0  0  0  0  0  0
   -4.8581    0.3040    0.1259 C   0  0  0  0  0  0  0  0  0  0  0  0
   -3.8806    1.4397   -0.0210 C   0  0  0  0  0  0  0  0  0  0  0  0
   -2.4991    0.8098   -0.0269 C   0  0  0  0  0  0  0  0  0  0  0  0
   -2.6931   -0.4038    0.8091 C   0  0  0  0  0  0  0  0  0  0  0  0
   -1.8317   -0.9016    1.5999 N   0  0  0  0  0  0  0  0  0  0  0  0
   -0.5748   -0.3268    1.7586 N   0  0  0  0  0  0  0  0  0  0  0  0
    0.5119   -0.6034    0.9014 C   0  0  0  0  0  0  0  0  0  0  0  0
    1.6818   -0.2941    0.7590 N   0  0  0  0  0  0  0  0  0  0  0  0
    2.5099   -0.7164   -0.1662 C   0  0  0  0  0  0  0  0  0  0  0  0
    3.9384   -0.2611   -0.2403 C   0  0  0  0  0  0  0  0  0  0  0  0
    4.4192    0.6480    0.7065 C   0  0  0  0  0  0  0  0  0  0  0  0
    5.7159    1.1113    0.7035 C   0  0  0  0  0  0  0  0  0  0  0  0
    6.5784    0.6561   -0.2797 C   0  0  0  0  0  0  0  0  0  0  0  0
    7.8669    1.0746   -0.3364 F   0  0  0  0  0  0  0  0  0  0  0  0
    6.1431   -0.2270   -1.2141 C   0  0  0  0  0  0  0  0  0  0  0  0
    4.8196   -0.6768   -1.1814 C   0  0  0  0  0  0  0  0  0  0  0  0
    4.4178   -1.5603   -2.1317 F   0  0  0  0  0  0  0  0  0  0  0  0
    2.0321   -1.5972   -1.0780 C   0  0  0  0  0  0  0  0  0  0  0  0
    0.2515   -1.8077   -0.5266 S   0  0  0  0  0  0  0  0  0  0  0  0
   -4.0804   -0.9034    0.5307 C   0  0  0  0  0  0  0  0  0  0  0  0
   -4.8329   -0.1739   -1.9623 H   0  0  0  0  0  0  0  0  0  0  0  0
   -6.1018    1.0139   -1.4668 H   0  0  0  0  0  0  0  0  0  0  0  0
   -6.3349   -0.7234   -1.0790 H   0  0  0  0  0  0  0  0  0  0  0  0
   -5.6554    0.5105    0.8750 H   0  0  0  0  0  0  0  0  0  0  0  0
   -4.0515    2.0438   -0.9305 H   0  0  0  0  0  0  0  0  0  0  0  0
   -3.9274    2.1364    0.8562 H   0  0  0  0  0  0  0  0  0  0  0  0
   -1.7282    1.4934    0.3891 H   0  0  0  0  0  0  0  0  0  0  0  0
   -2.2844    0.5230   -1.0771 H   0  0  0  0  0  0  0  0  0  0  0  0
   -0.4198    0.3343    2.5369 H   0  0  0  0  0  0  0  0  0  0  0  0
    3.7486    1.0008    1.4696 H   0  0  0  0  0  0  0  0  0  0  0  0
    6.0932    1.8124    1.4308 H   0  0  0  0  0  0  0  0  0  0  0  0
    6.7563   -0.6239   -2.0073 H   0  0  0  0  0  0  0  0  0  0  0  0
    2.3726   -2.1331   -1.9241 H   0  0  0  0  0  0  0  0  0  0  0  0
   -4.0450   -1.6980   -0.2298 H   0  0  0  0  0  0  0  0  0  0  0  0
   -4.4724   -1.3678    1.4732 H   0  0  0  0  0  0  0  0  0  0  0  0
  1  2  1  0
  2  3  1  0
  3  4  1  0
  4  5  1  0
  5  6  2  0
  6  7  1  0
  7  8  1  0
  8  9  2  0
  9 10  1  0
 10 11  1  0
 11 12  2  0
 12 13  1  0
 13 14  2  0
 14 15  1  0
 14 16  1  0
 16 17  2  0
 17 18  1  0
 10 19  2  0
 19 20  1  0
  5 21  1  0
 21  2  1  0
 20  8  1  0
 17 11  1  0
  1 22  1  0
  1 23  1  0
  1 24  1  0
  2 25  1  0
  3 26  1  0
  3 27  1  0
  4 28  1  0
  4 29  1  0
  7 30  1  0
 12 31  1  0
 13 32  1  0
 16 33  1  0
 19 34  1  0
 21 35  1  0
 21 36  1  0
M  END
$$$$
