@<TRIPOS>MOLECULE
*****
 36 38 0 0 0
SMALL
GASTEIGER

@<TRIPOS>ATOM
      1 C          -5.5858    0.0875   -1.1964 C.3     1  UNL1       -0.0621
      2 C          -4.8581    0.3040    0.1259 C.3     1  UNL1       -0.0384
      3 C          -3.8806    1.4397   -0.0210 C.3     1  UNL1       -0.0450
      4 C          -2.4991    0.8098   -0.0269 C.3     1  UNL1       -0.0126
      5 C          -2.6931   -0.4038    0.8091 C.2     1  UNL1        0.0371
      6 N          -1.8317   -0.9016    1.5999 N.2     1  UNL1       -0.1898
      7 N          -0.5748   -0.3268    1.7586 N.pl3   1  UNL1       -0.2153
      8 C           0.5119   -0.6034    0.9014 C.ar    1  UNL1        0.1783
      9 N           1.6818   -0.2941    0.7590 N.ar    1  UNL1       -0.2235
     10 C           2.5099   -0.7164   -0.1662 C.ar    1  UNL1        0.0830
     11 C           3.9384   -0.2611   -0.2403 C.ar    1  UNL1        0.0363
     12 C           4.4192    0.6480    0.7065 C.ar    1  UNL1       -0.0471
     13 C           5.7159    1.1113    0.7035 C.ar    1  UNL1       -0.0257
     14 C           6.5784    0.6561   -0.2797 C.ar    1  UNL1        0.1262
     15 F           7.8669    1.0746   -0.3364 F       1  UNL1       -0.2054
     16 C           6.1431   -0.2270   -1.2141 C.ar    1  UNL1        0.0095
     17 C           4.8196   -0.6768   -1.1814 C.ar    1  UNL1        0.1353
     18 F           4.4178   -1.5603   -2.1317 F       1  UNL1       -0.2047
     19 C           2.0321   -1.5972   -1.0780 C.ar    1  UNL1        0.0050
     20 S           0.2515   -1.8077   -0.5266 S.2     1  UNL1       -0.0586
     21 C          -4.0804   -0.9034    0.5307 C.3     1  UNL1       -0.0102
     22 H          -4.8329   -0.1739   -1.9623 H       1  UNL1        0.0233
     23 H          -6.1018    1.0139   -1.4668 H       1  UNL1        0.0233
     24 H          -6.3349   -0.7234   -1.0790 H       1  UNL1        0.0233
     25 H          -5.6554    0.5105    0.8750 H       1  UNL1        0.0302
     26 H          -4.0515    2.0438   -0.9305 H       1  UNL1        0.0271
     27 H          -3.9274    2.1364    0.8562 H       1  UNL1        0.0271
     28 H          -1.7282    1.4934    0.3891 H       1  UNL1        0.0326
     29 H          -2.2844    0.5230   -1.0771 H       1  UNL1        0.0326
     30 H          -0.4198    0.3343    2.5369 H       1  UNL1        0.1765
     31 H           3.7486    1.0008    1.4696 H       1  UNL1        0.0626
     32 H           6.0932    1.8124    1.4308 H       1  UNL1        0.0646
     33 H           6.7563   -0.6239   -2.0073 H       1  UNL1        0.0675
     34 H           2.3726   -2.1331   -1.9241 H       1  UNL1        0.0716
     35 H          -4.0450   -1.6980   -0.2298 H       1  UNL1        0.0328
     36 H          -4.4724   -1.3678    1.4732 H       1  UNL1        0.0328
@<TRIPOS>BOND
     1     1     2    1
     2     2     3    1
     3     3     4    1
     4     4     5    1
     5     5     6    2
     6     6     7    1
     7     7     8    1
     8     8     9   ar
     9     9    10   ar
    10    10    11    1
    11    11    12   ar
    12    12    13   ar
    13    13    14   ar
    14    14    15    1
    15    14    16   ar
    16    16    17   ar
    17    17    18    1
    18    10    19   ar
    19    19    20   ar
    20     5    21    1
    21    21     2    1
    22    20     8   ar
    23    17    11   ar
    24     1    22    1
    25     1    23    1
    26     1    24    1
    27     2    25    1
    28     3    26    1
    29     3    27    1
    30     4    28    1
    31     4    29    1
    32     7    30    1
    33    12    31    1
    34    13    32    1
    35    16    33    1
    36    19    34    1
    37    21    35    1
    38    21    36    1
