@<TRIPOS>MOLECULE
*****
 49 51 0 0 0
SMALL
GASTEIGER

@<TRIPOS>ATOM
      1 O          -5.4927    0.0527    0.7828 O.2     1  UNL1       -0.2510
      2 C          -5.1272    0.3689   -0.3733 C.2     1  UNL1        0.3047
      3 O          -5.5201    1.6374   -0.8072 O.3     1  UNL1       -0.4806
      4 C          -4.3317   -0.5454   -1.2184 C.3     1  UNL1        0.0456
      5 C          -2.9868   -0.1007   -1.5611 C.3     1  UNL1       -0.0319
      6 C          -1.9728    0.1508   -0.5037 C.3     1  UNL1        0.0122
      7 C          -1.7187   -1.0709    0.2993 C.ar    1  UNL1       -0.0368
      8 C          -2.3871   -1.3024    1.5004 C.ar    1  UNL1       -0.0398
      9 C          -2.1470   -2.4509    2.2221 C.ar    1  UNL1        0.0278
     10 N          -1.2681   -3.3927    1.8098 N.ar    1  UNL1       -0.2632
     11 C          -0.6253   -3.1937    0.6763 C.ar    1  UNL1        0.0278
     12 C          -0.8359   -2.0412   -0.0926 C.ar    1  UNL1       -0.0398
     13 C          -2.2618    1.3290    0.3940 C.3     1  UNL1       -0.0405
     14 C          -1.0627    1.4770    1.3421 C.3     1  UNL1       -0.0362
     15 C           0.0734    2.0470    0.4791 C.3     1  UNL1        0.0162
     16 N           0.3799    0.9987   -0.4637 N.am    1  UNL1       -0.2845
     17 C           1.7078    0.4488   -0.6411 C.2     1  UNL1        0.3065
     18 O           1.8923   -0.4547   -1.4920 O.2     1  UNL1       -0.2523
     19 N           2.8344    0.8697    0.0929 N.am    1  UNL1       -0.2693
     20 C           4.1598    0.4121    0.0072 C.ar    1  UNL1        0.0349
     21 C           5.1326    0.9815    0.8477 C.ar    1  UNL1       -0.0391
     22 C           6.4517    0.5980    0.8376 C.ar    1  UNL1       -0.0416
     23 C           6.8853   -0.3749   -0.0086 C.ar    1  UNL1        0.0411
     24 CL          8.5713   -0.8283    0.0167 Cl      1  UNL1       -0.0835
     25 C           5.9740   -0.9576   -0.8449 C.ar    1  UNL1       -0.0416
     26 C           4.6172   -0.5588   -0.8303 C.ar    1  UNL1       -0.0391
     27 C          -0.7032    0.5135   -1.2570 C.3     1  UNL1        0.0258
     28 H          -5.6840    2.3795   -0.1181 H       1  UNL1        0.2951
     29 H          -4.4067   -1.5569   -0.7582 H       1  UNL1        0.0378
     30 H          -4.9443   -0.6587   -2.1662 H       1  UNL1        0.0378
     31 H          -2.5216   -0.8558   -2.2649 H       1  UNL1        0.0279
     32 H          -3.1043    0.7974   -2.2490 H       1  UNL1        0.0279
     33 H          -3.1016   -0.6042    1.9060 H       1  UNL1        0.0636
     34 H          -2.6856   -2.6070    3.1592 H       1  UNL1        0.0829
     35 H           0.0833   -3.9508    0.3416 H       1  UNL1        0.0829
     36 H          -0.2740   -1.9844   -0.9875 H       1  UNL1        0.0636
     37 H          -2.2670    2.2496   -0.2118 H       1  UNL1        0.0275
     38 H          -3.1147    1.2382    1.0506 H       1  UNL1        0.0275
     39 H          -0.7821    0.5283    1.8079 H       1  UNL1        0.0281
     40 H          -1.3352    2.2436    2.0624 H       1  UNL1        0.0281
     41 H          -0.3982    2.8862   -0.1017 H       1  UNL1        0.0465
     42 H           0.8930    2.3972    1.0887 H       1  UNL1        0.0465
     43 H           2.6593    1.6419    0.8135 H       1  UNL1        0.1564
     44 H           4.8304    1.7568    1.5333 H       1  UNL1        0.0636
     45 H           7.1345    1.0987    1.5293 H       1  UNL1        0.0633
     46 H           6.2787   -1.7216   -1.5197 H       1  UNL1        0.0633
     47 H           3.9306   -1.0430   -1.5057 H       1  UNL1        0.0636
     48 H          -0.4043   -0.2434   -2.0085 H       1  UNL1        0.0474
     49 H          -1.0249    1.3951   -1.8964 H       1  UNL1        0.0474
@<TRIPOS>BOND
     1     1     2    2
     2     2     3    1
     3     2     4    1
     4     4     5    1
     5     5     6    1
     6     6     7    1
     7     7     8   ar
     8     8     9   ar
     9     9    10   ar
    10    10    11   ar
    11    11    12   ar
    12     6    13    1
    13    13    14    1
    14    14    15    1
    15    15    16    1
    16    16    17   am
    17    17    18    2
    18    17    19   am
    19    19    20    1
    20    20    21   ar
    21    21    22   ar
    22    22    23   ar
    23    23    24    1
    24    23    25   ar
    25    25    26   ar
    26    16    27    1
    27    27     6    1
    28    12     7   ar
    29    26    20   ar
    30     3    28    1
    31     4    29    1
    32     4    30    1
    33     5    31    1
    34     5    32    1
    35     8    33    1
    36     9    34    1
    37    11    35    1
    38    12    36    1
    39    13    37    1
    40    13    38    1
    41    14    39    1
    42    14    40    1
    43    15    41    1
    44    15    42    1
    45    19    43    1
    46    21    44    1
    47    22    45    1
    48    25    46    1
    49    26    47    1
    50    27    48    1
    51    27    49    1
