@<TRIPOS>MOLECULE
*****
 49 52 0 0 0
SMALL
GASTEIGER

@<TRIPOS>ATOM
      1 C           1.8696    2.3079   -0.9355 C.3     1  UNL1       -0.0368
      2 C           1.8326    0.9940   -0.1647 C.3     1  UNL1        0.0940
      3 N           1.5590    1.3363    1.2143 N.2     1  UNL1       -0.1778
      4 N           0.5702    0.7896    1.7748 N.2     1  UNL1       -0.1321
      5 C          -0.2845   -0.1519    1.0966 C.ar    1  UNL1        0.1966
      6 N           0.1376   -1.4027    0.8189 N.ar    1  UNL1       -0.2233
      7 C          -0.7217   -2.2368    0.1773 C.ar    1  UNL1        0.0916
      8 C          -0.3256   -3.5173   -0.1214 C.ar    1  UNL1       -0.0342
      9 C          -1.1874   -4.3638   -0.7685 C.ar    1  UNL1       -0.0596
     10 C          -2.4581   -3.9777   -1.1390 C.ar    1  UNL1       -0.0596
     11 C          -2.8686   -2.6951   -0.8453 C.ar    1  UNL1       -0.0342
     12 C          -1.9923   -1.8455   -0.1914 C.ar    1  UNL1        0.0896
     13 N          -2.4064   -0.5901    0.0912 N.ar    1  UNL1       -0.2460
     14 C          -1.5539    0.2383    0.7281 C.ar    1  UNL1        0.0920
     15 C          -1.9530    1.6496    1.0723 C.3     1  UNL1        0.0185
     16 C          -3.3266    1.9456    0.6284 C.ar    1  UNL1       -0.0415
     17 C          -4.3590    1.6913    1.5093 C.ar    1  UNL1       -0.0582
     18 C          -5.6558    1.9623    1.1120 C.ar    1  UNL1       -0.0615
     19 C          -5.8652    2.4808   -0.1615 C.ar    1  UNL1       -0.0617
     20 C          -4.8265    2.7293   -1.0291 C.ar    1  UNL1       -0.0615
     21 C          -3.5195    2.4593   -0.6364 C.ar    1  UNL1       -0.0582
     22 C           3.1602    0.3261   -0.2001 C.ar    1  UNL1       -0.0216
     23 C           3.5217   -0.6440    0.7083 C.ar    1  UNL1       -0.0548
     24 C           4.7848   -1.2358    0.6238 C.ar    1  UNL1       -0.0407
     25 C           5.6789   -0.8644   -0.3566 C.ar    1  UNL1        0.0246
     26 N           6.9594   -1.4559   -0.4522 N.pl3   1  UNL1       -0.3580
     27 C           5.2882    0.1075   -1.2492 C.ar    1  UNL1       -0.0407
     28 C           4.0440    0.7051   -1.1831 C.ar    1  UNL1       -0.0548
     29 H           2.8448    2.8013   -0.7143 H       1  UNL1        0.0254
     30 H           1.0288    2.9586   -0.6254 H       1  UNL1        0.0254
     31 H           1.8191    2.1647   -2.0215 H       1  UNL1        0.0254
     32 H           1.0246    0.3772   -0.5919 H       1  UNL1        0.0610
     33 H           0.6795   -3.8037    0.1785 H       1  UNL1        0.0639
     34 H          -0.8038   -5.3670   -0.9731 H       1  UNL1        0.0618
     35 H          -3.0946   -4.6861   -1.6466 H       1  UNL1        0.0618
     36 H          -3.8682   -2.4086   -1.1429 H       1  UNL1        0.0639
     37 H          -1.8625    1.7874    2.1580 H       1  UNL1        0.0378
     38 H          -1.2035    2.3568    0.6116 H       1  UNL1        0.0378
     39 H          -4.1497    1.2813    2.5064 H       1  UNL1        0.0620
     40 H          -6.4674    1.7649    1.7980 H       1  UNL1        0.0618
     41 H          -6.8901    2.6888   -0.4597 H       1  UNL1        0.0618
     42 H          -4.9820    3.1326   -2.0212 H       1  UNL1        0.0618
     43 H          -2.6756    2.6497   -1.3121 H       1  UNL1        0.0620
     44 H           2.8177   -0.9377    1.4818 H       1  UNL1        0.0622
     45 H           5.0225   -1.9925    1.3595 H       1  UNL1        0.0636
     46 H           7.7277   -1.3292    0.2340 H       1  UNL1        0.1423
     47 H           7.1575   -2.0701   -1.2738 H       1  UNL1        0.1423
     48 H           5.9696    0.4298   -2.0422 H       1  UNL1        0.0636
     49 H           3.8037    1.4599   -1.9150 H       1  UNL1        0.0622
@<TRIPOS>BOND
     1     1     2    1
     2     2     3    1
     3     3     4    2
     4     4     5    1
     5     5     6   ar
     6     6     7   ar
     7     7     8   ar
     8     8     9   ar
     9     9    10   ar
    10    10    11   ar
    11    11    12   ar
    12    12    13   ar
    13    13    14   ar
    14    14    15    1
    15    15    16    1
    16    16    17   ar
    17    17    18   ar
    18    18    19   ar
    19    19    20   ar
    20    20    21   ar
    21     2    22    1
    22    22    23   ar
    23    23    24   ar
    24    24    25   ar
    25    25    26    1
    26    25    27   ar
    27    27    28   ar
    28    14     5   ar
    29    21    16   ar
    30    28    22   ar
    31    12     7   ar
    32     1    29    1
    33     1    30    1
    34     1    31    1
    35     2    32    1
    36     8    33    1
    37     9    34    1
    38    10    35    1
    39    11    36    1
    40    15    37    1
    41    15    38    1
    42    17    39    1
    43    18    40    1
    44    19    41    1
    45    20    42    1
    46    21    43    1
    47    23    44    1
    48    24    45    1
    49    26    46    1
    50    26    47    1
    51    27    48    1
    52    28    49    1
