@<TRIPOS>MOLECULE
*****
 28 28 0 0 0
SMALL
GASTEIGER

@<TRIPOS>ATOM
      1 O          -0.8534   -1.1205    1.3504 O.3     1  UNL1       -0.3669
      2 C          -0.8933   -0.4406    0.1348 C.3     1  UNL1        0.2711
      3 C           0.3225   -0.7209   -0.7085 C.3     1  UNL1        0.0258
      4 C           1.5997   -0.3253   -0.0603 C.ar    1  UNL1       -0.0253
      5 C           2.2804   -1.2496    0.7412 C.ar    1  UNL1        0.0308
      6 N           3.4414   -0.9651    1.3599 N.ar    1  UNL1       -0.2630
      7 C           4.0408    0.2360    1.2553 C.ar    1  UNL1        0.0276
      8 C           3.4001    1.1916    0.4665 C.ar    1  UNL1       -0.0433
      9 C           2.2088    0.9088   -0.1720 C.ar    1  UNL1       -0.0556
     10 P          -2.3341   -1.0956   -0.7580 P.3     1  UNL1        0.3713
     11 O          -2.5175   -2.7423   -0.5015 O.3     1  UNL1       -0.3217
     12 O          -3.7543   -0.3010   -0.3067 O.3     1  UNL1       -0.3217
     13 O          -2.1762   -0.8628   -2.2449 O.2     1  UNL1       -0.2551
     14 P          -1.1331    1.3406    0.3690 P.3     1  UNL1        0.3713
     15 O          -0.9782    2.0752   -1.1584 O.3     1  UNL1       -0.3217
     16 O          -2.6946    1.6451    0.9426 O.3     1  UNL1       -0.3217
     17 O          -0.0936    1.9437    1.2684 O.2     1  UNL1       -0.2551
     18 H          -0.5797   -0.5347    2.1054 H       1  UNL1        0.2117
     19 H           0.3280   -1.7744   -1.0548 H       1  UNL1        0.0354
     20 H           0.1733   -0.1305   -1.6602 H       1  UNL1        0.0354
     21 H           1.8767   -2.2579    0.8918 H       1  UNL1        0.0832
     22 H           4.9720    0.5140    1.7315 H       1  UNL1        0.0829
     23 H           3.8475    2.1705    0.3553 H       1  UNL1        0.0633
     24 H           1.7114    1.6477   -0.7836 H       1  UNL1        0.0621
     25 H          -3.4822   -2.9550   -0.4381 H       1  UNL1        0.2198
     26 H          -4.2895   -0.8657    0.2985 H       1  UNL1        0.2198
     27 H          -1.7159    2.7077   -1.3242 H       1  UNL1        0.2198
     28 H          -2.7072    1.9611    1.8780 H       1  UNL1        0.2198
@<TRIPOS>BOND
     1     1     2    1
     2     2     3    1
     3     3     4    1
     4     4     5   ar
     5     5     6   ar
     6     6     7   ar
     7     7     8   ar
     8     8     9   ar
     9     2    10    1
    10    10    11    1
    11    10    12    1
    12    10    13    2
    13     2    14    1
    14    14    15    1
    15    14    16    1
    16    14    17    2
    17     9     4   ar
    18     1    18    1
    19     3    19    1
    20     3    20    1
    21     5    21    1
    22     7    22    1
    23     8    23    1
    24     9    24    1
    25    11    25    1
    26    12    26    1
    27    15    27    1
    28    16    28    1
