@<TRIPOS>MOLECULE
*****
 126 129 0 0 0
SMALL
GASTEIGER

@<TRIPOS>ATOM
      1 C           9.4522   -1.9590   -2.2573 C.3     1  UNL1        0.0369
      2 O           8.4281   -1.1023   -1.8519 O.3     1  UNL1       -0.3772
      3 C           8.8153   -0.3058   -0.7831 C.3     1  UNL1        0.0847
      4 C           7.8832   -0.4843    0.3550 C.3     1  UNL1       -0.0179
      5 C           7.0562    0.6503    0.7967 C.3     1  UNL1       -0.0200
      6 C           7.5113    2.0255    0.3720 C.3     1  UNL1       -0.0443
      7 C           8.9522    1.9839   -0.0606 C.3     1  UNL1       -0.0239
      8 C           8.9449    1.1010   -1.2926 C.3     1  UNL1        0.0813
      9 O          10.1185    1.2153   -2.0335 O.3     1  UNL1       -0.3892
     10 C           5.5911    0.5267    0.7167 C.2     1  UNL1       -0.0784
     11 C           4.5479   -0.0730    0.2077 C.2     1  UNL1       -0.0360
     12 C           4.9425   -1.1581   -0.7526 C.3     1  UNL1       -0.0403
     13 C           3.0913    0.1272    0.4631 C.3     1  UNL1        0.1288
     14 O           2.5305   -0.9637    1.1585 O.3     1  UNL1       -0.4553
     15 C           1.6364   -1.8804    0.6529 C.2     1  UNL1        0.3284
     16 O           1.4148   -1.5818   -0.5314 O.2     1  UNL1       -0.2487
     17 C           1.1413   -2.9525    1.5087 C.3     1  UNL1        0.1233
     18 C           1.8490   -4.2701    1.2443 C.3     1  UNL1       -0.0238
     19 C           1.4389   -5.2883    2.2562 C.3     1  UNL1       -0.0494
     20 C          -0.0297   -5.3712    2.5042 C.3     1  UNL1       -0.0370
     21 C          -0.6414   -3.9877    2.6500 C.3     1  UNL1        0.0159
     22 N          -0.3028   -3.1439    1.5266 N.am    1  UNL1       -0.2815
     23 C          -1.5566   -2.8910    0.9294 C.2     1  UNL1        0.2883
     24 O          -0.9535   -2.2618    0.0999 O.2     1  UNL1       -0.2666
     25 C          -2.9673   -3.1419    1.0498 C.2     1  UNL1        0.2760
     26 O          -3.7294   -3.7289    1.8664 O.2     1  UNL1       -0.2814
     27 C          -3.8437   -2.6202   -0.0130 C.3     1  UNL1        0.2402
     28 O          -3.0540   -2.1226   -1.0409 O.3     1  UNL1       -0.3583
     29 O          -4.6367   -1.5656    0.4341 O.3     1  UNL1       -0.3336
     30 C          -5.5642   -1.1640   -0.5084 C.3     1  UNL1        0.1144
     31 C          -6.6543   -2.1788   -0.6509 C.3     1  UNL1        0.0874
     32 C          -6.1464   -3.5734   -0.2717 C.3     1  UNL1       -0.0162
     33 C          -4.6865   -3.7209   -0.6336 C.3     1  UNL1        0.0206
     34 C          -4.4632   -3.8346   -2.1232 C.3     1  UNL1       -0.0570
     35 O          -7.2320   -2.1902   -1.9049 O.3     1  UNL1       -0.3771
     36 C          -8.5718   -1.9415   -1.9713 C.3     1  UNL1        0.0369
     37 C          -6.1678    0.1539   -0.0066 C.3     1  UNL1        0.0872
     38 C          -5.0384    1.1473    0.1076 C.3     1  UNL1       -0.0212
     39 C          -5.3401    2.5130    0.5986 C.3     1  UNL1       -0.0378
     40 C          -5.7268    2.6895    2.0188 C.3     1  UNL1       -0.0620
     41 C          -4.4003    3.5534    0.0542 C.3     1  UNL1       -0.0293
     42 C          -2.9529    3.3254    0.3220 C.2     1  UNL1       -0.0756
     43 C          -2.5549    3.3273    1.7832 C.3     1  UNL1       -0.0438
     44 C          -2.0539    3.1453   -0.6933 C.2     1  UNL1       -0.0746
     45 C          -0.7827    2.9142   -1.4336 C.3     1  UNL1        0.0393
     46 C          -0.4784    4.1112   -2.3413 C.3     1  UNL1       -0.0220
     47 C          -0.3544    5.2980   -1.4575 C.2     1  UNL1       -0.0902
     48 C          -1.0599    6.4386   -1.4499 C.2     1  UNL1       -0.1026
     49 C           0.4051    2.7943   -0.5455 C.2     1  UNL1        0.1429
     50 O          -0.6744    2.9855   -0.0541 O.2     1  UNL1       -0.2967
     51 C           1.7871    2.5607   -1.0119 C.3     1  UNL1        0.0328
     52 C           2.8011    2.6063    0.1231 C.3     1  UNL1        0.0681
     53 O           4.0637    2.4632   -0.5278 O.3     1  UNL1       -0.3910
     54 C           2.7129    1.4385    1.0664 C.3     1  UNL1        0.0236
     55 C           1.2930    1.2991    1.5690 C.3     1  UNL1       -0.0564
     56 O          -6.8268    0.0501    1.1907 O.3     1  UNL1       -0.3771
     57 C          -8.1576    0.3786    1.1960 C.3     1  UNL1        0.0369
     58 H           9.6959   -2.5938   -1.3889 H       1  UNL1        0.0524
     59 H           9.1405   -2.5518   -3.1397 H       1  UNL1        0.0524
     60 H          10.2913   -1.3128   -2.5801 H       1  UNL1        0.0524
     61 H           9.8809   -0.6281   -0.5798 H       1  UNL1        0.0622
     62 H           7.2490   -1.3886    0.2699 H       1  UNL1        0.0297
     63 H           8.5871   -0.8454    1.1943 H       1  UNL1        0.0297
     64 H           7.2829    0.7068    1.9229 H       1  UNL1        0.0344
     65 H           6.8568    2.4703   -0.4079 H       1  UNL1        0.0272
     66 H           7.4523    2.7634    1.1964 H       1  UNL1        0.0272
     67 H           9.3530    2.9584   -0.3425 H       1  UNL1        0.0291
     68 H           9.5395    1.4657    0.6970 H       1  UNL1        0.0291
     69 H           8.0961    1.3086   -1.9639 H       1  UNL1        0.0619
     70 H           9.9533    1.3975   -3.0057 H       1  UNL1        0.2099
     71 H           5.1884    1.2770    1.4412 H       1  UNL1        0.0575
     72 H           4.0910   -1.3347   -1.4439 H       1  UNL1        0.0276
     73 H           5.0627   -2.1180   -0.2244 H       1  UNL1        0.0276
     74 H           5.7572   -0.8790   -1.4311 H       1  UNL1        0.0276
     75 H           2.6490    0.1031   -0.5550 H       1  UNL1        0.0785
     76 H           1.4419   -2.6926    2.5689 H       1  UNL1        0.0616
     77 H           1.7659   -4.5883    0.1901 H       1  UNL1        0.0288
     78 H           2.9203   -4.0524    1.4124 H       1  UNL1        0.0288
     79 H           1.9954   -5.0697    3.2066 H       1  UNL1        0.0266
     80 H           1.8205   -6.2899    1.9334 H       1  UNL1        0.0266
     81 H          -0.5471   -5.9652    1.7224 H       1  UNL1        0.0280
     82 H          -0.1971   -5.8899    3.4680 H       1  UNL1        0.0280
     83 H          -0.1150   -3.5498    3.5624 H       1  UNL1        0.0465
     84 H          -1.6899   -4.0862    2.9096 H       1  UNL1        0.0465
     85 H          -3.0391   -1.1357   -1.0326 H       1  UNL1        0.2132
     86 H          -5.0930   -0.8970   -1.4807 H       1  UNL1        0.0649
     87 H          -7.4351   -1.9652    0.0884 H       1  UNL1        0.0623
     88 H          -6.2681   -3.7780    0.8099 H       1  UNL1        0.0295
     89 H          -6.7091   -4.3519   -0.8171 H       1  UNL1        0.0295
     90 H          -4.3457   -4.6766   -0.1859 H       1  UNL1        0.0355
     91 H          -3.5742   -4.4976   -2.3404 H       1  UNL1        0.0234
     92 H          -5.3126   -4.3126   -2.6386 H       1  UNL1        0.0234
     93 H          -4.1980   -2.8435   -2.5456 H       1  UNL1        0.0234
     94 H          -8.9837   -1.9873   -3.0065 H       1  UNL1        0.0524
     95 H          -9.1960   -2.4802   -1.2325 H       1  UNL1        0.0524
     96 H          -8.6920   -0.8428   -1.7123 H       1  UNL1        0.0524
     97 H          -6.8863    0.5246   -0.8182 H       1  UNL1        0.0623
     98 H          -4.4835    1.2093   -0.8757 H       1  UNL1        0.0294
     99 H          -4.2852    0.6539    0.8088 H       1  UNL1        0.0294
    100 H          -6.3310    2.7732    0.0291 H       1  UNL1        0.0302
    101 H          -5.1639    2.0654    2.7506 H       1  UNL1        0.0233
    102 H          -6.7914    2.5201    2.2775 H       1  UNL1        0.0233
    103 H          -5.6152    3.8017    2.2338 H       1  UNL1        0.0233
    104 H          -4.5893    3.7011   -1.0396 H       1  UNL1        0.0312
    105 H          -4.6460    4.5580    0.4976 H       1  UNL1        0.0312
    106 H          -2.1806    2.3308    2.0704 H       1  UNL1        0.0274
    107 H          -1.8018    4.1521    1.9908 H       1  UNL1        0.0274
    108 H          -3.3777    3.5618    2.4462 H       1  UNL1        0.0274
    109 H          -2.6856    3.2274   -1.6101 H       1  UNL1        0.0579
    110 H          -0.8649    2.0302   -2.1162 H       1  UNL1        0.0423
    111 H          -1.3354    4.2802   -3.0332 H       1  UNL1        0.0317
    112 H           0.4812    3.9497   -2.8263 H       1  UNL1        0.0317
    113 H           0.3929    5.3156   -0.6837 H       1  UNL1        0.0567
    114 H          -1.2692    7.4181   -1.0385 H       1  UNL1        0.0532
    115 H          -1.8748    6.9220   -1.9755 H       1  UNL1        0.0532
    116 H           2.0670    3.4252   -1.6689 H       1  UNL1        0.0367
    117 H           1.8841    1.6560   -1.6280 H       1  UNL1        0.0367
    118 H           2.7672    3.5831    0.6075 H       1  UNL1        0.0601
    119 H           4.5140    3.3432   -0.5871 H       1  UNL1        0.2098
    120 H           3.3090    1.7194    1.9559 H       1  UNL1        0.0362
    121 H           1.3036    0.5893    2.4624 H       1  UNL1        0.0234
    122 H           0.9140    2.2387    1.9951 H       1  UNL1        0.0234
    123 H           0.6369    0.7908    0.8501 H       1  UNL1        0.0234
    124 H          -8.4895    0.2494    2.2740 H       1  UNL1        0.0524
    125 H          -8.7853   -0.2445    0.5685 H       1  UNL1        0.0524
    126 H          -8.2942    1.4416    0.8827 H       1  UNL1        0.0524
@<TRIPOS>BOND
     1     1     2    1
     2     2     3    1
     3     3     4    1
     4     4     5    1
     5     5     6    1
     6     6     7    1
     7     7     8    1
     8     8     9    1
     9     5    10    1
    10    10    11    2
    11    11    12    1
    12    11    13    1
    13    13    14    1
    14    14    15    1
    15    15    16    2
    16    15    17    1
    17    17    18    1
    18    18    19    1
    19    19    20    1
    20    20    21    1
    21    21    22    1
    22    22    23   am
    23    23    24    2
    24    23    25    1
    25    25    26    2
    26    25    27    1
    27    27    28    1
    28    27    29    1
    29    29    30    1
    30    30    31    1
    31    31    32    1
    32    32    33    1
    33    33    34    1
    34    31    35    1
    35    35    36    1
    36    30    37    1
    37    37    38    1
    38    38    39    1
    39    39    40    1
    40    39    41    1
    41    41    42    1
    42    42    43    1
    43    42    44    2
    44    44    45    1
    45    45    46    1
    46    46    47    1
    47    47    48    2
    48    45    49    1
    49    49    50    2
    50    49    51    1
    51    51    52    1
    52    52    53    1
    53    52    54    1
    54    54    55    1
    55    37    56    1
    56    56    57    1
    57     8     3    1
    58    54    13    1
    59    22    17    1
    60    33    27    1
    61     1    58    1
    62     1    59    1
    63     1    60    1
    64     3    61    1
    65     4    62    1
    66     4    63    1
    67     5    64    1
    68     6    65    1
    69     6    66    1
    70     7    67    1
    71     7    68    1
    72     8    69    1
    73     9    70    1
    74    10    71    1
    75    12    72    1
    76    12    73    1
    77    12    74    1
    78    13    75    1
    79    17    76    1
    80    18    77    1
    81    18    78    1
    82    19    79    1
    83    19    80    1
    84    20    81    1
    85    20    82    1
    86    21    83    1
    87    21    84    1
    88    28    85    1
    89    30    86    1
    90    31    87    1
    91    32    88    1
    92    32    89    1
    93    33    90    1
    94    34    91    1
    95    34    92    1
    96    34    93    1
    97    36    94    1
    98    36    95    1
    99    36    96    1
   100    37    97    1
   101    38    98    1
   102    38    99    1
   103    39   100    1
   104    40   101    1
   105    40   102    1
   106    40   103    1
   107    41   104    1
   108    41   105    1
   109    43   106    1
   110    43   107    1
   111    43   108    1
   112    44   109    1
   113    45   110    1
   114    46   111    1
   115    46   112    1
   116    47   113    1
   117    48   114    1
   118    48   115    1
   119    51   116    1
   120    51   117    1
   121    52   118    1
   122    53   119    1
   123    54   120    1
   124    55   121    1
   125    55   122    1
   126    55   123    1
   127    57   124    1
   128    57   125    1
   129    57   126    1
