
     RDKit          3D

 23 23  0  0  0  0  0  0  0  0999 V2000
   -3.2343   -0.8628   -0.1573 C   0  0  0  0  0  0  0  0  0  0  0  0
   -1.7442   -0.8521   -0.0463 C   0  0  0  0  0  0  0  0  0  0  0  0
   -1.0959    0.3609    0.0867 C   0  0  0  0  0  0  0  0  0  0  0  0
   -1.8079    1.5582    0.1133 O   0  0  0  0  0  0  0  0  0  0  0  0
    0.3002    0.3469    0.1964 C   0  0  0  0  0  0  0  0  0  0  0  0
    0.9465    1.6704    0.3425 C   0  0  0  0  0  0  0  0  0  0  0  0
    0.9531    2.2599   -0.9323 O   0  0  0  0  0  0  0  0  0  0  0  0
    1.0514   -0.8052    0.1768 C   0  0  0  0  0  0  0  0  0  0  0  0
    2.5271   -0.7578    0.2898 C   0  0  0  0  0  0  0  0  0  0  0  0
    3.1444   -0.3559   -0.9051 O   0  0  0  0  0  0  0  0  0  0  0  0
    0.3233   -1.9828    0.0397 C   0  0  0  0  0  0  0  0  0  0  0  0
   -1.0139   -1.9809   -0.0657 N   0  0  0  0  0  0  0  0  0  0  0  0
   -3.5529   -0.7417   -1.2034 H   0  0  0  0  0  0  0  0  0  0  0  0
   -3.6289   -1.7884    0.2732 H   0  0  0  0  0  0  0  0  0  0  0  0
   -3.6764   -0.0097    0.4393 H   0  0  0  0  0  0  0  0  0  0  0  0
   -2.5957    1.7315   -0.4812 H   0  0  0  0  0  0  0  0  0  0  0  0
    1.9620    1.6286    0.7889 H   0  0  0  0  0  0  0  0  0  0  0  0
    0.3139    2.2664    1.0334 H   0  0  0  0  0  0  0  0  0  0  0  0
    0.3117    3.0117   -0.9747 H   0  0  0  0  0  0  0  0  0  0  0  0
    2.8729   -0.1554    1.1540 H   0  0  0  0  0  0  0  0  0  0  0  0
    2.8629   -1.8278    0.4422 H   0  0  0  0  0  0  0  0  0  0  0  0
    3.9167    0.2253   -0.6235 H   0  0  0  0  0  0  0  0  0  0  0  0
    0.8640   -2.9394    0.0134 H   0  0  0  0  0  0  0  0  0  0  0  0
  1  2  1  0
  2  3  2  0
  3  4  1  0
  3  5  1  0
  5  6  1  0
  6  7  1  0
  5  8  2  0
  8  9  1  0
  9 10  1  0
  8 11  1  0
 11 12  2  0
 12  2  1  0
  1 13  1  0
  1 14  1  0
  1 15  1  0
  4 16  1  0
  6 17  1  0
  6 18  1  0
  7 19  1  0
  9 20  1  0
  9 21  1  0
 10 22  1  0
 11 23  1  0
M  END
$$$$
