@<TRIPOS>MOLECULE
*****
 23 23 0 0 0
SMALL
GASTEIGER

@<TRIPOS>ATOM
      1 C          -3.2343   -0.8628   -0.1573 C.3     1  UNL1       -0.0188
      2 C          -1.7442   -0.8521   -0.0463 C.ar    1  UNL1        0.0798
      3 C          -1.0959    0.3609    0.0867 C.ar    1  UNL1        0.1434
      4 O          -1.8079    1.5582    0.1133 O.3     1  UNL1       -0.5046
      5 C           0.3002    0.3469    0.1964 C.ar    1  UNL1        0.0278
      6 C           0.9465    1.6704    0.3425 C.3     1  UNL1        0.0731
      7 O           0.9531    2.2599   -0.9323 O.3     1  UNL1       -0.3903
      8 C           1.0514   -0.8052    0.1768 C.ar    1  UNL1        0.0047
      9 C           2.5271   -0.7578    0.2898 C.3     1  UNL1        0.0711
     10 O           3.1444   -0.3559   -0.9051 O.3     1  UNL1       -0.3904
     11 C           0.3233   -1.9828    0.0397 C.ar    1  UNL1        0.0338
     12 N          -1.0139   -1.9809   -0.0657 N.ar    1  UNL1       -0.2562
     13 H          -3.5529   -0.7417   -1.2034 H       1  UNL1        0.0294
     14 H          -3.6289   -1.7884    0.2732 H       1  UNL1        0.0294
     15 H          -3.6764   -0.0097    0.4393 H       1  UNL1        0.0294
     16 H          -2.5957    1.7315   -0.4812 H       1  UNL1        0.2922
     17 H           1.9620    1.6286    0.7889 H       1  UNL1        0.0608
     18 H           0.3139    2.2664    1.0334 H       1  UNL1        0.0608
     19 H           0.3117    3.0117   -0.9747 H       1  UNL1        0.2098
     20 H           2.8729   -0.1554    1.1540 H       1  UNL1        0.0608
     21 H           2.8629   -1.8278    0.4422 H       1  UNL1        0.0608
     22 H           3.9167    0.2253   -0.6235 H       1  UNL1        0.2098
     23 H           0.8640   -2.9394    0.0134 H       1  UNL1        0.0833
@<TRIPOS>BOND
     1     1     2    1
     2     2     3   ar
     3     3     4    1
     4     3     5   ar
     5     5     6    1
     6     6     7    1
     7     5     8   ar
     8     8     9    1
     9     9    10    1
    10     8    11   ar
    11    11    12   ar
    12    12     2   ar
    13     1    13    1
    14     1    14    1
    15     1    15    1
    16     4    16    1
    17     6    17    1
    18     6    18    1
    19     7    19    1
    20     9    20    1
    21     9    21    1
    22    10    22    1
    23    11    23    1
