@<TRIPOS>MOLECULE
*****
 61 65 0 0 0
SMALL
GASTEIGER

@<TRIPOS>ATOM
      1 C          -0.6497    0.6770   -1.1128 C.3     1  UNL1       -0.0351
      2 C          -0.2790    0.5055    0.4108 C.3     1  UNL1        0.0935
      3 C           0.9009    1.3902    0.5479 C.ar    1  UNL1        0.0158
      4 C           2.1647    0.8145    0.6069 C.ar    1  UNL1       -0.0463
      5 C           3.3082    1.5284    0.6953 C.ar    1  UNL1       -0.0217
      6 C           4.6795    0.9632    0.6454 C.2     1  UNL1       -0.0172
      7 C           4.9521    0.0233   -0.2505 C.2     1  UNL1        0.1492
      8 F           3.8961   -0.3421   -1.0607 F       1  UNL1       -0.2032
      9 C           6.2476   -0.5829   -0.4869 C.ar    1  UNL1        0.0990
     10 C           6.3623   -1.5533   -1.5032 C.ar    1  UNL1       -0.0322
     11 C           7.5812   -2.1106   -1.8287 C.ar    1  UNL1       -0.0408
     12 C           8.7261   -1.7299   -1.1629 C.ar    1  UNL1        0.0699
     13 C          10.0171   -2.2752   -1.5758 C.1     1  UNL1        0.1007
     14 N          11.0426   -2.7208   -1.8885 N.1     1  UNL1       -0.1908
     15 C           8.6035   -0.7903   -0.1753 C.ar    1  UNL1        0.0457
     16 N           7.3789   -0.2508    0.1293 N.ar    1  UNL1       -0.2514
     17 C           3.2084    2.9324    0.7336 C.ar    1  UNL1       -0.0518
     18 C           1.9508    3.4865    0.6727 C.ar    1  UNL1       -0.0255
     19 C           0.7847    2.7539    0.5786 C.ar    1  UNL1        0.1289
     20 F          -0.3934    3.4195    0.5092 F       1  UNL1       -0.2051
     21 N           0.1494   -0.8685    0.4515 N.2     1  UNL1       -0.2521
     22 C          -0.4868   -1.9055    0.7518 C.2     1  UNL1        0.1485
     23 N           0.1099   -3.1896    0.7329 N.pl3   1  UNL1       -0.3380
     24 S          -2.1904   -1.7775    1.2149 S.3     1  UNL1       -0.0746
     25 C          -2.5612   -0.0299    1.4670 C.3     1  UNL1        0.1054
     26 C          -3.9187    0.4560    1.1358 C.2     1  UNL1        0.2325
     27 O          -4.2503    1.5609    1.7239 O.2     1  UNL1       -0.2741
     28 N          -4.8305   -0.1547    0.2696 N.am    1  UNL1       -0.2991
     29 C          -6.0674    0.5441   -0.0789 C.3     1  UNL1        0.0148
     30 C          -7.2551   -0.3172    0.0114 C.3     1  UNL1       -0.0359
     31 C          -7.0351   -1.7402   -0.3815 C.3     1  UNL1       -0.0345
     32 C          -5.7469   -1.9454   -1.1237 C.3     1  UNL1        0.0619
     33 C          -5.6713   -1.2170   -2.3686 C.1     1  UNL1        0.0674
     34 N          -5.6272   -0.6092   -3.3979 N.1     1  UNL1       -0.1962
     35 C          -4.5834   -1.4655   -0.2584 C.3     1  UNL1        0.0303
     36 C          -1.7719    0.6769    2.5837 C.3     1  UNL1       -0.0220
     37 C          -1.4486    0.9161    1.1837 C.3     1  UNL1        0.0134
     38 H           0.2317    0.4429   -1.7198 H       1  UNL1        0.0256
     39 H          -1.4723   -0.0495   -1.2356 H       1  UNL1        0.0256
     40 H          -1.0370    1.6806   -1.2801 H       1  UNL1        0.0256
     41 H           2.2575   -0.2870    0.5903 H       1  UNL1        0.0628
     42 H           5.4791    1.2616    1.2974 H       1  UNL1        0.0653
     43 H           5.4703   -1.8471   -2.0123 H       1  UNL1        0.0640
     44 H           7.6953   -2.8511   -2.6089 H       1  UNL1        0.0631
     45 H           9.4860   -0.4644    0.3731 H       1  UNL1        0.0843
     46 H           4.1299    3.4810    0.8155 H       1  UNL1        0.0624
     47 H           1.8995    4.5857    0.7128 H       1  UNL1        0.0646
     48 H          -0.0435   -3.8630    1.5344 H       1  UNL1        0.1442
     49 H           0.7140   -3.5331   -0.0379 H       1  UNL1        0.1442
     50 H          -6.2158    1.4175    0.6175 H       1  UNL1        0.0464
     51 H          -5.9477    0.9498   -1.1252 H       1  UNL1        0.0464
     52 H          -7.7687   -0.2346    1.0052 H       1  UNL1        0.0281
     53 H          -8.0179    0.0965   -0.7078 H       1  UNL1        0.0281
     54 H          -6.9872   -2.3240    0.5791 H       1  UNL1        0.0279
     55 H          -7.9243   -2.1077   -0.9294 H       1  UNL1        0.0279
     56 H          -5.6186   -3.0574   -1.2820 H       1  UNL1        0.0469
     57 H          -4.5510   -2.2016    0.6148 H       1  UNL1        0.0477
     58 H          -3.6424   -1.5739   -0.8299 H       1  UNL1        0.0477
     59 H          -1.2175   -0.0340    3.2257 H       1  UNL1        0.0287
     60 H          -2.3300    1.4333    3.1978 H       1  UNL1        0.0287
     61 H          -1.8868    1.9235    0.8035 H       1  UNL1        0.0346
@<TRIPOS>BOND
     1     2     1    1
     2     2     3    1
     3     3     4   ar
     4     4     5   ar
     5     5     6    1
     6     6     7    2
     7     7     8    1
     8     7     9    1
     9     9    10   ar
    10    10    11   ar
    11    11    12   ar
    12    12    13    1
    13    13    14    3
    14    12    15   ar
    15    15    16   ar
    16     5    17   ar
    17    17    18   ar
    18    18    19   ar
    19    19    20    1
    20     2    21    1
    21    21    22    2
    22    22    23    1
    23    22    24    1
    24    24    25    1
    25    25    26    1
    26    26    27    2
    27    26    28   am
    28    28    29    1
    29    29    30    1
    30    30    31    1
    31    31    32    1
    32    32    33    1
    33    33    34    3
    34    32    35    1
    35    25    36    1
    36    36    37    1
    37    37     2    1
    38    19     3   ar
    39    37    25    1
    40    16     9   ar
    41    35    28    1
    42     1    38    1
    43     1    39    1
    44     1    40    1
    45     4    41    1
    46     6    42    1
    47    10    43    1
    48    11    44    1
    49    15    45    1
    50    17    46    1
    51    18    47    1
    52    23    48    1
    53    23    49    1
    54    29    50    1
    55    29    51    1
    56    30    52    1
    57    30    53    1
    58    31    54    1
    59    31    55    1
    60    32    56    1
    61    35    57    1
    62    35    58    1
    63    36    59    1
    64    36    60    1
    65    37    61    1
