
     RDKit          3D

 61 65  0  0  0  0  0  0  0  0999 V2000
   -0.6497    0.6770   -1.1128 C   0  0  0  0  0  0  0  0  0  0  0  0
   -0.2790    0.5055    0.4108 C   0  0  2  0  0  0  0  0  0  0  0  0
    0.9009    1.3902    0.5479 C   0  0  0  0  0  0  0  0  0  0  0  0
    2.1647    0.8145    0.6069 C   0  0  0  0  0  0  0  0  0  0  0  0
    3.3082    1.5284    0.6953 C   0  0  0  0  0  0  0  0  0  0  0  0
    4.6795    0.9632    0.6454 C   0  0  0  0  0  0  0  0  0  0  0  0
    4.9521    0.0233   -0.2505 C   0  0  0  0  0  0  0  0  0  0  0  0
    3.8961   -0.3421   -1.0607 F   0  0  0  0  0  0  0  0  0  0  0  0
    6.2476   -0.5829   -0.4869 C   0  0  0  0  0  0  0  0  0  0  0  0
    6.3623   -1.5533   -1.5032 C   0  0  0  0  0  0  0  0  0  0  0  0
    7.5812   -2.1106   -1.8287 C   0  0  0  0  0  0  0  0  0  0  0  0
    8.7261   -1.7299   -1.1629 C   0  0  0  0  0  0  0  0  0  0  0  0
   10.0171   -2.2752   -1.5758 C   0  0  0  0  0  0  0  0  0  0  0  0
   11.0426   -2.7208   -1.8885 N   0  0  0  0  0  0  0  0  0  0  0  0
    8.6035   -0.7903   -0.1753 C   0  0  0  0  0  0  0  0  0  0  0  0
    7.3789   -0.2508    0.1293 N   0  0  0  0  0  0  0  0  0  0  0  0
    3.2084    2.9324    0.7336 C   0  0  0  0  0  0  0  0  0  0  0  0
    1.9508    3.4865    0.6727 C   0  0  0  0  0  0  0  0  0  0  0  0
    0.7847    2.7539    0.5786 C   0  0  0  0  0  0  0  0  0  0  0  0
   -0.3934    3.4195    0.5092 F   0  0  0  0  0  0  0  0  0  0  0  0
    0.1494   -0.8685    0.4515 N   0  0  0  0  0  0  0  0  0  0  0  0
   -0.4868   -1.9055    0.7518 C   0  0  0  0  0  0  0  0  0  0  0  0
    0.1099   -3.1896    0.7329 N   0  0  0  0  0  0  0  0  0  0  0  0
   -2.1904   -1.7775    1.2149 S   0  0  0  0  0  0  0  0  0  0  0  0
   -2.5612   -0.0299    1.4670 C   0  0  1  0  0  0  0  0  0  0  0  0
   -3.9187    0.4560    1.1358 C   0  0  0  0  0  0  0  0  0  0  0  0
   -4.2503    1.5609    1.7239 O   0  0  0  0  0  0  0  0  0  0  0  0
   -4.8305   -0.1547    0.2696 N   0  0  0  0  0  0  0  0  0  0  0  0
   -6.0674    0.5441   -0.0789 C   0  0  0  0  0  0  0  0  0  0  0  0
   -7.2551   -0.3172    0.0114 C   0  0  0  0  0  0  0  0  0  0  0  0
   -7.0351   -1.7402   -0.3815 C   0  0  0  0  0  0  0  0  0  0  0  0
   -5.7469   -1.9454   -1.1237 C   0  0  0  0  0  0  0  0  0  0  0  0
   -5.6713   -1.2170   -2.3686 C   0  0  0  0  0  0  0  0  0  0  0  0
   -5.6272   -0.6092   -3.3979 N   0  0  0  0  0  0  0  0  0  0  0  0
   -4.5834   -1.4655   -0.2584 C   0  0  0  0  0  0  0  0  0  0  0  0
   -1.7719    0.6769    2.5837 C   0  0  0  0  0  0  0  0  0  0  0  0
   -1.4486    0.9161    1.1837 C   0  0  1  0  0  0  0  0  0  0  0  0
    0.2317    0.4429   -1.7198 H   0  0  0  0  0  0  0  0  0  0  0  0
   -1.4723   -0.0495   -1.2356 H   0  0  0  0  0  0  0  0  0  0  0  0
   -1.0370    1.6806   -1.2801 H   0  0  0  0  0  0  0  0  0  0  0  0
    2.2575   -0.2870    0.5903 H   0  0  0  0  0  0  0  0  0  0  0  0
    5.4791    1.2616    1.2974 H   0  0  0  0  0  0  0  0  0  0  0  0
    5.4703   -1.8471   -2.0123 H   0  0  0  0  0  0  0  0  0  0  0  0
    7.6953   -2.8511   -2.6089 H   0  0  0  0  0  0  0  0  0  0  0  0
    9.4860   -0.4644    0.3731 H   0  0  0  0  0  0  0  0  0  0  0  0
    4.1299    3.4810    0.8155 H   0  0  0  0  0  0  0  0  0  0  0  0
    1.8995    4.5857    0.7128 H   0  0  0  0  0  0  0  0  0  0  0  0
   -0.0435   -3.8630    1.5344 H   0  0  0  0  0  0  0  0  0  0  0  0
    0.7140   -3.5331   -0.0379 H   0  0  0  0  0  0  0  0  0  0  0  0
   -6.2158    1.4175    0.6175 H   0  0  0  0  0  0  0  0  0  0  0  0
   -5.9477    0.9498   -1.1252 H   0  0  0  0  0  0  0  0  0  0  0  0
   -7.7687   -0.2346    1.0052 H   0  0  0  0  0  0  0  0  0  0  0  0
   -8.0179    0.0965   -0.7078 H   0  0  0  0  0  0  0  0  0  0  0  0
   -6.9872   -2.3240    0.5791 H   0  0  0  0  0  0  0  0  0  0  0  0
   -7.9243   -2.1077   -0.9294 H   0  0  0  0  0  0  0  0  0  0  0  0
   -5.6186   -3.0574   -1.2820 H   0  0  0  0  0  0  0  0  0  0  0  0
   -4.5510   -2.2016    0.6148 H   0  0  0  0  0  0  0  0  0  0  0  0
   -3.6424   -1.5739   -0.8299 H   0  0  0  0  0  0  0  0  0  0  0  0
   -1.2175   -0.0340    3.2257 H   0  0  0  0  0  0  0  0  0  0  0  0
   -2.3300    1.4333    3.1978 H   0  0  0  0  0  0  0  0  0  0  0  0
   -1.8868    1.9235    0.8035 H   0  0  0  0  0  0  0  0  0  0  0  0
  2  1  1  6
  2  3  1  0
  3  4  2  0
  4  5  1  0
  5  6  1  0
  6  7  2  0
  7  8  1  0
  7  9  1  0
  9 10  2  0
 10 11  1  0
 11 12  2  0
 12 13  1  0
 13 14  3  0
 12 15  1  0
 15 16  2  0
  5 17  2  0
 17 18  1  0
 18 19  2  0
 19 20  1  0
  2 21  1  0
 21 22  2  0
 22 23  1  0
 22 24  1  0
 24 25  1  0
 25 26  1  6
 26 27  2  0
 26 28  1  0
 28 29  1  0
 29 30  1  0
 30 31  1  0
 31 32  1  0
 32 33  1  0
 33 34  3  0
 32 35  1  0
 25 36  1  0
 36 37  1  0
 37  2  1  0
 19  3  1  0
 37 25  1  0
 16  9  1  0
 35 28  1  0
  1 38  1  0
  1 39  1  0
  1 40  1  0
  4 41  1  0
  6 42  1  0
 10 43  1  0
 11 44  1  0
 15 45  1  0
 17 46  1  0
 18 47  1  0
 23 48  1  0
 23 49  1  0
 29 50  1  0
 29 51  1  0
 30 52  1  0
 30 53  1  0
 31 54  1  0
 31 55  1  0
 32 56  1  0
 35 57  1  0
 35 58  1  0
 36 59  1  0
 36 60  1  0
 37 61  1  6
M  END
$$$$
