@<TRIPOS>MOLECULE
*****
 64 67 0 0 0
SMALL
GASTEIGER

@<TRIPOS>ATOM
      1 C          -0.0353   -2.9360   -0.8335 C.3     1  UNL1       -0.0383
      2 C           0.1563   -1.8749    0.2591 C.3     1  UNL1        0.0930
      3 C           0.0528   -2.6689    1.5691 C.3     1  UNL1       -0.0383
      4 C          -0.9394   -0.8916    0.2373 C.2     1  UNL1        0.2331
      5 O          -0.7032    0.3248    0.1090 O.2     1  UNL1       -0.2738
      6 N          -2.3144   -1.2473    0.3581 N.am    1  UNL1       -0.3104
      7 C          -3.3980   -0.3531    0.3435 C.3     1  UNL1        0.0288
      8 C          -4.3771   -0.5582   -0.8008 C.3     1  UNL1       -0.0216
      9 C          -5.1360   -1.7818   -0.2956 C.3     1  UNL1       -0.0482
     10 C          -5.3972   -1.4129    1.1432 C.3     1  UNL1       -0.0482
     11 C          -4.3357   -0.4056    1.5057 C.3     1  UNL1       -0.0216
     12 C          -5.0187    0.9485    1.5432 C.3     1  UNL1       -0.0356
     13 C          -5.6383    1.3602    0.2642 C.3     1  UNL1        0.0569
     14 C          -5.3671    2.8021    0.0294 C.2     1  UNL1        0.3078
     15 O          -4.7046    3.4526    0.8608 O.2     1  UNL1       -0.2507
     16 O          -5.8313    3.4593   -1.0978 O.3     1  UNL1       -0.4804
     17 C          -5.3416    0.5568   -0.9315 C.3     1  UNL1       -0.0356
     18 N           1.3962   -1.2313    0.1133 N.3     1  UNL1       -0.2864
     19 C           1.6947   -0.5423   -1.0706 C.3     1  UNL1        0.0157
     20 C           2.4336    0.7431   -0.6664 C.3     1  UNL1        0.0263
     21 N           3.6972    0.3064   -0.1076 N.pl3   1  UNL1       -0.3127
     22 C           4.8798    0.9694   -0.4949 C.ar    1  UNL1        0.1213
     23 C           6.1286    0.6049   -0.0116 C.ar    1  UNL1       -0.0212
     24 C           7.2805    1.2614   -0.3969 C.ar    1  UNL1       -0.0454
     25 C           7.2242    2.3187   -1.2900 C.ar    1  UNL1        0.0730
     26 C           8.4621    3.0345   -1.7125 C.3     1  UNL1        0.4188
     27 F           8.6544    4.1709   -0.9150 F       1  UNL1       -0.1658
     28 F           8.4097    3.4526   -3.0082 F       1  UNL1       -0.1658
     29 F           9.5213    2.2002   -1.4433 F       1  UNL1       -0.1658
     30 C           5.9691    2.6583   -1.7534 C.ar    1  UNL1        0.0413
     31 N           4.8586    1.9997   -1.3604 N.ar    1  UNL1       -0.2398
     32 C           3.7036   -0.7830    0.8205 C.3     1  UNL1        0.0263
     33 C           2.3305   -1.2678    1.1593 C.3     1  UNL1        0.0157
     34 H           0.9171   -3.4358   -1.0682 H       1  UNL1        0.0252
     35 H          -0.7969   -3.6585   -0.5226 H       1  UNL1        0.0252
     36 H          -0.3851   -2.4024   -1.7277 H       1  UNL1        0.0252
     37 H          -0.9974   -3.0441    1.6681 H       1  UNL1        0.0252
     38 H           0.7667   -3.5137    1.5808 H       1  UNL1        0.0252
     39 H           0.2340   -2.0159    2.4402 H       1  UNL1        0.0252
     40 H          -2.5134   -2.2754    0.4668 H       1  UNL1        0.1490
     41 H          -2.9988    0.6923    0.2108 H       1  UNL1        0.0504
     42 H          -3.8013   -0.7822   -1.7107 H       1  UNL1        0.0319
     43 H          -6.0964   -1.8859   -0.8537 H       1  UNL1        0.0269
     44 H          -4.4792   -2.6487   -0.4112 H       1  UNL1        0.0269
     45 H          -6.4274   -0.9865    1.1861 H       1  UNL1        0.0269
     46 H          -5.4075   -2.2927    1.8148 H       1  UNL1        0.0269
     47 H          -3.8739   -0.5649    2.4764 H       1  UNL1        0.0319
     48 H          -4.2180    1.6735    1.8727 H       1  UNL1        0.0276
     49 H          -5.7302    0.9268    2.4149 H       1  UNL1        0.0276
     50 H          -6.7587    1.3176    0.4345 H       1  UNL1        0.0413
     51 H          -5.4109    4.2902   -1.4495 H       1  UNL1        0.2951
     52 H          -4.9419    1.2424   -1.7375 H       1  UNL1        0.0276
     53 H          -6.2741    0.1311   -1.4094 H       1  UNL1        0.0276
     54 H           2.4105   -1.0652   -1.7517 H       1  UNL1        0.0442
     55 H           0.7792   -0.2274   -1.6012 H       1  UNL1        0.0442
     56 H           1.8855    1.2492    0.1566 H       1  UNL1        0.0477
     57 H           2.5786    1.4002   -1.5417 H       1  UNL1        0.0477
     58 H           6.1478   -0.2292    0.6895 H       1  UNL1        0.0652
     59 H           8.2439    0.9669   -0.0132 H       1  UNL1        0.0625
     60 H           5.9195    3.4980   -2.4632 H       1  UNL1        0.0836
     61 H           4.3780   -1.6218    0.4883 H       1  UNL1        0.0477
     62 H           4.1663   -0.4044    1.7702 H       1  UNL1        0.0477
     63 H           1.9413   -0.6860    2.0320 H       1  UNL1        0.0442
     64 H           2.4272   -2.3172    1.5470 H       1  UNL1        0.0442
@<TRIPOS>BOND
     1     1     2    1
     2     2     3    1
     3     2     4    1
     4     4     5    2
     5     4     6   am
     6     6     7    1
     7     7     8    1
     8     8     9    1
     9     9    10    1
    10    10    11    1
    11    11    12    1
    12    12    13    1
    13    13    14    1
    14    14    15    2
    15    14    16    1
    16    13    17    1
    17     2    18    1
    18    18    19    1
    19    19    20    1
    20    20    21    1
    21    21    22    1
    22    22    23   ar
    23    23    24   ar
    24    24    25   ar
    25    25    26    1
    26    26    27    1
    27    26    28    1
    28    26    29    1
    29    25    30   ar
    30    30    31   ar
    31    21    32    1
    32    32    33    1
    33    11     7    1
    34    33    18    1
    35    17     8    1
    36    31    22   ar
    37     1    34    1
    38     1    35    1
    39     1    36    1
    40     3    37    1
    41     3    38    1
    42     3    39    1
    43     6    40    1
    44     7    41    1
    45     8    42    1
    46     9    43    1
    47     9    44    1
    48    10    45    1
    49    10    46    1
    50    11    47    1
    51    12    48    1
    52    12    49    1
    53    13    50    1
    54    16    51    1
    55    17    52    1
    56    17    53    1
    57    19    54    1
    58    19    55    1
    59    20    56    1
    60    20    57    1
    61    23    58    1
    62    24    59    1
    63    30    60    1
    64    32    61    1
    65    32    62    1
    66    33    63    1
    67    33    64    1
