
     RDKit          3D

 40 41  0  0  0  0  0  0  0  0999 V2000
   -0.2399   -1.2819    1.3095 C   0  0  1  0  0  0  0  0  0  0  0  0
   -0.1382   -2.1715    2.4442 N   0  0  0  0  0  0  0  0  0  0  0  0
   -1.6291   -0.7012    1.3071 C   0  0  0  0  0  0  0  0  0  0  0  0
   -1.7984    0.2402    0.1457 C   0  0  0  0  0  0  0  0  0  0  0  0
   -3.1736    0.7914    0.1712 C   0  0  0  0  0  0  0  0  0  0  0  0
   -4.2138    0.1820   -0.4820 C   0  0  0  0  0  0  0  0  0  0  0  0
   -5.5423    0.5942   -0.5391 C   0  0  0  0  0  0  0  0  0  0  0  0
   -5.7549    1.7651    0.1727 C   0  0  0  0  0  0  0  0  0  0  0  0
   -4.7904    2.4416    0.8499 C   0  0  0  0  0  0  0  0  0  0  0  0
   -3.4959    1.9696    0.8590 C   0  0  0  0  0  0  0  0  0  0  0  0
    0.7453   -0.1782    1.4793 C   0  0  0  0  0  0  0  0  0  0  0  0
    1.9704   -0.5090    1.0801 C   0  0  0  0  0  0  0  0  0  0  0  0
    3.3659   -1.3333    0.4656 S   0  0  0  0  0  0  0  0  0  0  0  0
    3.0343   -2.7634    0.0842 O   0  0  0  0  0  0  0  0  0  0  0  0
    4.4680   -1.3314    1.4893 O   0  0  0  0  0  0  0  0  0  0  0  0
    3.8464   -0.5595   -1.0347 C   0  0  0  0  0  0  0  0  0  0  0  0
    4.7150    0.5118   -0.9978 C   0  0  0  0  0  0  0  0  0  0  0  0
    5.0583    1.0738   -2.2070 C   0  0  0  0  0  0  0  0  0  0  0  0
    4.5885    0.6286   -3.4262 C   0  0  0  0  0  0  0  0  0  0  0  0
    3.7147   -0.4497   -3.4746 C   0  0  0  0  0  0  0  0  0  0  0  0
    3.3737   -1.0073   -2.2690 C   0  0  0  0  0  0  0  0  0  0  0  0
   -0.0018   -1.8042    0.3605 H   0  0  0  0  0  0  0  0  0  0  0  0
   -0.6214   -3.0788    2.2834 H   0  0  0  0  0  0  0  0  0  0  0  0
   -0.5444   -1.6886    3.2758 H   0  0  0  0  0  0  0  0  0  0  0  0
   -1.7857   -0.2074    2.2843 H   0  0  0  0  0  0  0  0  0  0  0  0
   -2.3495   -1.5383    1.2535 H   0  0  0  0  0  0  0  0  0  0  0  0
   -1.5379   -0.2563   -0.7909 H   0  0  0  0  0  0  0  0  0  0  0  0
   -1.0436    1.0721    0.2731 H   0  0  0  0  0  0  0  0  0  0  0  0
   -3.9484   -0.7364   -1.0161 H   0  0  0  0  0  0  0  0  0  0  0  0
   -6.2711    0.0192   -1.0916 H   0  0  0  0  0  0  0  0  0  0  0  0
   -6.7891    2.1306    0.1595 H   0  0  0  0  0  0  0  0  0  0  0  0
   -4.9910    3.3502    1.3926 H   0  0  0  0  0  0  0  0  0  0  0  0
   -2.7276    2.5024    1.3943 H   0  0  0  0  0  0  0  0  0  0  0  0
    0.3651    0.7296    1.8937 H   0  0  0  0  0  0  0  0  0  0  0  0
    2.4689    0.4420    1.2906 H   0  0  0  0  0  0  0  0  0  0  0  0
    5.1271    0.9223   -0.0956 H   0  0  0  0  0  0  0  0  0  0  0  0
    5.7299    1.9183   -2.3398 H   0  0  0  0  0  0  0  0  0  0  0  0
    4.8434    1.0567   -4.3902 H   0  0  0  0  0  0  0  0  0  0  0  0
    3.2879   -0.8803   -4.3656 H   0  0  0  0  0  0  0  0  0  0  0  0
    2.6853   -1.8652   -2.2620 H   0  0  0  0  0  0  0  0  0  0  0  0
  1  2  1  0
  1  3  1  0
  3  4  1  0
  4  5  1  0
  5  6  2  0
  6  7  1  0
  7  8  2  0
  8  9  1  0
  9 10  2  0
  1 11  1  0
 11 12  2  3
 12 13  1  0
 13 14  2  0
 13 15  2  0
 13 16  1  0
 16 17  2  0
 17 18  1  0
 18 19  2  0
 19 20  1  0
 20 21  2  0
 10  5  1  0
 21 16  1  0
  1 22  1  6
  2 23  1  0
  2 24  1  0
  3 25  1  0
  3 26  1  0
  4 27  1  0
  4 28  1  0
  6 29  1  0
  7 30  1  0
  8 31  1  0
  9 32  1  0
 10 33  1  0
 11 34  1  0
 12 35  1  0
 17 36  1  0
 18 37  1  0
 19 38  1  0
 20 39  1  0
 21 40  1  0
M  END
$$$$
