@<TRIPOS>MOLECULE
*****
 40 41 0 0 0
SMALL
GASTEIGER

@<TRIPOS>ATOM
      1 C          -0.2399   -1.2819    1.3095 C.3     1  UNL1        0.0251
      2 N          -0.1382   -2.1715    2.4442 N.3     1  UNL1       -0.3240
      3 C          -1.6291   -0.7012    1.3071 C.3     1  UNL1       -0.0301
      4 C          -1.7984    0.2402    0.1457 C.3     1  UNL1       -0.0260
      5 C          -3.1736    0.7914    0.1712 C.ar    1  UNL1       -0.0473
      6 C          -4.2138    0.1820   -0.4820 C.ar    1  UNL1       -0.0586
      7 C          -5.5423    0.5942   -0.5391 C.ar    1  UNL1       -0.0615
      8 C          -5.7549    1.7651    0.1727 C.ar    1  UNL1       -0.0617
      9 C          -4.7904    2.4416    0.8499 C.ar    1  UNL1       -0.0615
     10 C          -3.4959    1.9696    0.8590 C.ar    1  UNL1       -0.0586
     11 C           0.7453   -0.1782    1.4793 C.2     1  UNL1       -0.0495
     12 C           1.9704   -0.5090    1.0801 C.2     1  UNL1        0.0549
     13 S           3.3659   -1.3333    0.4656 S.O2    1  UNL1        0.0182
     14 O           3.0343   -2.7634    0.0842 O.2     1  UNL1       -0.1649
     15 O           4.4680   -1.3314    1.4893 O.2     1  UNL1       -0.1649
     16 C           3.8464   -0.5595   -1.0347 C.ar    1  UNL1        0.0929
     17 C           4.7150    0.5118   -0.9978 C.ar    1  UNL1       -0.0365
     18 C           5.0583    1.0738   -2.2070 C.ar    1  UNL1       -0.0599
     19 C           4.5885    0.6286   -3.4262 C.ar    1  UNL1       -0.0616
     20 C           3.7147   -0.4497   -3.4746 C.ar    1  UNL1       -0.0599
     21 C           3.3737   -1.0073   -2.2690 C.ar    1  UNL1       -0.0365
     22 H          -0.0018   -1.8042    0.3605 H       1  UNL1        0.0502
     23 H          -0.6214   -3.0788    2.2834 H       1  UNL1        0.1188
     24 H          -0.5444   -1.6886    3.2758 H       1  UNL1        0.1188
     25 H          -1.7857   -0.2074    2.2843 H       1  UNL1        0.0286
     26 H          -2.3495   -1.5383    1.2535 H       1  UNL1        0.0286
     27 H          -1.5379   -0.2563   -0.7909 H       1  UNL1        0.0314
     28 H          -1.0436    1.0721    0.2731 H       1  UNL1        0.0314
     29 H          -3.9484   -0.7364   -1.0161 H       1  UNL1        0.0620
     30 H          -6.2711    0.0192   -1.0916 H       1  UNL1        0.0618
     31 H          -6.7891    2.1306    0.1595 H       1  UNL1        0.0618
     32 H          -4.9910    3.3502    1.3926 H       1  UNL1        0.0618
     33 H          -2.7276    2.5024    1.3943 H       1  UNL1        0.0620
     34 H           0.3651    0.7296    1.8937 H       1  UNL1        0.0600
     35 H           2.4689    0.4420    1.2906 H       1  UNL1        0.0820
     36 H           5.1271    0.9223   -0.0956 H       1  UNL1        0.0637
     37 H           5.7299    1.9183   -2.3398 H       1  UNL1        0.0618
     38 H           4.8434    1.0567   -4.3902 H       1  UNL1        0.0618
     39 H           3.2879   -0.8803   -4.3656 H       1  UNL1        0.0618
     40 H           2.6853   -1.8652   -2.2620 H       1  UNL1        0.0637
@<TRIPOS>BOND
     1     1     2    1
     2     1     3    1
     3     3     4    1
     4     4     5    1
     5     5     6   ar
     6     6     7   ar
     7     7     8   ar
     8     8     9   ar
     9     9    10   ar
    10     1    11    1
    11    11    12    2
    12    12    13    1
    13    13    14    2
    14    13    15    2
    15    13    16    1
    16    16    17   ar
    17    17    18   ar
    18    18    19   ar
    19    19    20   ar
    20    20    21   ar
    21    10     5   ar
    22    21    16   ar
    23     1    22    1
    24     2    23    1
    25     2    24    1
    26     3    25    1
    27     3    26    1
    28     4    27    1
    29     4    28    1
    30     6    29    1
    31     7    30    1
    32     8    31    1
    33     9    32    1
    34    10    33    1
    35    11    34    1
    36    12    35    1
    37    17    36    1
    38    18    37    1
    39    19    38    1
    40    20    39    1
    41    21    40    1
