@<TRIPOS>MOLECULE
*****
 40 43 0 0 0
SMALL
GASTEIGER

@<TRIPOS>ATOM
      1 C          -0.5290   -0.9526   -0.8069 C.3     1  UNL1        0.0949
      2 C          -0.8103   -2.1435   -0.0085 C.1     1  UNL1        0.0728
      3 N          -1.0402   -3.0760    0.6282 N.1     1  UNL1       -0.1959
      4 C           0.7679   -0.3264   -0.4798 C.ar    1  UNL1        0.0092
      5 C           0.9875    1.0341   -0.6010 C.ar    1  UNL1        0.1097
      6 N           2.2289    1.3879   -0.2533 N.ar    1  UNL1       -0.3391
      7 C           2.8148    2.7140   -0.2524 C.3     1  UNL1        0.0126
      8 C           2.8773    0.2495    0.1147 C.ar    1  UNL1        0.0511
      9 C           4.1839    0.0387    0.5629 C.ar    1  UNL1       -0.0192
     10 C           4.5768   -1.2510    0.8704 C.ar    1  UNL1        0.0430
     11 CL          6.2177   -1.5275    1.4348 Cl      1  UNL1       -0.0835
     12 C           3.7047   -2.3331    0.7435 C.ar    1  UNL1       -0.0427
     13 C           2.4133   -2.0869    0.2952 C.ar    1  UNL1       -0.0509
     14 C           1.9774   -0.8101   -0.0243 C.ar    1  UNL1        0.0052
     15 C          -0.1259    1.8811   -1.0769 C.2     1  UNL1        0.2613
     16 O          -0.0439    3.1398   -1.2279 O.2     1  UNL1       -0.2686
     17 N          -1.3401    1.2132   -1.3717 N.am    1  UNL1       -0.3029
     18 C          -1.6918    0.0063   -0.6186 C.3     1  UNL1        0.0568
     19 C          -1.7198    0.3590    0.8401 C.3     1  UNL1       -0.0174
     20 C          -3.0676    0.7995    1.3005 C.3     1  UNL1       -0.0021
     21 N          -4.1225   -0.1155    1.0219 N.3     1  UNL1       -0.3158
     22 C          -3.9494   -0.9867   -0.0709 C.3     1  UNL1       -0.0021
     23 C          -2.9531   -0.6059   -1.1129 C.3     1  UNL1       -0.0174
     24 H          -0.5564   -1.2280   -1.8971 H       1  UNL1        0.0525
     25 H           2.7517    3.1956    0.7444 H       1  UNL1        0.0456
     26 H           2.3306    3.3688   -1.0155 H       1  UNL1        0.0456
     27 H           3.8978    2.6839   -0.5379 H       1  UNL1        0.0456
     28 H           4.8645    0.8497    0.6666 H       1  UNL1        0.0653
     29 H           4.0343   -3.3401    0.9909 H       1  UNL1        0.0632
     30 H           1.7506   -2.9424    0.2034 H       1  UNL1        0.0625
     31 H          -1.9789    1.5857   -2.1257 H       1  UNL1        0.1497
     32 H          -1.3193   -0.4728    1.4344 H       1  UNL1        0.0299
     33 H          -1.0157    1.2193    1.0043 H       1  UNL1        0.0299
     34 H          -3.0012    0.9229    2.4073 H       1  UNL1        0.0425
     35 H          -3.2886    1.8296    0.9058 H       1  UNL1        0.0425
     36 H          -5.0392    0.3132    1.1701 H       1  UNL1        0.1219
     37 H          -4.9510   -1.0621   -0.5892 H       1  UNL1        0.0425
     38 H          -3.7439   -2.0163    0.3052 H       1  UNL1        0.0425
     39 H          -2.7094   -1.5618   -1.6625 H       1  UNL1        0.0299
     40 H          -3.3821    0.0467   -1.9116 H       1  UNL1        0.0299
@<TRIPOS>BOND
     1     1     2    1
     2     2     3    3
     3     1     4    1
     4     4     5   ar
     5     5     6   ar
     6     6     7    1
     7     6     8   ar
     8     8     9   ar
     9     9    10   ar
    10    10    11    1
    11    10    12   ar
    12    12    13   ar
    13    13    14   ar
    14     5    15    1
    15    15    16    2
    16    15    17   am
    17    17    18    1
    18    18    19    1
    19    19    20    1
    20    20    21    1
    21    21    22    1
    22    22    23    1
    23    18     1    1
    24    23    18    1
    25    14     4   ar
    26    14     8   ar
    27     1    24    1
    28     7    25    1
    29     7    26    1
    30     7    27    1
    31     9    28    1
    32    12    29    1
    33    13    30    1
    34    17    31    1
    35    19    32    1
    36    19    33    1
    37    20    34    1
    38    20    35    1
    39    21    36    1
    40    22    37    1
    41    22    38    1
    42    23    39    1
    43    23    40    1
