@<TRIPOS>MOLECULE
*****
 19 19 0 0 0
SMALL
GASTEIGER

@<TRIPOS>ATOM
      1 C          -0.2581    1.9486    0.4783 C.3     1  UNL1        0.1410
      2 N          -0.6435    0.5857    0.2130 N.ar    1  UNL1       -0.1990
      3 C           0.1736   -0.2175   -0.5052 C.ar    1  UNL1        0.2288
      4 C           1.4589    0.3050   -1.0157 C.2     1  UNL1        0.1372
      5 N           2.1660    0.0956    0.0289 N.2     1  UNL1       -0.0889
      6 O           3.4994    0.3850    0.1731 O.2     1  UNL1       -0.4091
      7 C          -0.1115   -1.5366   -0.8093 C.ar    1  UNL1        0.0116
      8 C          -1.3110   -2.0349   -0.3366 C.ar    1  UNL1       -0.0499
      9 C          -2.1247   -1.1946    0.3926 C.ar    1  UNL1        0.0021
     10 C          -1.8204    0.1342    0.6897 C.ar    1  UNL1        0.1715
     11 H           0.0523    2.1023    1.5421 H       1  UNL1        0.0993
     12 H          -1.0995    2.6551    0.2834 H       1  UNL1        0.0993
     13 H           0.5794    2.2685   -0.1808 H       1  UNL1        0.0993
     14 H           1.9609    0.7575   -1.8780 H       1  UNL1        0.0931
     15 H           4.0269   -0.1725    0.8552 H       1  UNL1        0.3278
     16 H           0.5913   -2.1308   -1.3935 H       1  UNL1        0.0684
     17 H          -1.5684   -3.0523   -0.5509 H       1  UNL1        0.0622
     18 H          -3.0530   -1.6324    0.7403 H       1  UNL1        0.0677
     19 H          -2.5185    0.7342    1.2734 H       1  UNL1        0.1376
@<TRIPOS>UNITY_ATOM_ATTR
2 1
charge 1
@<TRIPOS>BOND
     1     1     2    1
     2     2     3   ar
     3     3     4    1
     4     4     5    2
     5     5     6    1
     6     3     7   ar
     7     7     8   ar
     8     8     9   ar
     9     9    10   ar
    10    10     2   ar
    11     1    11    1
    12     1    12    1
    13     1    13    1
    14     4    14    1
    15     6    15    1
    16     7    16    1
    17     8    17    1
    18     9    18    1
    19    10    19    1
