
     RDKit          3D

 19 19  0  0  0  0  0  0  0  0999 V2000
   -0.2581    1.9486    0.4783 C   0  0  0  0  0  0  0  0  0  0  0  0
   -0.6435    0.5857    0.2130 N   0  0  0  0  0  4  0  0  0  0  0  0
    0.1736   -0.2175   -0.5052 C   0  0  0  0  0  0  0  0  0  0  0  0
    1.4589    0.3050   -1.0157 C   0  0  0  0  0  0  0  0  0  0  0  0
    2.1660    0.0956    0.0289 N   0  0  0  0  0  0  0  0  0  0  0  0
    3.4994    0.3850    0.1731 O   0  0  0  0  0  0  0  0  0  0  0  0
   -0.1115   -1.5366   -0.8093 C   0  0  0  0  0  0  0  0  0  0  0  0
   -1.3110   -2.0349   -0.3366 C   0  0  0  0  0  0  0  0  0  0  0  0
   -2.1247   -1.1946    0.3926 C   0  0  0  0  0  0  0  0  0  0  0  0
   -1.8204    0.1342    0.6897 C   0  0  0  0  0  0  0  0  0  0  0  0
    0.0523    2.1023    1.5421 H   0  0  0  0  0  0  0  0  0  0  0  0
   -1.0995    2.6551    0.2834 H   0  0  0  0  0  0  0  0  0  0  0  0
    0.5794    2.2685   -0.1808 H   0  0  0  0  0  0  0  0  0  0  0  0
    1.9609    0.7575   -1.8780 H   0  0  0  0  0  0  0  0  0  0  0  0
    4.0269   -0.1725    0.8552 H   0  0  0  0  0  0  0  0  0  0  0  0
    0.5913   -2.1308   -1.3935 H   0  0  0  0  0  0  0  0  0  0  0  0
   -1.5684   -3.0523   -0.5509 H   0  0  0  0  0  0  0  0  0  0  0  0
   -3.0530   -1.6324    0.7403 H   0  0  0  0  0  0  0  0  0  0  0  0
   -2.5185    0.7342    1.2734 H   0  0  0  0  0  0  0  0  0  0  0  0
  1  2  1  0
  2  3  2  0
  3  4  1  0
  4  5  2  0
  5  6  1  0
  3  7  1  0
  7  8  2  0
  8  9  1  0
  9 10  2  0
 10  2  1  0
  1 11  1  0
  1 12  1  0
  1 13  1  0
  4 14  1  0
  6 15  1  0
  7 16  1  0
  8 17  1  0
  9 18  1  0
 10 19  1  0
M  CHG  1   2   1
M  END
$$$$
