@<TRIPOS>MOLECULE
*****
 28 28 0 0 0
SMALL
GASTEIGER

@<TRIPOS>ATOM
      1 C          -3.6167    1.8389    0.5588 C.3     1  UNL1       -0.0188
      2 C          -2.2941    1.1752    0.4524 C.ar    1  UNL1        0.0798
      3 N          -1.1866    1.9408    0.6329 N.ar    1  UNL1       -0.2562
      4 C           0.0618    1.4366    0.5558 C.ar    1  UNL1        0.0338
      5 C           0.2324    0.0909    0.2855 C.ar    1  UNL1        0.0056
      6 C           1.6458   -0.4256    0.1758 C.3     1  UNL1        0.0859
      7 O           2.4182    0.6926   -0.1561 O.3     1  UNL1       -0.2820
      8 P           4.0326    0.4541   -0.3479 P.3     1  UNL1        0.4727
      9 O           4.8428    1.6282    0.6003 O.3     1  UNL1       -0.3026
     10 O           4.6344   -1.0362    0.0774 O.3     1  UNL1       -0.3026
     11 O           4.3958    0.7136   -1.8010 O.2     1  UNL1       -0.2275
     12 C          -0.8739   -0.7159    0.1018 C.ar    1  UNL1        0.0278
     13 C          -0.7347   -2.1705   -0.1675 C.3     1  UNL1        0.0731
     14 O          -1.8171   -2.5361   -0.9985 O.3     1  UNL1       -0.3903
     15 C          -2.1519   -0.1721    0.1854 C.ar    1  UNL1        0.1434
     16 O          -3.2731   -0.9729    0.0014 O.3     1  UNL1       -0.5046
     17 H          -3.4574    2.9570    0.4647 H       1  UNL1        0.0294
     18 H          -4.0697    1.6693    1.5579 H       1  UNL1        0.0294
     19 H          -4.3074    1.5389   -0.2448 H       1  UNL1        0.0294
     20 H           0.9423    2.0808    0.7071 H       1  UNL1        0.0833
     21 H           1.9326   -0.9423    1.0885 H       1  UNL1        0.0616
     22 H           1.6783   -1.1231   -0.7050 H       1  UNL1        0.0616
     23 H           4.2551    2.4115    0.7527 H       1  UNL1        0.2220
     24 H           4.0233   -1.6633    0.5006 H       1  UNL1        0.2220
     25 H           0.1950   -2.4315   -0.7075 H       1  UNL1        0.0608
     26 H          -0.8485   -2.7222    0.7815 H       1  UNL1        0.0608
     27 H          -2.4539   -3.1078   -0.4760 H       1  UNL1        0.2098
     28 H          -4.2055   -0.6086    0.1013 H       1  UNL1        0.2922
@<TRIPOS>BOND
     1     1     2    1
     2     2     3   ar
     3     3     4   ar
     4     4     5   ar
     5     5     6    1
     6     6     7    1
     7     7     8    1
     8     8     9    1
     9     8    10    1
    10     8    11    2
    11     5    12   ar
    12    12    13    1
    13    13    14    1
    14    12    15   ar
    15    15    16    1
    16    15     2   ar
    17     1    17    1
    18     1    18    1
    19     1    19    1
    20     4    20    1
    21     6    21    1
    22     6    22    1
    23     9    23    1
    24    10    24    1
    25    13    25    1
    26    13    26    1
    27    14    27    1
    28    16    28    1
