@<TRIPOS>MOLECULE
*****
 63 67 0 0 0
SMALL
GASTEIGER

@<TRIPOS>ATOM
      1 C          -3.5778   -5.4421   -1.3215 C.3     1  UNL1       -0.0206
      2 C          -3.1965   -4.0321   -1.0747 C.ar    1  UNL1        0.0611
      3 C          -1.9203   -3.5932   -0.9000 C.ar    1  UNL1       -0.0084
      4 C          -1.9980   -2.2308   -0.6992 C.ar    1  UNL1        0.1296
      5 C          -0.8167   -1.3696   -0.4682 C.2     1  UNL1        0.2667
      6 O          -0.9464   -0.1296   -0.2906 O.2     1  UNL1       -0.2682
      7 N           0.4897   -1.8961   -0.4378 N.am    1  UNL1       -0.2802
      8 C           1.6423   -1.0948   -0.2184 C.ar    1  UNL1        0.0338
      9 C           2.1688   -0.8339    1.0273 C.ar    1  UNL1       -0.0399
     10 C           3.2814   -0.0599    1.2256 C.ar    1  UNL1       -0.0522
     11 C           3.9641    0.5251    0.1451 C.ar    1  UNL1       -0.0159
     12 C           5.1022    1.3527    0.4201 C.ar    1  UNL1        0.0084
     13 C           4.8941    2.5631    1.0633 C.ar    1  UNL1       -0.0522
     14 C           5.9168    3.4348    1.3419 C.ar    1  UNL1       -0.0611
     15 C           7.1969    3.1097    0.9764 C.ar    1  UNL1       -0.0599
     16 C           7.4418    1.9313    0.3441 C.ar    1  UNL1       -0.0348
     17 C           6.3806    1.0384    0.0616 C.ar    1  UNL1        0.1127
     18 S           6.7527   -0.4575   -0.7067 S.O2    1  UNL1        0.0565
     19 N           8.4916   -0.5656   -0.9530 N.3     1  UNL1       -0.2035
     20 O           6.1854   -0.6221   -2.0847 O.2     1  UNL1       -0.1532
     21 O           6.4171   -1.6494    0.1646 O.2     1  UNL1       -0.1532
     22 C           3.4464    0.2715   -1.0968 C.ar    1  UNL1       -0.0522
     23 C           2.3156   -0.5181   -1.2725 C.ar    1  UNL1       -0.0399
     24 N          -3.2728   -1.8627   -0.7509 N.ar    1  UNL1       -0.2255
     25 C          -3.7061   -0.5098   -0.5817 C.ar    1  UNL1        0.0915
     26 C          -3.3859    0.4947   -1.4563 C.ar    1  UNL1       -0.0267
     27 C          -3.8210    1.7902   -1.2628 C.ar    1  UNL1       -0.0158
     28 C          -3.4868    2.8037   -2.1625 C.ar    1  UNL1       -0.0540
     29 C          -3.9321    4.0886   -1.9492 C.ar    1  UNL1       -0.0612
     30 C          -4.7185    4.4058   -0.8422 C.ar    1  UNL1       -0.0612
     31 C          -5.0285    3.3811    0.0242 C.ar    1  UNL1       -0.0540
     32 C          -4.5967    2.0803   -0.1623 C.ar    1  UNL1       -0.0160
     33 C          -4.9131    1.0628    0.7113 C.ar    1  UNL1       -0.0271
     34 C          -4.4904   -0.2393    0.5396 C.ar    1  UNL1        0.1138
     35 S          -4.9054   -1.5184    1.6646 S.O2    1  UNL1       -0.0039
     36 C          -5.9083   -0.7843    2.9530 C.3     1  UNL1        0.0597
     37 O          -3.6337   -2.0691    2.2424 O.2     1  UNL1       -0.1696
     38 O          -5.7404   -2.5808    1.0133 O.2     1  UNL1       -0.1696
     39 N          -3.9826   -2.9417   -0.9752 N.ar    1  UNL1       -0.1709
     40 H          -4.6667   -5.6047   -1.3151 H       1  UNL1        0.0293
     41 H          -3.1137   -6.0878   -0.5577 H       1  UNL1        0.0293
     42 H          -3.1123   -5.7256   -2.2994 H       1  UNL1        0.0293
     43 H          -1.0288   -4.2000   -0.9170 H       1  UNL1        0.0659
     44 H           0.5704   -2.9460   -0.5907 H       1  UNL1        0.1552
     45 H           1.6916   -1.2531    1.8937 H       1  UNL1        0.0636
     46 H           3.6791    0.1310    2.2339 H       1  UNL1        0.0624
     47 H           3.8712    2.8373    1.3627 H       1  UNL1        0.0624
     48 H           5.7381    4.3639    1.8387 H       1  UNL1        0.0618
     49 H           8.0525    3.7526    1.1654 H       1  UNL1        0.0618
     50 H           8.4511    1.6621    0.0494 H       1  UNL1        0.0637
     51 H           8.9771   -0.6014   -0.0234 H       1  UNL1        0.1442
     52 H           8.7725    0.2938   -1.4632 H       1  UNL1        0.1442
     53 H           3.9362    0.7308   -1.9689 H       1  UNL1        0.0624
     54 H           1.9617   -0.6783   -2.2743 H       1  UNL1        0.0636
     55 H          -2.7785    0.2820   -2.3234 H       1  UNL1        0.0645
     56 H          -2.8746    2.5331   -3.0155 H       1  UNL1        0.0624
     57 H          -3.6621    4.8560   -2.6569 H       1  UNL1        0.0618
     58 H          -5.0717    5.4238   -0.6725 H       1  UNL1        0.0618
     59 H          -5.6397    3.5824    0.9013 H       1  UNL1        0.0624
     60 H          -5.5274    1.3122    1.5754 H       1  UNL1        0.0643
     61 H          -5.2843   -0.2282    3.6829 H       1  UNL1        0.0468
     62 H          -6.6581   -0.1468    2.4448 H       1  UNL1        0.0468
     63 H          -6.3932   -1.6221    3.5066 H       1  UNL1        0.0468
@<TRIPOS>BOND
     1     1     2    1
     2     2     3   ar
     3     3     4   ar
     4     4     5    1
     5     5     6    2
     6     5     7   am
     7     7     8    1
     8     8     9   ar
     9     9    10   ar
    10    10    11   ar
    11    11    12    1
    12    12    13   ar
    13    13    14   ar
    14    14    15   ar
    15    15    16   ar
    16    16    17   ar
    17    17    18    1
    18    18    19    1
    19    18    20    2
    20    18    21    2
    21    11    22   ar
    22    22    23   ar
    23     4    24   ar
    24    24    25    1
    25    25    26   ar
    26    26    27   ar
    27    27    28   ar
    28    28    29   ar
    29    29    30   ar
    30    30    31   ar
    31    31    32   ar
    32    32    33   ar
    33    33    34   ar
    34    34    35    1
    35    35    36    1
    36    35    37    2
    37    35    38    2
    38    24    39   ar
    39    39     2   ar
    40    23     8   ar
    41    34    25   ar
    42    17    12   ar
    43    32    27   ar
    44     1    40    1
    45     1    41    1
    46     1    42    1
    47     3    43    1
    48     7    44    1
    49     9    45    1
    50    10    46    1
    51    13    47    1
    52    14    48    1
    53    15    49    1
    54    16    50    1
    55    19    51    1
    56    19    52    1
    57    22    53    1
    58    23    54    1
    59    26    55    1
    60    28    56    1
    61    29    57    1
    62    30    58    1
    63    31    59    1
    64    33    60    1
    65    36    61    1
    66    36    62    1
    67    36    63    1
