
     RDKit          3D

 63 67  0  0  0  0  0  0  0  0999 V2000
   -3.5778   -5.4421   -1.3215 C   0  0  0  0  0  0  0  0  0  0  0  0
   -3.1965   -4.0321   -1.0747 C   0  0  0  0  0  0  0  0  0  0  0  0
   -1.9203   -3.5932   -0.9000 C   0  0  0  0  0  0  0  0  0  0  0  0
   -1.9980   -2.2308   -0.6992 C   0  0  0  0  0  0  0  0  0  0  0  0
   -0.8167   -1.3696   -0.4682 C   0  0  0  0  0  0  0  0  0  0  0  0
   -0.9464   -0.1296   -0.2906 O   0  0  0  0  0  0  0  0  0  0  0  0
    0.4897   -1.8961   -0.4378 N   0  0  0  0  0  0  0  0  0  0  0  0
    1.6423   -1.0948   -0.2184 C   0  0  0  0  0  0  0  0  0  0  0  0
    2.1688   -0.8339    1.0273 C   0  0  0  0  0  0  0  0  0  0  0  0
    3.2814   -0.0599    1.2256 C   0  0  0  0  0  0  0  0  0  0  0  0
    3.9641    0.5251    0.1451 C   0  0  0  0  0  0  0  0  0  0  0  0
    5.1022    1.3527    0.4201 C   0  0  0  0  0  0  0  0  0  0  0  0
    4.8941    2.5631    1.0633 C   0  0  0  0  0  0  0  0  0  0  0  0
    5.9168    3.4348    1.3419 C   0  0  0  0  0  0  0  0  0  0  0  0
    7.1969    3.1097    0.9764 C   0  0  0  0  0  0  0  0  0  0  0  0
    7.4418    1.9313    0.3441 C   0  0  0  0  0  0  0  0  0  0  0  0
    6.3806    1.0384    0.0616 C   0  0  0  0  0  0  0  0  0  0  0  0
    6.7527   -0.4575   -0.7067 S   0  0  0  0  0  6  0  0  0  0  0  0
    8.4916   -0.5656   -0.9530 N   0  0  0  0  0  0  0  0  0  0  0  0
    6.1854   -0.6221   -2.0847 O   0  0  0  0  0  0  0  0  0  0  0  0
    6.4171   -1.6494    0.1646 O   0  0  0  0  0  0  0  0  0  0  0  0
    3.4464    0.2715   -1.0968 C   0  0  0  0  0  0  0  0  0  0  0  0
    2.3156   -0.5181   -1.2725 C   0  0  0  0  0  0  0  0  0  0  0  0
   -3.2728   -1.8627   -0.7509 N   0  0  0  0  0  0  0  0  0  0  0  0
   -3.7061   -0.5098   -0.5817 C   0  0  0  0  0  0  0  0  0  0  0  0
   -3.3859    0.4947   -1.4563 C   0  0  0  0  0  0  0  0  0  0  0  0
   -3.8210    1.7902   -1.2628 C   0  0  0  0  0  0  0  0  0  0  0  0
   -3.4868    2.8037   -2.1625 C   0  0  0  0  0  0  0  0  0  0  0  0
   -3.9321    4.0886   -1.9492 C   0  0  0  0  0  0  0  0  0  0  0  0
   -4.7185    4.4058   -0.8422 C   0  0  0  0  0  0  0  0  0  0  0  0
   -5.0285    3.3811    0.0242 C   0  0  0  0  0  0  0  0  0  0  0  0
   -4.5967    2.0803   -0.1623 C   0  0  0  0  0  0  0  0  0  0  0  0
   -4.9131    1.0628    0.7113 C   0  0  0  0  0  0  0  0  0  0  0  0
   -4.4904   -0.2393    0.5396 C   0  0  0  0  0  0  0  0  0  0  0  0
   -4.9054   -1.5184    1.6646 S   0  0  0  0  0  6  0  0  0  0  0  0
   -5.9083   -0.7843    2.9530 C   0  0  0  0  0  0  0  0  0  0  0  0
   -3.6337   -2.0691    2.2424 O   0  0  0  0  0  0  0  0  0  0  0  0
   -5.7404   -2.5808    1.0133 O   0  0  0  0  0  0  0  0  0  0  0  0
   -3.9826   -2.9417   -0.9752 N   0  0  0  0  0  0  0  0  0  0  0  0
   -4.6667   -5.6047   -1.3151 H   0  0  0  0  0  0  0  0  0  0  0  0
   -3.1137   -6.0878   -0.5577 H   0  0  0  0  0  0  0  0  0  0  0  0
   -3.1123   -5.7256   -2.2994 H   0  0  0  0  0  0  0  0  0  0  0  0
   -1.0288   -4.2000   -0.9170 H   0  0  0  0  0  0  0  0  0  0  0  0
    0.5704   -2.9460   -0.5907 H   0  0  0  0  0  0  0  0  0  0  0  0
    1.6916   -1.2531    1.8937 H   0  0  0  0  0  0  0  0  0  0  0  0
    3.6791    0.1310    2.2339 H   0  0  0  0  0  0  0  0  0  0  0  0
    3.8712    2.8373    1.3627 H   0  0  0  0  0  0  0  0  0  0  0  0
    5.7381    4.3639    1.8387 H   0  0  0  0  0  0  0  0  0  0  0  0
    8.0525    3.7526    1.1654 H   0  0  0  0  0  0  0  0  0  0  0  0
    8.4511    1.6621    0.0494 H   0  0  0  0  0  0  0  0  0  0  0  0
    8.9771   -0.6014   -0.0234 H   0  0  0  0  0  0  0  0  0  0  0  0
    8.7725    0.2938   -1.4632 H   0  0  0  0  0  0  0  0  0  0  0  0
    3.9362    0.7308   -1.9689 H   0  0  0  0  0  0  0  0  0  0  0  0
    1.9617   -0.6783   -2.2743 H   0  0  0  0  0  0  0  0  0  0  0  0
   -2.7785    0.2820   -2.3234 H   0  0  0  0  0  0  0  0  0  0  0  0
   -2.8746    2.5331   -3.0155 H   0  0  0  0  0  0  0  0  0  0  0  0
   -3.6621    4.8560   -2.6569 H   0  0  0  0  0  0  0  0  0  0  0  0
   -5.0717    5.4238   -0.6725 H   0  0  0  0  0  0  0  0  0  0  0  0
   -5.6397    3.5824    0.9013 H   0  0  0  0  0  0  0  0  0  0  0  0
   -5.5274    1.3122    1.5754 H   0  0  0  0  0  0  0  0  0  0  0  0
   -5.2843   -0.2282    3.6829 H   0  0  0  0  0  0  0  0  0  0  0  0
   -6.6581   -0.1468    2.4448 H   0  0  0  0  0  0  0  0  0  0  0  0
   -6.3932   -1.6221    3.5066 H   0  0  0  0  0  0  0  0  0  0  0  0
  1  2  1  0
  2  3  1  0
  3  4  2  0
  4  5  1  0
  5  6  2  0
  5  7  1  0
  7  8  1  0
  8  9  2  0
  9 10  1  0
 10 11  2  0
 11 12  1  0
 12 13  2  0
 13 14  1  0
 14 15  2  0
 15 16  1  0
 16 17  2  0
 17 18  1  0
 18 19  1  0
 18 20  2  0
 18 21  2  0
 11 22  1  0
 22 23  2  0
  4 24  1  0
 24 25  1  0
 25 26  2  0
 26 27  1  0
 27 28  2  0
 28 29  1  0
 29 30  2  0
 30 31  1  0
 31 32  2  0
 32 33  1  0
 33 34  2  0
 34 35  1  0
 35 36  1  0
 35 37  2  0
 35 38  2  0
 24 39  1  0
 39  2  2  0
 23  8  1  0
 34 25  1  0
 17 12  1  0
 32 27  1  0
  1 40  1  0
  1 41  1  0
  1 42  1  0
  3 43  1  0
  7 44  1  0
  9 45  1  0
 10 46  1  0
 13 47  1  0
 14 48  1  0
 15 49  1  0
 16 50  1  0
 19 51  1  0
 19 52  1  0
 22 53  1  0
 23 54  1  0
 26 55  1  0
 28 56  1  0
 29 57  1  0
 30 58  1  0
 31 59  1  0
 33 60  1  0
 36 61  1  0
 36 62  1  0
 36 63  1  0
M  END
$$$$
