
     RDKit          3D

 48 51  0  0  0  0  0  0  0  0999 V2000
   -6.4210   -1.7350   -1.4099 C   0  0  0  0  0  0  0  0  0  0  0  0
   -7.1308   -0.7257   -0.6791 N   0  0  0  0  0  0  0  0  0  0  0  0
   -8.5532   -0.7684   -0.8747 C   0  0  0  0  0  0  0  0  0  0  0  0
   -6.4594    0.8386   -0.8255 S   0  0  0  0  0  6  0  0  0  0  0  0
   -6.4338    1.2157   -2.2899 O   0  0  0  0  0  0  0  0  0  0  0  0
   -7.3340    1.8116   -0.1169 O   0  0  0  0  0  0  0  0  0  0  0  0
   -4.8318    0.8163   -0.1807 C   0  0  0  0  0  0  0  0  0  0  0  0
   -3.7453    0.5303   -0.9707 C   0  0  0  0  0  0  0  0  0  0  0  0
   -2.4305    0.5071   -0.4729 C   0  0  0  0  0  0  0  0  0  0  0  0
   -2.1759    0.7736    0.8431 C   0  0  0  0  0  0  0  0  0  0  0  0
   -0.8788    0.7751    1.4440 N   0  0  0  0  0  0  0  0  0  0  0  0
    0.3216    0.5016    0.7624 C   0  0  0  0  0  0  0  0  0  0  0  0
    1.5053    0.5475    1.5113 C   0  0  0  0  0  0  0  0  0  0  0  0
    2.7085    0.2963    0.9313 C   0  0  0  0  0  0  0  0  0  0  0  0
    3.9595    0.2811    1.4363 N   0  0  0  0  0  0  0  0  0  0  0  0
    4.8596   -0.0204    0.4912 C   0  0  0  0  0  0  0  0  0  0  0  0
    6.3035   -0.1382    0.6219 C   0  0  0  0  0  0  0  0  0  0  0  0
    7.0193    0.0473    1.7857 C   0  0  0  0  0  0  0  0  0  0  0  0
    8.3100   -0.1585    1.4501 N   0  0  0  0  0  0  0  0  0  0  0  0
    8.4196   -0.4546    0.1671 N   0  0  0  0  0  0  0  0  0  0  0  0
    9.6372   -0.7478   -0.5957 C   0  0  0  0  0  0  0  0  0  0  0  0
    7.1873   -0.4499   -0.3766 C   0  0  0  0  0  0  0  0  0  0  0  0
    4.1333   -0.2065   -0.6796 C   0  0  0  0  0  0  0  0  0  0  0  0
    2.8024   -0.0074   -0.3929 C   0  0  0  0  0  0  0  0  0  0  0  0
    1.6121   -0.0441   -1.1032 C   0  0  0  0  0  0  0  0  0  0  0  0
    0.4395    0.2026   -0.5300 N   0  0  0  0  0  0  0  0  0  0  0  0
   -3.2922    1.0645    1.6414 C   0  0  0  0  0  0  0  0  0  0  0  0
   -3.0024    1.4092    3.3263 Cl  0  0  0  0  0  0  0  0  0  0  0  0
   -4.5675    1.0841    1.1459 C   0  0  0  0  0  0  0  0  0  0  0  0
   -7.1035   -2.5535   -1.7582 H   0  0  0  0  0  0  0  0  0  0  0  0
   -5.7130   -2.2270   -0.6873 H   0  0  0  0  0  0  0  0  0  0  0  0
   -5.8015   -1.3324   -2.2352 H   0  0  0  0  0  0  0  0  0  0  0  0
   -8.9171   -1.7038   -0.3586 H   0  0  0  0  0  0  0  0  0  0  0  0
   -9.0112    0.0961   -0.3712 H   0  0  0  0  0  0  0  0  0  0  0  0
   -8.8527   -0.8842   -1.9291 H   0  0  0  0  0  0  0  0  0  0  0  0
   -3.9217    0.3149   -2.0213 H   0  0  0  0  0  0  0  0  0  0  0  0
   -1.6337    0.2738   -1.1585 H   0  0  0  0  0  0  0  0  0  0  0  0
   -0.8002    0.9967    2.4778 H   0  0  0  0  0  0  0  0  0  0  0  0
    1.4774    0.7874    2.5784 H   0  0  0  0  0  0  0  0  0  0  0  0
    4.2028    0.4765    2.4275 H   0  0  0  0  0  0  0  0  0  0  0  0
    6.6582    0.3046    2.7787 H   0  0  0  0  0  0  0  0  0  0  0  0
    9.6838   -1.8253   -0.8371 H   0  0  0  0  0  0  0  0  0  0  0  0
    9.6026   -0.1771   -1.5427 H   0  0  0  0  0  0  0  0  0  0  0  0
   10.4846   -0.4312    0.0551 H   0  0  0  0  0  0  0  0  0  0  0  0
    6.9252   -0.6527   -1.4102 H   0  0  0  0  0  0  0  0  0  0  0  0
    4.4954   -0.4629   -1.6680 H   0  0  0  0  0  0  0  0  0  0  0  0
    1.6977   -0.2886   -2.1651 H   0  0  0  0  0  0  0  0  0  0  0  0
   -5.4354    1.3100    1.7652 H   0  0  0  0  0  0  0  0  0  0  0  0
  1  2  1  0
  2  3  1  0
  2  4  1  0
  4  5  2  0
  4  6  2  0
  4  7  1  0
  7  8  2  0
  8  9  1  0
  9 10  2  0
 10 11  1  0
 11 12  1  0
 12 13  2  0
 13 14  1  0
 14 15  1  0
 15 16  1  0
 16 17  1  0
 17 18  1  0
 18 19  2  0
 19 20  1  0
 20 21  1  0
 20 22  1  0
 16 23  2  0
 23 24  1  0
 24 25  1  0
 25 26  2  0
 10 27  1  0
 27 28  1  0
 27 29  2  0
 29  7  1  0
 26 12  1  0
 24 14  2  0
 22 17  2  0
  1 30  1  0
  1 31  1  0
  1 32  1  0
  3 33  1  0
  3 34  1  0
  3 35  1  0
  8 36  1  0
  9 37  1  0
 11 38  1  0
 13 39  1  0
 15 40  1  0
 18 41  1  0
 21 42  1  0
 21 43  1  0
 21 44  1  0
 22 45  1  0
 23 46  1  0
 25 47  1  0
 29 48  1  0
M  END
$$$$
