@<TRIPOS>MOLECULE
*****
 48 51 0 0 0
SMALL
GASTEIGER

@<TRIPOS>ATOM
      1 C          -6.4210   -1.7350   -1.4099 C.3     1  UNL1        0.0086
      2 N          -7.1308   -0.7257   -0.6791 N.3     1  UNL1       -0.1827
      3 C          -8.5532   -0.7684   -0.8747 C.3     1  UNL1        0.0086
      4 S          -6.4594    0.8386   -0.8255 S.O2    1  UNL1        0.0604
      5 O          -6.4338    1.2157   -2.2899 O.2     1  UNL1       -0.1529
      6 O          -7.3340    1.8116   -0.1169 O.2     1  UNL1       -0.1529
      7 C          -4.8318    0.8163   -0.1807 C.ar    1  UNL1        0.1070
      8 C          -3.7453    0.5303   -0.9707 C.ar    1  UNL1       -0.0335
      9 C          -2.4305    0.5071   -0.4729 C.ar    1  UNL1       -0.0372
     10 C          -2.1759    0.7736    0.8431 C.ar    1  UNL1        0.0510
     11 N          -0.8788    0.7751    1.4440 N.pl3   1  UNL1       -0.2982
     12 C           0.3216    0.5016    0.7624 C.ar    1  UNL1        0.1249
     13 C           1.5053    0.5475    1.5113 C.ar    1  UNL1        0.0023
     14 C           2.7085    0.2963    0.9313 C.ar    1  UNL1        0.0516
     15 N           3.9595    0.2811    1.4363 N.ar    1  UNL1       -0.3539
     16 C           4.8596   -0.0204    0.4912 C.ar    1  UNL1        0.0505
     17 C           6.3035   -0.1382    0.6219 C.ar    1  UNL1        0.0357
     18 C           7.0193    0.0473    1.7857 C.ar    1  UNL1        0.0585
     19 N           8.3100   -0.1585    1.4501 N.ar    1  UNL1       -0.1792
     20 N           8.4196   -0.4546    0.1671 N.ar    1  UNL1       -0.2738
     21 C           9.6372   -0.7478   -0.5957 C.3     1  UNL1        0.0302
     22 C           7.1873   -0.4499   -0.3766 C.ar    1  UNL1        0.0343
     23 C           4.1333   -0.2065   -0.6796 C.ar    1  UNL1       -0.0271
     24 C           2.8024   -0.0074   -0.3929 C.ar    1  UNL1        0.0185
     25 C           1.6121   -0.0441   -1.1032 C.ar    1  UNL1        0.0389
     26 N           0.4395    0.2026   -0.5300 N.ar    1  UNL1       -0.2395
     27 C          -3.2922    1.0645    1.6414 C.ar    1  UNL1        0.0639
     28 CL         -3.0024    1.4092    3.3263 Cl      1  UNL1       -0.0816
     29 C          -4.5675    1.0841    1.1459 C.ar    1  UNL1       -0.0152
     30 H          -7.1035   -2.5535   -1.7582 H       1  UNL1        0.0408
     31 H          -5.7130   -2.2270   -0.6873 H       1  UNL1        0.0408
     32 H          -5.8015   -1.3324   -2.2352 H       1  UNL1        0.0408
     33 H          -8.9171   -1.7038   -0.3586 H       1  UNL1        0.0408
     34 H          -9.0112    0.0961   -0.3712 H       1  UNL1        0.0408
     35 H          -8.8527   -0.8842   -1.9291 H       1  UNL1        0.0408
     36 H          -3.9217    0.3149   -2.0213 H       1  UNL1        0.0638
     37 H          -1.6337    0.2738   -1.1585 H       1  UNL1        0.0637
     38 H          -0.8002    0.9967    2.4778 H       1  UNL1        0.1536
     39 H           1.4774    0.7874    2.5784 H       1  UNL1        0.0673
     40 H           4.2028    0.4765    2.4275 H       1  UNL1        0.1659
     41 H           6.6582    0.3046    2.7787 H       1  UNL1        0.0854
     42 H           9.6838   -1.8253   -0.8371 H       1  UNL1        0.0473
     43 H           9.6026   -0.1771   -1.5427 H       1  UNL1        0.0473
     44 H          10.4846   -0.4312    0.0551 H       1  UNL1        0.0473
     45 H           6.9252   -0.6527   -1.4102 H       1  UNL1        0.0833
     46 H           4.4954   -0.4629   -1.6680 H       1  UNL1        0.0645
     47 H           1.6977   -0.2886   -2.1651 H       1  UNL1        0.0837
     48 H          -5.4354    1.3100    1.7652 H       1  UNL1        0.0652
@<TRIPOS>BOND
     1     1     2    1
     2     2     3    1
     3     2     4    1
     4     4     5    2
     5     4     6    2
     6     4     7    1
     7     7     8   ar
     8     8     9   ar
     9     9    10   ar
    10    10    11    1
    11    11    12    1
    12    12    13   ar
    13    13    14   ar
    14    14    15   ar
    15    15    16   ar
    16    16    17    1
    17    17    18   ar
    18    18    19   ar
    19    19    20   ar
    20    20    21    1
    21    20    22   ar
    22    16    23   ar
    23    23    24   ar
    24    24    25   ar
    25    25    26   ar
    26    10    27   ar
    27    27    28    1
    28    27    29   ar
    29    29     7   ar
    30    26    12   ar
    31    24    14   ar
    32    22    17   ar
    33     1    30    1
    34     1    31    1
    35     1    32    1
    36     3    33    1
    37     3    34    1
    38     3    35    1
    39     8    36    1
    40     9    37    1
    41    11    38    1
    42    13    39    1
    43    15    40    1
    44    18    41    1
    45    21    42    1
    46    21    43    1
    47    21    44    1
    48    22    45    1
    49    23    46    1
    50    25    47    1
    51    29    48    1
