
     RDKit          3D

 50 51  0  0  0  0  0  0  0  0999 V2000
    9.2573   -0.7645    1.4923 O   0  0  0  0  0  0  0  0  0  0  0  0
    8.1540   -0.7165    0.6574 C   0  0  0  0  0  0  0  0  0  0  0  0
    8.6367    0.4437    0.8186 O   0  0  0  0  0  0  0  0  0  0  0  0
    6.9561   -0.6545   -0.2509 C   0  0  0  0  0  0  0  0  0  0  0  0
    6.7659    0.7680   -0.6395 C   0  0  0  0  0  0  0  0  0  0  0  0
    5.5922    0.9503   -1.5533 C   0  0  0  0  0  0  0  0  0  0  0  0
    4.3538    0.5466   -0.8800 C   0  0  0  0  0  0  0  0  0  0  0  0
    4.2846    0.1857    0.3213 O   0  0  0  0  0  0  0  0  0  0  0  0
    3.1225    0.5456   -1.5882 N   0  0  0  0  0  0  0  0  0  0  0  0
    1.8143    0.2031   -1.1661 C   0  0  0  0  0  0  0  0  0  0  0  0
    1.4238   -0.2251    0.0809 C   0  0  0  0  0  0  0  0  0  0  0  0
    0.1382   -0.5438    0.4345 C   0  0  0  0  0  0  0  0  0  0  0  0
   -0.8679   -0.4455   -0.4848 C   0  0  0  0  0  0  0  0  0  0  0  0
   -2.2694   -0.7681   -0.1848 C   0  0  0  0  0  0  0  0  0  0  0  0
   -2.9385    0.5003    0.3070 C   0  0  0  0  0  0  0  0  0  0  0  0
   -4.3069    0.2085    0.6057 N   0  0  0  0  0  4  0  0  0  0  0  0
   -4.5827   -1.0936    0.4164 O   0  0  0  0  0  1  0  0  0  0  0  0
   -5.1827    0.9987   -0.2525 C   0  0  0  0  0  0  0  0  0  0  0  0
   -6.5356    0.3020   -0.2231 C   0  0  0  0  0  0  0  0  0  0  0  0
   -6.8740   -0.0214    1.2070 C   0  0  0  0  0  0  0  0  0  0  0  0
   -6.0819    0.7763    2.2020 C   0  0  0  0  0  0  0  0  0  0  0  0
   -4.6016    0.5342    1.9801 C   0  0  0  0  0  0  0  0  0  0  0  0
   -0.5251   -0.0212   -1.7459 C   0  0  0  0  0  0  0  0  0  0  0  0
    0.7756    0.2902   -2.0655 C   0  0  0  0  0  0  0  0  0  0  0  0
    9.4040   -1.5691    2.1071 H   0  0  0  0  0  0  0  0  0  0  0  0
    6.1097   -1.1317    0.2388 H   0  0  0  0  0  0  0  0  0  0  0  0
    7.2035   -1.2377   -1.1866 H   0  0  0  0  0  0  0  0  0  0  0  0
    7.6641    1.1142   -1.2045 H   0  0  0  0  0  0  0  0  0  0  0  0
    6.6622    1.4003    0.2731 H   0  0  0  0  0  0  0  0  0  0  0  0
    5.7434    0.2473   -2.4195 H   0  0  0  0  0  0  0  0  0  0  0  0
    5.4855    1.9970   -1.9068 H   0  0  0  0  0  0  0  0  0  0  0  0
    3.2206    0.8516   -2.5843 H   0  0  0  0  0  0  0  0  0  0  0  0
    2.1527   -0.3267    0.8516 H   0  0  0  0  0  0  0  0  0  0  0  0
   -0.1070   -0.8757    1.4341 H   0  0  0  0  0  0  0  0  0  0  0  0
   -2.3514   -1.5833    0.5509 H   0  0  0  0  0  0  0  0  0  0  0  0
   -2.8169   -1.0536   -1.1191 H   0  0  0  0  0  0  0  0  0  0  0  0
   -2.3874    0.8067    1.2148 H   0  0  0  0  0  0  0  0  0  0  0  0
   -2.8138    1.2690   -0.5022 H   0  0  0  0  0  0  0  0  0  0  0  0
   -4.7611    1.0350   -1.2853 H   0  0  0  0  0  0  0  0  0  0  0  0
   -5.2165    2.0201    0.1490 H   0  0  0  0  0  0  0  0  0  0  0  0
   -7.3220    0.9274   -0.7043 H   0  0  0  0  0  0  0  0  0  0  0  0
   -6.4104   -0.6357   -0.8282 H   0  0  0  0  0  0  0  0  0  0  0  0
   -7.9613    0.1997    1.3368 H   0  0  0  0  0  0  0  0  0  0  0  0
   -6.7081   -1.1081    1.4586 H   0  0  0  0  0  0  0  0  0  0  0  0
   -6.3724    0.3668    3.2105 H   0  0  0  0  0  0  0  0  0  0  0  0
   -6.3031    1.8564    2.1726 H   0  0  0  0  0  0  0  0  0  0  0  0
   -4.2739   -0.3466    2.5847 H   0  0  0  0  0  0  0  0  0  0  0  0
   -3.9910    1.4181    2.2597 H   0  0  0  0  0  0  0  0  0  0  0  0
   -1.3043    0.0639   -2.4880 H   0  0  0  0  0  0  0  0  0  0  0  0
    0.9461    0.6204   -3.1024 H   0  0  0  0  0  0  0  0  0  0  0  0
  1  2  1  0
  2  3  2  0
  2  4  1  0
  4  5  1  0
  5  6  1  0
  6  7  1  0
  7  8  2  0
  7  9  1  0
  9 10  1  0
 10 11  2  0
 11 12  1  0
 12 13  2  0
 13 14  1  0
 14 15  1  0
 15 16  1  0
 16 17  1  0
 16 18  1  0
 18 19  1  0
 19 20  1  0
 20 21  1  0
 21 22  1  0
 13 23  1  0
 23 24  2  0
 24 10  1  0
 22 16  1  0
  1 25  1  0
  4 26  1  0
  4 27  1  0
  5 28  1  0
  5 29  1  0
  6 30  1  0
  6 31  1  0
  9 32  1  0
 11 33  1  0
 12 34  1  0
 14 35  1  0
 14 36  1  0
 15 37  1  0
 15 38  1  0
 18 39  1  0
 18 40  1  0
 19 41  1  0
 19 42  1  0
 20 43  1  0
 20 44  1  0
 21 45  1  0
 21 46  1  0
 22 47  1  0
 22 48  1  0
 23 49  1  0
 24 50  1  0
M  CHG  2  16   1  17  -1
M  END
$$$$
