@<TRIPOS>MOLECULE
*****
 50 51 0 0 0
SMALL
GASTEIGER

@<TRIPOS>ATOM
      1 O           9.2573   -0.7645    1.4923 O.3     1  UNL1       -0.4806
      2 C           8.1540   -0.7165    0.6574 C.2     1  UNL1        0.3047
      3 O           8.6367    0.4437    0.8186 O.2     1  UNL1       -0.2510
      4 C           6.9561   -0.6545   -0.2509 C.3     1  UNL1        0.0452
      5 C           6.7659    0.7680   -0.6395 C.3     1  UNL1       -0.0347
      6 C           5.5922    0.9503   -1.5533 C.3     1  UNL1        0.0248
      7 C           4.3538    0.5466   -0.8800 C.2     1  UNL1        0.2172
      8 O           4.2846    0.1857    0.3213 O.2     1  UNL1       -0.2755
      9 N           3.1225    0.5456   -1.5882 N.am    1  UNL1       -0.2855
     10 C           1.8143    0.2031   -1.1661 C.ar    1  UNL1        0.0334
     11 C           1.4238   -0.2251    0.0809 C.ar    1  UNL1       -0.0402
     12 C           0.1382   -0.5438    0.4345 C.ar    1  UNL1       -0.0566
     13 C          -0.8679   -0.4455   -0.4848 C.ar    1  UNL1       -0.0422
     14 C          -2.2694   -0.7681   -0.1848 C.3     1  UNL1        0.0126
     15 C          -2.9385    0.5003    0.3070 C.3     1  UNL1       -0.0286
     16 N          -4.3069    0.2085    0.6057 N.3     1  UNL1        0.2174
     17 O          -4.5827   -1.0936    0.4164 O.co2   1  UNL1       -0.7753
     18 C          -5.1827    0.9987   -0.2525 C.3     1  UNL1       -0.0327
     19 C          -6.5356    0.3020   -0.2231 C.3     1  UNL1       -0.0124
     20 C          -6.8740   -0.0214    1.2070 C.3     1  UNL1       -0.0435
     21 C          -6.0819    0.7763    2.2020 C.3     1  UNL1       -0.0124
     22 C          -4.6016    0.5342    1.9801 C.3     1  UNL1       -0.0327
     23 C          -0.5251   -0.0212   -1.7459 C.ar    1  UNL1       -0.0566
     24 C           0.7756    0.2902   -2.0655 C.ar    1  UNL1       -0.0402
     25 H           9.4040   -1.5691    2.1071 H       1  UNL1        0.2951
     26 H           6.1097   -1.1317    0.2388 H       1  UNL1        0.0378
     27 H           7.2035   -1.2377   -1.1866 H       1  UNL1        0.0378
     28 H           7.6641    1.1142   -1.2045 H       1  UNL1        0.0275
     29 H           6.6622    1.4003    0.2731 H       1  UNL1        0.0275
     30 H           5.7434    0.2473   -2.4195 H       1  UNL1        0.0358
     31 H           5.4855    1.9970   -1.9068 H       1  UNL1        0.0358
     32 H           3.2206    0.8516   -2.5843 H       1  UNL1        0.1548
     33 H           2.1527   -0.3267    0.8516 H       1  UNL1        0.0636
     34 H          -0.1070   -0.8757    1.4341 H       1  UNL1        0.0621
     35 H          -2.3514   -1.5833    0.5509 H       1  UNL1        0.0365
     36 H          -2.8169   -1.0536   -1.1191 H       1  UNL1        0.0365
     37 H          -2.3874    0.8067    1.2148 H       1  UNL1        0.0817
     38 H          -2.8138    1.2690   -0.5022 H       1  UNL1        0.0817
     39 H          -4.7611    1.0350   -1.2853 H       1  UNL1        0.0813
     40 H          -5.2165    2.0201    0.1490 H       1  UNL1        0.0813
     41 H          -7.3220    0.9274   -0.7043 H       1  UNL1        0.0317
     42 H          -6.4104   -0.6357   -0.8282 H       1  UNL1        0.0317
     43 H          -7.9613    0.1997    1.3368 H       1  UNL1        0.0269
     44 H          -6.7081   -1.1081    1.4586 H       1  UNL1        0.0269
     45 H          -6.3724    0.3668    3.2105 H       1  UNL1        0.0317
     46 H          -6.3031    1.8564    2.1726 H       1  UNL1        0.0317
     47 H          -4.2739   -0.3466    2.5847 H       1  UNL1        0.0813
     48 H          -3.9910    1.4181    2.2597 H       1  UNL1        0.0813
     49 H          -1.3043    0.0639   -2.4880 H       1  UNL1        0.0621
     50 H           0.9461    0.6204   -3.1024 H       1  UNL1        0.0636
@<TRIPOS>UNITY_ATOM_ATTR
16 1
charge 1
17 1
charge -1
@<TRIPOS>BOND
     1     1     2    1
     2     2     3    2
     3     2     4    1
     4     4     5    1
     5     5     6    1
     6     6     7    1
     7     7     8    2
     8     7     9   am
     9     9    10    1
    10    10    11   ar
    11    11    12   ar
    12    12    13   ar
    13    13    14    1
    14    14    15    1
    15    15    16    1
    16    16    17    1
    17    16    18    1
    18    18    19    1
    19    19    20    1
    20    20    21    1
    21    21    22    1
    22    13    23   ar
    23    23    24   ar
    24    24    10   ar
    25    22    16    1
    26     1    25    1
    27     4    26    1
    28     4    27    1
    29     5    28    1
    30     5    29    1
    31     6    30    1
    32     6    31    1
    33     9    32    1
    34    11    33    1
    35    12    34    1
    36    14    35    1
    37    14    36    1
    38    15    37    1
    39    15    38    1
    40    18    39    1
    41    18    40    1
    42    19    41    1
    43    19    42    1
    44    20    43    1
    45    20    44    1
    46    21    45    1
    47    21    46    1
    48    22    47    1
    49    22    48    1
    50    23    49    1
    51    24    50    1
