@<TRIPOS>MOLECULE
*****
 47 49 0 0 0
SMALL
GASTEIGER

@<TRIPOS>ATOM
      1 N          -3.5740   -2.0073   -2.4825 N.1     1  UNL1       -0.1962
      2 C          -4.0144   -1.2324   -1.7486 C.1     1  UNL1        0.0681
      3 C          -4.5558   -0.2456   -0.8354 C.3     1  UNL1        0.0727
      4 C          -6.0382   -0.3391   -0.6226 C.3     1  UNL1       -0.0118
      5 C          -6.4188   -0.4539    0.8432 C.3     1  UNL1        0.0490
      6 O          -5.8282    0.5062    1.6337 O.3     1  UNL1       -0.3776
      7 C          -4.5254    0.7994    1.3498 C.3     1  UNL1        0.0712
      8 C          -3.8874   -0.2846    0.5237 C.3     1  UNL1        0.0915
      9 N          -2.4589   -0.0264    0.3429 N.ar    1  UNL1       -0.2624
     10 C          -1.7017    0.8000    1.0485 C.ar    1  UNL1        0.0400
     11 C          -0.3882    0.7783    0.5185 C.ar    1  UNL1        0.0957
     12 C           0.6885    1.6457    0.9841 C.2     1  UNL1        0.2464
     13 N           0.5268    2.2879    2.2435 N.am    1  UNL1       -0.3252
     14 O           1.7342    1.8588    0.3557 O.2     1  UNL1       -0.2702
     15 C          -0.4381   -0.1036   -0.5178 C.ar    1  UNL1        0.1570
     16 N           0.5786   -0.5701   -1.3680 N.pl3   1  UNL1       -0.2974
     17 C           1.9534   -0.5244   -1.1372 C.ar    1  UNL1        0.0324
     18 C           2.4903   -1.0380    0.0244 C.ar    1  UNL1       -0.0402
     19 C           3.8438   -0.9538    0.2259 C.ar    1  UNL1       -0.0541
     20 C           4.7014   -0.3842   -0.6716 C.ar    1  UNL1       -0.0104
     21 C           6.1615   -0.2329   -0.4873 C.3     1  UNL1        0.1750
     22 O           6.9071   -0.7501   -1.5182 O.3     1  UNL1       -0.3785
     23 C           6.6648   -0.7587    0.8282 C.3     1  UNL1        0.4195
     24 F           6.4345   -2.0873    1.0344 F       1  UNL1       -0.1676
     25 F           8.0467   -0.5115    0.8335 F       1  UNL1       -0.1676
     26 F           6.1446    0.0252    1.8640 F       1  UNL1       -0.1676
     27 C           4.1813    0.1333   -1.8420 C.ar    1  UNL1       -0.0541
     28 C           2.8274    0.0585   -2.0597 C.ar    1  UNL1       -0.0402
     29 N          -1.7181   -0.5591   -0.5783 N.ar    1  UNL1       -0.1549
     30 H          -4.3598    0.7748   -1.2796 H       1  UNL1        0.0476
     31 H          -6.5748    0.5724   -0.9961 H       1  UNL1        0.0300
     32 H          -6.4439   -1.2568   -1.1228 H       1  UNL1        0.0300
     33 H          -7.5291   -0.2324    0.8792 H       1  UNL1        0.0560
     34 H          -6.3203   -1.4743    1.2298 H       1  UNL1        0.0560
     35 H          -3.9757    1.0215    2.2786 H       1  UNL1        0.0581
     36 H          -4.4653    1.7389    0.7218 H       1  UNL1        0.0581
     37 H          -4.0524   -1.2887    0.9503 H       1  UNL1        0.0580
     38 H          -1.9886    1.4030    1.8859 H       1  UNL1        0.0835
     39 H           0.6648    3.3135    2.2927 H       1  UNL1        0.1453
     40 H           0.2769    1.7746    3.1105 H       1  UNL1        0.1453
     41 H           0.3156   -1.0194   -2.3161 H       1  UNL1        0.1536
     42 H           1.8810   -1.5128    0.7966 H       1  UNL1        0.0636
     43 H           4.2669   -1.3574    1.1451 H       1  UNL1        0.0622
     44 H           6.3821    0.8924   -0.4435 H       1  UNL1        0.0734
     45 H           6.3953   -0.8136   -2.3438 H       1  UNL1        0.2106
     46 H           4.7841    0.5959   -2.5996 H       1  UNL1        0.0622
     47 H           2.4052    0.4629   -2.9739 H       1  UNL1        0.0636
@<TRIPOS>BOND
     1     1     2    3
     2     2     3    1
     3     3     4    1
     4     4     5    1
     5     5     6    1
     6     6     7    1
     7     7     8    1
     8     8     9    1
     9     9    10   ar
    10    10    11   ar
    11    11    12    1
    12    12    13   am
    13    12    14    2
    14    11    15   ar
    15    15    16    1
    16    16    17    1
    17    17    18   ar
    18    18    19   ar
    19    19    20   ar
    20    20    21    1
    21    21    22    1
    22    21    23    1
    23    23    24    1
    24    23    25    1
    25    23    26    1
    26    20    27   ar
    27    27    28   ar
    28    15    29   ar
    29     8     3    1
    30    29     9   ar
    31    28    17   ar
    32     3    30    1
    33     4    31    1
    34     4    32    1
    35     5    33    1
    36     5    34    1
    37     7    35    1
    38     7    36    1
    39     8    37    1
    40    10    38    1
    41    13    39    1
    42    13    40    1
    43    16    41    1
    44    18    42    1
    45    19    43    1
    46    21    44    1
    47    22    45    1
    48    27    46    1
    49    28    47    1
