
     RDKit          3D

 47 49  0  0  0  0  0  0  0  0999 V2000
   -3.5740   -2.0073   -2.4825 N   0  0  0  0  0  0  0  0  0  0  0  0
   -4.0144   -1.2324   -1.7486 C   0  0  0  0  0  0  0  0  0  0  0  0
   -4.5558   -0.2456   -0.8354 C   0  0  1  0  0  0  0  0  0  0  0  0
   -6.0382   -0.3391   -0.6226 C   0  0  0  0  0  0  0  0  0  0  0  0
   -6.4188   -0.4539    0.8432 C   0  0  0  0  0  0  0  0  0  0  0  0
   -5.8282    0.5062    1.6337 O   0  0  0  0  0  0  0  0  0  0  0  0
   -4.5254    0.7994    1.3498 C   0  0  0  0  0  0  0  0  0  0  0  0
   -3.8874   -0.2846    0.5237 C   0  0  2  0  0  0  0  0  0  0  0  0
   -2.4589   -0.0264    0.3429 N   0  0  0  0  0  0  0  0  0  0  0  0
   -1.7017    0.8000    1.0485 C   0  0  0  0  0  0  0  0  0  0  0  0
   -0.3882    0.7783    0.5185 C   0  0  0  0  0  0  0  0  0  0  0  0
    0.6885    1.6457    0.9841 C   0  0  0  0  0  0  0  0  0  0  0  0
    0.5268    2.2879    2.2435 N   0  0  0  0  0  0  0  0  0  0  0  0
    1.7342    1.8588    0.3557 O   0  0  0  0  0  0  0  0  0  0  0  0
   -0.4381   -0.1036   -0.5178 C   0  0  0  0  0  0  0  0  0  0  0  0
    0.5786   -0.5701   -1.3680 N   0  0  0  0  0  0  0  0  0  0  0  0
    1.9534   -0.5244   -1.1372 C   0  0  0  0  0  0  0  0  0  0  0  0
    2.4903   -1.0380    0.0244 C   0  0  0  0  0  0  0  0  0  0  0  0
    3.8438   -0.9538    0.2259 C   0  0  0  0  0  0  0  0  0  0  0  0
    4.7014   -0.3842   -0.6716 C   0  0  0  0  0  0  0  0  0  0  0  0
    6.1615   -0.2329   -0.4873 C   0  0  2  0  0  0  0  0  0  0  0  0
    6.9071   -0.7501   -1.5182 O   0  0  0  0  0  0  0  0  0  0  0  0
    6.6648   -0.7587    0.8282 C   0  0  0  0  0  0  0  0  0  0  0  0
    6.4345   -2.0873    1.0344 F   0  0  0  0  0  0  0  0  0  0  0  0
    8.0467   -0.5115    0.8335 F   0  0  0  0  0  0  0  0  0  0  0  0
    6.1446    0.0252    1.8640 F   0  0  0  0  0  0  0  0  0  0  0  0
    4.1813    0.1333   -1.8420 C   0  0  0  0  0  0  0  0  0  0  0  0
    2.8274    0.0585   -2.0597 C   0  0  0  0  0  0  0  0  0  0  0  0
   -1.7181   -0.5591   -0.5783 N   0  0  0  0  0  0  0  0  0  0  0  0
   -4.3598    0.7748   -1.2796 H   0  0  0  0  0  0  0  0  0  0  0  0
   -6.5748    0.5724   -0.9961 H   0  0  0  0  0  0  0  0  0  0  0  0
   -6.4439   -1.2568   -1.1228 H   0  0  0  0  0  0  0  0  0  0  0  0
   -7.5291   -0.2324    0.8792 H   0  0  0  0  0  0  0  0  0  0  0  0
   -6.3203   -1.4743    1.2298 H   0  0  0  0  0  0  0  0  0  0  0  0
   -3.9757    1.0215    2.2786 H   0  0  0  0  0  0  0  0  0  0  0  0
   -4.4653    1.7389    0.7218 H   0  0  0  0  0  0  0  0  0  0  0  0
   -4.0524   -1.2887    0.9503 H   0  0  0  0  0  0  0  0  0  0  0  0
   -1.9886    1.4030    1.8859 H   0  0  0  0  0  0  0  0  0  0  0  0
    0.6648    3.3135    2.2927 H   0  0  0  0  0  0  0  0  0  0  0  0
    0.2769    1.7746    3.1105 H   0  0  0  0  0  0  0  0  0  0  0  0
    0.3156   -1.0194   -2.3161 H   0  0  0  0  0  0  0  0  0  0  0  0
    1.8810   -1.5128    0.7966 H   0  0  0  0  0  0  0  0  0  0  0  0
    4.2669   -1.3574    1.1451 H   0  0  0  0  0  0  0  0  0  0  0  0
    6.3821    0.8924   -0.4435 H   0  0  0  0  0  0  0  0  0  0  0  0
    6.3953   -0.8136   -2.3438 H   0  0  0  0  0  0  0  0  0  0  0  0
    4.7841    0.5959   -2.5996 H   0  0  0  0  0  0  0  0  0  0  0  0
    2.4052    0.4629   -2.9739 H   0  0  0  0  0  0  0  0  0  0  0  0
  1  2  3  0
  2  3  1  0
  3  4  1  0
  4  5  1  0
  5  6  1  0
  6  7  1  0
  7  8  1  0
  8  9  1  0
  9 10  1  0
 10 11  2  0
 11 12  1  0
 12 13  1  0
 12 14  2  0
 11 15  1  0
 15 16  1  0
 16 17  1  0
 17 18  2  0
 18 19  1  0
 19 20  2  0
 20 21  1  0
 21 22  1  0
 21 23  1  0
 23 24  1  0
 23 25  1  0
 23 26  1  0
 20 27  1  0
 27 28  2  0
 15 29  2  0
  8  3  1  0
 29  9  1  0
 28 17  1  0
  3 30  1  6
  4 31  1  0
  4 32  1  0
  5 33  1  0
  5 34  1  0
  7 35  1  0
  7 36  1  0
  8 37  1  1
 10 38  1  0
 13 39  1  0
 13 40  1  0
 16 41  1  0
 18 42  1  0
 19 43  1  0
 21 44  1  1
 22 45  1  0
 27 46  1  0
 28 47  1  0
M  END
$$$$
