
     RDKit          3D

 39 42  0  0  0  0  0  0  0  0999 V2000
    2.4531    1.9368    3.7785 C   0  0  0  0  0  3  0  0  0  0  0  0
    2.6351    1.9124    2.6342 N   0  0  0  0  0  4  0  0  0  0  0  0
    2.8454    1.8646    1.2719 C   0  0  0  0  0  0  0  0  0  0  0  0
    3.9858    2.2820    0.6167 C   0  0  0  0  0  0  0  0  0  0  0  0
    3.7840    2.0754   -0.7005 N   0  0  0  0  0  0  0  0  0  0  0  0
    2.5666    1.5502   -0.8604 C   0  0  0  0  0  0  0  0  0  0  0  0
    1.8568    1.1554   -1.9730 C   0  0  0  0  0  0  0  0  0  0  0  0
    0.5880    0.6355   -1.9019 C   0  0  0  0  0  0  0  0  0  0  0  0
   -0.0106    0.4972   -0.6771 C   0  0  0  0  0  0  0  0  0  0  0  0
   -1.3584   -0.0375   -0.5255 C   0  0  0  0  0  0  0  0  0  0  0  0
   -1.6606   -1.3056   -0.0809 C   0  0  0  0  0  0  0  0  0  0  0  0
   -0.7226   -2.3431    0.3064 C   0  0  0  0  0  0  0  0  0  0  0  0
   -0.2795   -2.4543    1.5991 C   0  0  0  0  0  0  0  0  0  0  0  0
    0.6208   -3.4424    1.9731 C   0  0  0  0  0  0  0  0  0  0  0  0
    1.0749   -4.3233    1.0315 C   0  0  0  0  0  0  0  0  0  0  0  0
    1.9525   -5.3000    1.3484 F   0  0  0  0  0  0  0  0  0  0  0  0
    0.6484   -4.2353   -0.2683 C   0  0  0  0  0  0  0  0  0  0  0  0
   -0.2506   -3.2422   -0.6231 C   0  0  0  0  0  0  0  0  0  0  0  0
   -0.6451   -3.1997   -1.9325 F   0  0  0  0  0  0  0  0  0  0  0  0
   -3.0151   -1.3645   -0.0901 N   0  0  0  0  0  0  0  0  0  0  0  0
   -3.5144   -0.1719   -0.5260 C   0  0  0  0  0  0  0  0  0  0  0  0
   -2.4838    0.6502   -0.7957 N   0  0  0  0  0  0  0  0  0  0  0  0
   -2.5183    2.0019   -1.2778 C   0  0  0  0  0  0  0  0  0  0  0  0
   -2.5566    3.0150   -0.1254 C   0  0  0  0  0  0  0  0  0  0  0  0
   -2.5854    4.2665   -0.7451 F   0  0  0  0  0  0  0  0  0  0  0  0
   -3.7228    2.7958    0.5579 F   0  0  0  0  0  0  0  0  0  0  0  0
    0.7320    0.9055    0.4386 C   0  0  0  0  0  0  0  0  0  0  0  0
    1.9751    1.4128    0.3366 N   0  0  0  0  0  0  0  0  0  0  0  0
    4.8733    2.6972    1.0605 H   0  0  0  0  0  0  0  0  0  0  0  0
    2.3367    1.2671   -2.9299 H   0  0  0  0  0  0  0  0  0  0  0  0
    0.0937    0.3503   -2.8023 H   0  0  0  0  0  0  0  0  0  0  0  0
   -0.6085   -1.7791    2.3947 H   0  0  0  0  0  0  0  0  0  0  0  0
    0.9534   -3.4984    3.0149 H   0  0  0  0  0  0  0  0  0  0  0  0
    0.9939   -4.9174   -1.0192 H   0  0  0  0  0  0  0  0  0  0  0  0
   -4.5713    0.0828   -0.6412 H   0  0  0  0  0  0  0  0  0  0  0  0
   -1.6686    2.2755   -1.9113 H   0  0  0  0  0  0  0  0  0  0  0  0
   -3.4513    2.2327   -1.8719 H   0  0  0  0  0  0  0  0  0  0  0  0
   -1.6570    2.9344    0.4987 H   0  0  0  0  0  0  0  0  0  0  0  0
    0.3110    0.8171    1.4174 H   0  0  0  0  0  0  0  0  0  0  0  0
  1  2  3  0
  2  3  1  0
  3  4  2  0
  4  5  1  0
  5  6  2  0
  6  7  1  0
  7  8  2  0
  8  9  1  0
  9 10  1  0
 10 11  2  0
 11 12  1  0
 12 13  2  0
 13 14  1  0
 14 15  2  0
 15 16  1  0
 15 17  1  0
 17 18  2  0
 18 19  1  0
 11 20  1  0
 20 21  2  0
 21 22  1  0
 22 23  1  0
 23 24  1  0
 24 25  1  0
 24 26  1  0
  9 27  2  0
 27 28  1  0
 28  3  1  0
 28  6  1  0
 22 10  1  0
 18 12  1  0
  4 29  1  0
  7 30  1  0
  8 31  1  0
 13 32  1  0
 14 33  1  0
 17 34  1  0
 21 35  1  0
 23 36  1  0
 23 37  1  0
 24 38  1  0
 27 39  1  0
M  CHG  2   1  -1   2   1
M  END
$$$$
