@<TRIPOS>MOLECULE
*****
 39 42 0 0 0
SMALL
GASTEIGER

@<TRIPOS>ATOM
      1 C           2.4531    1.9368    3.7785 C.2     1  UNL1       -0.2255
      2 N           2.6351    1.9124    2.6342 N.1     1  UNL1       -0.2446
      3 C           2.8454    1.8646    1.2719 C.ar    1  UNL1        0.3915
      4 C           3.9858    2.2820    0.6167 C.ar    1  UNL1        0.1355
      5 N           3.7840    2.0754   -0.7005 N.ar    1  UNL1       -0.2280
      6 C           2.5666    1.5502   -0.8604 C.ar    1  UNL1        0.1433
      7 C           1.8568    1.1554   -1.9730 C.ar    1  UNL1       -0.0180
      8 C           0.5880    0.6355   -1.9019 C.ar    1  UNL1       -0.0477
      9 C          -0.0106    0.4972   -0.6771 C.ar    1  UNL1        0.0175
     10 C          -1.3584   -0.0375   -0.5255 C.ar    1  UNL1        0.0781
     11 C          -1.6606   -1.3056   -0.0809 C.ar    1  UNL1        0.0995
     12 C          -0.7226   -2.3431    0.3064 C.ar    1  UNL1        0.0378
     13 C          -0.2795   -2.4543    1.5991 C.ar    1  UNL1       -0.0470
     14 C           0.6208   -3.4424    1.9731 C.ar    1  UNL1       -0.0257
     15 C           1.0749   -4.3233    1.0315 C.ar    1  UNL1        0.1262
     16 F           1.9525   -5.3000    1.3484 F       1  UNL1       -0.2054
     17 C           0.6484   -4.2353   -0.2683 C.ar    1  UNL1        0.0095
     18 C          -0.2506   -3.2422   -0.6231 C.ar    1  UNL1        0.1353
     19 F          -0.6451   -3.1997   -1.9325 F       1  UNL1       -0.2047
     20 N          -3.0151   -1.3645   -0.0901 N.ar    1  UNL1       -0.2350
     21 C          -3.5144   -0.1719   -0.5260 C.ar    1  UNL1        0.0972
     22 N          -2.4838    0.6502   -0.7957 N.ar    1  UNL1       -0.3241
     23 C          -2.5183    2.0019   -1.2778 C.3     1  UNL1        0.0852
     24 C          -2.5566    3.0150   -0.1254 C.3     1  UNL1        0.2569
     25 F          -2.5854    4.2665   -0.7451 F       1  UNL1       -0.2073
     26 F          -3.7228    2.7958    0.5579 F       1  UNL1       -0.2073
     27 C           0.7320    0.9055    0.4386 C.ar    1  UNL1        0.0272
     28 N           1.9751    1.4128    0.3366 N.ar    1  UNL1       -0.2339
     29 H           4.8733    2.6972    1.0605 H       1  UNL1        0.0927
     30 H           2.3367    1.2671   -2.9299 H       1  UNL1        0.0654
     31 H           0.0937    0.3503   -2.8023 H       1  UNL1        0.0626
     32 H          -0.6085   -1.7791    2.3947 H       1  UNL1        0.0626
     33 H           0.9534   -3.4984    3.0149 H       1  UNL1        0.0646
     34 H           0.9939   -4.9174   -1.0192 H       1  UNL1        0.0675
     35 H          -4.5713    0.0828   -0.6412 H       1  UNL1        0.1029
     36 H          -1.6686    2.2755   -1.9113 H       1  UNL1        0.0548
     37 H          -3.4513    2.2327   -1.8719 H       1  UNL1        0.0548
     38 H          -1.6570    2.9344    0.4987 H       1  UNL1        0.1037
     39 H           0.3110    0.8171    1.4174 H       1  UNL1        0.0822
@<TRIPOS>UNITY_ATOM_ATTR
1 1
charge -1
2 1
charge 1
@<TRIPOS>BOND
     1     1     2    3
     2     2     3    1
     3     3     4   ar
     4     4     5   ar
     5     5     6   ar
     6     6     7   ar
     7     7     8   ar
     8     8     9   ar
     9     9    10    1
    10    10    11   ar
    11    11    12    1
    12    12    13   ar
    13    13    14   ar
    14    14    15   ar
    15    15    16    1
    16    15    17   ar
    17    17    18   ar
    18    18    19    1
    19    11    20   ar
    20    20    21   ar
    21    21    22   ar
    22    22    23    1
    23    23    24    1
    24    24    25    1
    25    24    26    1
    26     9    27   ar
    27    27    28   ar
    28    28     3   ar
    29    28     6   ar
    30    22    10   ar
    31    18    12   ar
    32     4    29    1
    33     7    30    1
    34     8    31    1
    35    13    32    1
    36    14    33    1
    37    17    34    1
    38    21    35    1
    39    23    36    1
    40    23    37    1
    41    24    38    1
    42    27    39    1
