
     RDKit          3D

 56 60  0  0  0  0  0  0  0  0999 V2000
   -0.8786    0.6690    0.1193 O   0  0  0  0  0  0  0  0  0  0  0  0
   -1.7690   -0.1909    0.3120 C   0  0  0  0  0  0  0  0  0  0  0  0
   -3.1552    0.3501    0.3633 C   0  0  0  0  0  0  0  0  0  0  0  0
   -4.2005   -0.3909    0.5530 C   0  0  0  0  0  0  0  0  0  0  0  0
   -5.5962   -0.0689    0.6297 C   0  0  0  0  0  0  0  0  0  0  0  0
   -6.5727   -0.9449    1.0681 C   0  0  0  0  0  0  0  0  0  0  0  0
   -6.3645   -2.2996    1.5665 C   0  0  0  0  0  0  0  0  0  0  0  0
   -5.2754   -2.8809    1.6740 O   0  0  0  0  0  0  0  0  0  0  0  0
   -7.4987   -3.0445    1.9737 O   0  0  0  0  0  0  0  0  0  0  0  0
   -7.7525   -0.3183    0.9594 N   0  0  0  0  0  0  0  0  0  0  0  0
   -7.5906    0.9145    0.4742 C   0  0  0  0  0  0  0  0  0  0  0  0
   -8.5191    1.9250    0.1807 C   0  0  0  0  0  0  0  0  0  0  0  0
   -8.0743    3.1208   -0.3355 C   0  0  0  0  0  0  0  0  0  0  0  0
   -6.7429    3.3568   -0.5739 C   0  0  0  0  0  0  0  0  0  0  0  0
   -6.1446    4.8634   -1.2295 Cl  0  0  0  0  0  0  0  0  0  0  0  0
   -5.8446    2.3251   -0.2684 C   0  0  0  0  0  0  0  0  0  0  0  0
   -6.2512    1.1090    0.2535 C   0  0  0  0  0  0  0  0  0  0  0  0
   -1.4158   -1.5311    0.4581 N   0  0  0  0  0  0  0  0  0  0  0  0
   -0.1046   -2.0889    0.4156 C   0  0  0  0  0  0  0  0  0  0  0  0
   -0.0117   -3.4754    0.5910 C   0  0  0  0  0  0  0  0  0  0  0  0
    1.2129   -4.0703    0.5610 C   0  0  0  0  0  0  0  0  0  0  0  0
    2.3507   -3.3308    0.3621 C   0  0  0  0  0  0  0  0  0  0  0  0
    2.2933   -1.9637    0.1862 C   0  0  0  0  0  0  0  0  0  0  0  0
    3.5317   -1.2278   -0.0212 C   0  0  0  0  0  0  0  0  0  0  0  0
    3.6335    0.0667   -0.2017 C   0  0  0  0  0  0  0  0  0  0  0  0
    4.9237    0.7382   -0.4051 C   0  0  0  0  0  0  0  0  0  0  0  0
    4.9796    2.1018   -0.5906 C   0  0  0  0  0  0  0  0  0  0  0  0
    6.1985    2.7546   -0.7853 C   0  0  0  0  0  0  0  0  0  0  0  0
    7.3495    1.9966   -0.7873 C   0  0  0  0  0  0  0  0  0  0  0  0
    8.5938    2.5769   -0.9747 C   0  0  0  0  0  0  0  0  0  0  0  0
    9.7395    1.8174   -0.9759 C   0  0  0  0  0  0  0  0  0  0  0  0
    9.6842    0.4526   -0.7904 C   0  0  0  0  0  0  0  0  0  0  0  0
   11.1475   -0.5412   -0.7888 Cl  0  0  0  0  0  0  0  0  0  0  0  0
    8.4446   -0.1219   -0.6042 C   0  0  0  0  0  0  0  0  0  0  0  0
    7.2883    0.6404   -0.6023 C   0  0  0  0  0  0  0  0  0  0  0  0
    6.0812    0.0558   -0.4177 N   0  0  0  0  0  0  0  0  0  0  0  0
    1.0395   -1.3776    0.2199 C   0  0  0  0  0  0  0  0  0  0  0  0
   -3.3039    1.4073    0.2705 H   0  0  0  0  0  0  0  0  0  0  0  0
   -3.9516   -1.4740    0.6534 H   0  0  0  0  0  0  0  0  0  0  0  0
   -7.3764   -3.7579    2.7071 H   0  0  0  0  0  0  0  0  0  0  0  0
   -8.6812   -0.7530    1.2257 H   0  0  0  0  0  0  0  0  0  0  0  0
   -9.5660    1.7242    0.3737 H   0  0  0  0  0  0  0  0  0  0  0  0
   -8.7859    3.8969   -0.5607 H   0  0  0  0  0  0  0  0  0  0  0  0
   -4.8044    2.4753   -0.4644 H   0  0  0  0  0  0  0  0  0  0  0  0
   -2.2082   -2.2063    0.6183 H   0  0  0  0  0  0  0  0  0  0  0  0
   -0.9185   -4.0806    0.7516 H   0  0  0  0  0  0  0  0  0  0  0  0
    1.2925   -5.1355    0.6950 H   0  0  0  0  0  0  0  0  0  0  0  0
    3.3287   -3.8297    0.3414 H   0  0  0  0  0  0  0  0  0  0  0  0
    4.4649   -1.7806   -0.0309 H   0  0  0  0  0  0  0  0  0  0  0  0
    2.7360    0.6592   -0.2004 H   0  0  0  0  0  0  0  0  0  0  0  0
    4.0745    2.6912   -0.5882 H   0  0  0  0  0  0  0  0  0  0  0  0
    6.2435    3.8289   -0.9315 H   0  0  0  0  0  0  0  0  0  0  0  0
    8.6538    3.6377   -1.1204 H   0  0  0  0  0  0  0  0  0  0  0  0
   10.7257    2.2422   -1.1198 H   0  0  0  0  0  0  0  0  0  0  0  0
    8.3239   -1.1855   -0.4526 H   0  0  0  0  0  0  0  0  0  0  0  0
    1.0234   -0.3267    0.0821 H   0  0  0  0  0  0  0  0  0  0  0  0
  1  2  2  0
  2  3  1  0
  3  4  2  0
  4  5  1  0
  5  6  2  0
  6  7  1  0
  7  8  2  0
  7  9  1  0
  6 10  1  0
 10 11  1  0
 11 12  2  0
 12 13  1  0
 13 14  2  0
 14 15  1  0
 14 16  1  0
 16 17  2  0
  2 18  1  0
 18 19  1  0
 19 20  2  0
 20 21  1  0
 21 22  2  0
 22 23  1  0
 23 24  1  0
 24 25  2  0
 25 26  1  0
 26 27  2  0
 27 28  1  0
 28 29  2  0
 29 30  1  0
 30 31  2  0
 31 32  1  0
 32 33  1  0
 32 34  2  0
 34 35  1  0
 35 36  2  0
 23 37  2  0
 17  5  1  0
 37 19  1  0
 17 11  1  0
 36 26  1  0
 35 29  1  0
  3 38  1  0
  4 39  1  0
  9 40  1  0
 10 41  1  0
 12 42  1  0
 13 43  1  0
 16 44  1  0
 18 45  1  0
 20 46  1  0
 21 47  1  0
 22 48  1  0
 24 49  1  0
 25 50  1  0
 27 51  1  0
 28 52  1  0
 30 53  1  0
 31 54  1  0
 34 55  1  0
 37 56  1  0
M  END
$$$$
