@<TRIPOS>MOLECULE
*****
 56 60 0 0 0
SMALL
GASTEIGER

@<TRIPOS>ATOM
      1 O          -0.8786    0.6690    0.1193 O.2     1  UNL1       -0.2705
      2 C          -1.7690   -0.1909    0.3120 C.2     1  UNL1        0.2411
      3 C          -3.1552    0.3501    0.3633 C.2     1  UNL1        0.0011
      4 C          -4.2005   -0.3909    0.5530 C.2     1  UNL1       -0.0469
      5 C          -5.5962   -0.0689    0.6297 C.ar    1  UNL1        0.0146
      6 CA         -6.5727   -0.9449    1.0681 C.ar    1  UNL1        0.1325
      7 C          -6.3645   -2.2996    1.5665 C.2     1  UNL1        0.3539
      8 O          -5.2754   -2.8809    1.6740 O.2     1  UNL1       -0.2435
      9 OXT        -7.4987   -3.0445    1.9737 O.3     1  UNL1       -0.4761
     10 N          -7.7525   -0.3183    0.9594 N.ar    1  UNL1       -0.3486
     11 C          -7.5906    0.9145    0.4742 C.ar    1  UNL1        0.0477
     12 C          -8.5191    1.9250    0.1807 C.ar    1  UNL1       -0.0364
     13 C          -8.0743    3.1208   -0.3355 C.ar    1  UNL1       -0.0414
     14 C          -6.7429    3.3568   -0.5739 C.ar    1  UNL1        0.0417
     15 CL         -6.1446    4.8634   -1.2295 Cl      1  UNL1       -0.0835
     16 C          -5.8446    2.3251   -0.2684 C.ar    1  UNL1       -0.0336
     17 C          -6.2512    1.1090    0.2535 C.ar    1  UNL1        0.0090
     18 N          -1.4158   -1.5311    0.4581 N.am    1  UNL1       -0.2820
     19 C          -0.1046   -2.0889    0.4156 C.ar    1  UNL1        0.0342
     20 C          -0.0117   -3.4754    0.5910 C.ar    1  UNL1       -0.0404
     21 C           1.2129   -4.0703    0.5610 C.ar    1  UNL1       -0.0595
     22 C           2.3507   -3.3308    0.3621 C.ar    1  UNL1       -0.0545
     23 C           2.2933   -1.9637    0.1862 C.ar    1  UNL1       -0.0232
     24 C           3.5317   -1.2278   -0.0212 C.2     1  UNL1       -0.0525
     25 C           3.6335    0.0667   -0.2017 C.2     1  UNL1       -0.0357
     26 C           4.9237    0.7382   -0.4051 C.ar    1  UNL1        0.0646
     27 C           4.9796    2.1018   -0.5906 C.ar    1  UNL1       -0.0357
     28 C           6.1985    2.7546   -0.7853 C.ar    1  UNL1       -0.0506
     29 C           7.3495    1.9966   -0.7873 C.ar    1  UNL1        0.0005
     30 C           8.5938    2.5769   -0.9747 C.ar    1  UNL1       -0.0512
     31 C           9.7395    1.8174   -0.9759 C.ar    1  UNL1       -0.0427
     32 C           9.6842    0.4526   -0.7904 C.ar    1  UNL1        0.0430
     33 CL         11.1475   -0.5412   -0.7888 Cl      1  UNL1       -0.0835
     34 C           8.4446   -0.1219   -0.6042 C.ar    1  UNL1       -0.0174
     35 C           7.2883    0.6404   -0.6023 C.ar    1  UNL1        0.0730
     36 N           6.0812    0.0558   -0.4177 N.ar    1  UNL1       -0.2472
     37 C           1.0395   -1.3776    0.2199 C.ar    1  UNL1       -0.0333
     38 H          -3.3039    1.4073    0.2705 H       1  UNL1        0.0670
     39 H          -3.9516   -1.4740    0.6534 H       1  UNL1        0.0626
     40 HXT        -7.3764   -3.7579    2.7071 H       1  UNL1        0.2955
     41 H          -8.6812   -0.7530    1.2257 H       1  UNL1        0.1661
     42 H          -9.5660    1.7242    0.3737 H       1  UNL1        0.0639
     43 H          -8.7859    3.8969   -0.5607 H       1  UNL1        0.0633
     44 H          -4.8044    2.4753   -0.4644 H       1  UNL1        0.0639
     45 H          -2.2082   -2.2063    0.6183 H       1  UNL1        0.1551
     46 H          -0.9185   -4.0806    0.7516 H       1  UNL1        0.0636
     47 H           1.2925   -5.1355    0.6950 H       1  UNL1        0.0618
     48 H           3.3287   -3.8297    0.3414 H       1  UNL1        0.0623
     49 H           4.4649   -1.7806   -0.0309 H       1  UNL1        0.0624
     50 H           2.7360    0.6592   -0.2004 H       1  UNL1        0.0639
     51 H           4.0745    2.6912   -0.5882 H       1  UNL1        0.0639
     52 H           6.2435    3.8289   -0.9315 H       1  UNL1        0.0625
     53 H           8.6538    3.6377   -1.1204 H       1  UNL1        0.0625
     54 H          10.7257    2.2422   -1.1198 H       1  UNL1        0.0632
     55 H           8.3239   -1.1855   -0.4526 H       1  UNL1        0.0653
     56 H           1.0234   -0.3267    0.0821 H       1  UNL1        0.0642
@<TRIPOS>BOND
     1     1     2    2
     2     2     3    1
     3     3     4    2
     4     4     5    1
     5     5     6   ar
     6     6     7    1
     7     7     8    2
     8     7     9    1
     9     6    10   ar
    10    10    11   ar
    11    11    12   ar
    12    12    13   ar
    13    13    14   ar
    14    14    15    1
    15    14    16   ar
    16    16    17   ar
    17     2    18   am
    18    18    19    1
    19    19    20   ar
    20    20    21   ar
    21    21    22   ar
    22    22    23   ar
    23    23    24    1
    24    24    25    2
    25    25    26    1
    26    26    27   ar
    27    27    28   ar
    28    28    29   ar
    29    29    30   ar
    30    30    31   ar
    31    31    32   ar
    32    32    33    1
    33    32    34   ar
    34    34    35   ar
    35    35    36   ar
    36    23    37   ar
    37    17     5   ar
    38    37    19   ar
    39    17    11   ar
    40    36    26   ar
    41    35    29   ar
    42     3    38    1
    43     4    39    1
    44     9    40    1
    45    10    41    1
    46    12    42    1
    47    13    43    1
    48    16    44    1
    49    18    45    1
    50    20    46    1
    51    21    47    1
    52    22    48    1
    53    24    49    1
    54    25    50    1
    55    27    51    1
    56    28    52    1
    57    30    53    1
    58    31    54    1
    59    34    55    1
    60    37    56    1
