@<TRIPOS>MOLECULE
*****
 56 60 0 0 0
SMALL
GASTEIGER

@<TRIPOS>ATOM
      1 C          -4.6138   -0.2180    2.3130 C.3     1  UNL1       -0.0361
      2 C          -3.8000   -0.5203    1.1068 C.ar    1  UNL1       -0.0041
      3 C          -2.4666   -0.2189    1.0062 C.ar    1  UNL1       -0.0324
      4 C          -1.7975   -0.5347   -0.1442 C.ar    1  UNL1        0.0545
      5 N          -0.4130   -0.2710   -0.3750 N.am    1  UNL1       -0.2530
      6 C           0.5687   -1.2139   -0.0014 C.2     1  UNL1        0.2542
      7 O           0.4137   -2.3431    0.5678 O.2     1  UNL1       -0.2695
      8 C           1.8643   -0.6781   -0.3834 C.ar    1  UNL1        0.0722
      9 C           3.2284   -0.9532   -0.3790 C.ar    1  UNL1        0.0668
     10 C           3.8516   -2.1522    0.1507 C.2     1  UNL1        0.2483
     11 O           4.0233   -3.1337   -0.5876 O.2     1  UNL1       -0.2699
     12 N           4.2774   -2.2409    1.5042 N.am    1  UNL1       -0.3036
     13 C           4.8917   -3.4156    2.0358 C.3     1  UNL1        0.0031
     14 C           4.0740   -1.0892    2.3633 C.3     1  UNL1        0.0031
     15 C           3.7987    0.1448   -0.9736 C.ar    1  UNL1        0.0175
     16 N           2.8846    1.0527   -1.3321 N.ar    1  UNL1       -0.3503
     17 C           3.0865    2.3323   -1.9807 C.3     1  UNL1        0.0117
     18 C           1.6672    0.5405   -0.9632 C.ar    1  UNL1        0.0569
     19 C           0.2363    0.8469   -0.9704 C.3     1  UNL1        0.0973
     20 C          -0.0848    2.1491   -0.3584 C.ar    1  UNL1       -0.0208
     21 C          -0.0742    2.2833    1.0117 C.ar    1  UNL1       -0.0550
     22 C          -0.3709    3.4969    1.5916 C.ar    1  UNL1       -0.0431
     23 C          -0.6865    4.6098    0.8188 C.ar    1  UNL1        0.0410
     24 CL         -1.0607    6.1438    1.5772 Cl      1  UNL1       -0.0835
     25 C          -0.6845    4.4279   -0.5452 C.ar    1  UNL1       -0.0431
     26 C          -0.3904    3.2216   -1.1454 C.ar    1  UNL1       -0.0550
     27 C          -2.5004   -1.1569   -1.1820 C.ar    1  UNL1        0.0344
     28 N          -3.8030   -1.4561   -1.0947 N.ar    1  UNL1       -0.2846
     29 C          -4.6893   -2.0373   -1.9243 C.ar    1  UNL1        0.1347
     30 C          -4.3285   -2.5209   -3.2823 C.3     1  UNL1       -0.0041
     31 N          -5.8972   -2.0849   -1.3025 N.ar    1  UNL1       -0.1340
     32 N          -5.7316   -1.5358   -0.1104 N.ar    1  UNL1       -0.1292
     33 C          -4.4389   -1.1373    0.0422 C.ar    1  UNL1        0.1641
     34 H          -5.4191    0.4823    1.9920 H       1  UNL1        0.0279
     35 H          -5.0667   -1.1745    2.6451 H       1  UNL1        0.0279
     36 H          -4.0049    0.2555    3.1001 H       1  UNL1        0.0279
     37 H          -1.9481    0.2553    1.8150 H       1  UNL1        0.0640
     38 H           6.0090   -3.3998    1.9828 H       1  UNL1        0.0428
     39 H           4.5471   -3.6726    3.0636 H       1  UNL1        0.0428
     40 H           4.5765   -4.2812    1.3984 H       1  UNL1        0.0428
     41 H           4.9412   -0.3868    2.2820 H       1  UNL1        0.0428
     42 H           3.1323   -0.5520    2.1367 H       1  UNL1        0.0428
     43 H           4.0341   -1.4224    3.4288 H       1  UNL1        0.0428
     44 H           4.8818    0.2500   -1.1294 H       1  UNL1        0.0817
     45 H           2.8410    2.2757   -3.0813 H       1  UNL1        0.0456
     46 H           4.1719    2.5707   -1.9476 H       1  UNL1        0.0456
     47 H           2.5641    3.1592   -1.4788 H       1  UNL1        0.0456
     48 H          -0.1722    0.8939   -2.0317 H       1  UNL1        0.0619
     49 H           0.1620    1.4631    1.6890 H       1  UNL1        0.0621
     50 H          -0.3757    3.6534    2.6743 H       1  UNL1        0.0632
     51 H          -0.9354    5.3163   -1.1317 H       1  UNL1        0.0632
     52 H          -0.4152    3.1768   -2.2421 H       1  UNL1        0.0621
     53 H          -1.9576   -1.4044   -2.0944 H       1  UNL1        0.0833
     54 H          -5.0723   -3.1835   -3.7273 H       1  UNL1        0.0308
     55 H          -4.2055   -1.6006   -3.9133 H       1  UNL1        0.0308
     56 H          -3.3228   -3.0122   -3.2177 H       1  UNL1        0.0308
@<TRIPOS>BOND
     1     1     2    1
     2     2     3   ar
     3     3     4   ar
     4     4     5    1
     5     5     6   am
     6     6     7    2
     7     6     8    1
     8     8     9   ar
     9     9    10    1
    10    10    11    2
    11    10    12   am
    12    12    13    1
    13    12    14    1
    14     9    15   ar
    15    15    16   ar
    16    16    17    1
    17    16    18   ar
    18    18    19    1
    19    19    20    1
    20    20    21   ar
    21    21    22   ar
    22    22    23   ar
    23    23    24    1
    24    23    25   ar
    25    25    26   ar
    26     4    27   ar
    27    27    28   ar
    28    28    29   ar
    29    29    30    1
    30    29    31   ar
    31    31    32   ar
    32    32    33   ar
    33    33     2   ar
    34    19     5    1
    35    26    20   ar
    36    33    28   ar
    37    18     8   ar
    38     1    34    1
    39     1    35    1
    40     1    36    1
    41     3    37    1
    42    13    38    1
    43    13    39    1
    44    13    40    1
    45    14    41    1
    46    14    42    1
    47    14    43    1
    48    15    44    1
    49    17    45    1
    50    17    46    1
    51    17    47    1
    52    19    48    1
    53    21    49    1
    54    22    50    1
    55    25    51    1
    56    26    52    1
    57    27    53    1
    58    30    54    1
    59    30    55    1
    60    30    56    1
