
     RDKit          3D

 56 60  0  0  0  0  0  0  0  0999 V2000
   -4.6138   -0.2180    2.3130 C   0  0  0  0  0  0  0  0  0  0  0  0
   -3.8000   -0.5203    1.1068 C   0  0  0  0  0  0  0  0  0  0  0  0
   -2.4666   -0.2189    1.0062 C   0  0  0  0  0  0  0  0  0  0  0  0
   -1.7975   -0.5347   -0.1442 C   0  0  0  0  0  0  0  0  0  0  0  0
   -0.4130   -0.2710   -0.3750 N   0  0  0  0  0  0  0  0  0  0  0  0
    0.5687   -1.2139   -0.0014 C   0  0  0  0  0  0  0  0  0  0  0  0
    0.4137   -2.3431    0.5678 O   0  0  0  0  0  0  0  0  0  0  0  0
    1.8643   -0.6781   -0.3834 C   0  0  0  0  0  0  0  0  0  0  0  0
    3.2284   -0.9532   -0.3790 C   0  0  0  0  0  0  0  0  0  0  0  0
    3.8516   -2.1522    0.1507 C   0  0  0  0  0  0  0  0  0  0  0  0
    4.0233   -3.1337   -0.5876 O   0  0  0  0  0  0  0  0  0  0  0  0
    4.2774   -2.2409    1.5042 N   0  0  0  0  0  0  0  0  0  0  0  0
    4.8917   -3.4156    2.0358 C   0  0  0  0  0  0  0  0  0  0  0  0
    4.0740   -1.0892    2.3633 C   0  0  0  0  0  0  0  0  0  0  0  0
    3.7987    0.1448   -0.9736 C   0  0  0  0  0  0  0  0  0  0  0  0
    2.8846    1.0527   -1.3321 N   0  0  0  0  0  0  0  0  0  0  0  0
    3.0865    2.3323   -1.9807 C   0  0  0  0  0  0  0  0  0  0  0  0
    1.6672    0.5405   -0.9632 C   0  0  0  0  0  0  0  0  0  0  0  0
    0.2363    0.8469   -0.9704 C   0  0  0  0  0  0  0  0  0  0  0  0
   -0.0848    2.1491   -0.3584 C   0  0  0  0  0  0  0  0  0  0  0  0
   -0.0742    2.2833    1.0117 C   0  0  0  0  0  0  0  0  0  0  0  0
   -0.3709    3.4969    1.5916 C   0  0  0  0  0  0  0  0  0  0  0  0
   -0.6865    4.6098    0.8188 C   0  0  0  0  0  0  0  0  0  0  0  0
   -1.0607    6.1438    1.5772 Cl  0  0  0  0  0  0  0  0  0  0  0  0
   -0.6845    4.4279   -0.5452 C   0  0  0  0  0  0  0  0  0  0  0  0
   -0.3904    3.2216   -1.1454 C   0  0  0  0  0  0  0  0  0  0  0  0
   -2.5004   -1.1569   -1.1820 C   0  0  0  0  0  0  0  0  0  0  0  0
   -3.8030   -1.4561   -1.0947 N   0  0  0  0  0  0  0  0  0  0  0  0
   -4.6893   -2.0373   -1.9243 C   0  0  0  0  0  0  0  0  0  0  0  0
   -4.3285   -2.5209   -3.2823 C   0  0  0  0  0  0  0  0  0  0  0  0
   -5.8972   -2.0849   -1.3025 N   0  0  0  0  0  0  0  0  0  0  0  0
   -5.7316   -1.5358   -0.1104 N   0  0  0  0  0  0  0  0  0  0  0  0
   -4.4389   -1.1373    0.0422 C   0  0  0  0  0  0  0  0  0  0  0  0
   -5.4191    0.4823    1.9920 H   0  0  0  0  0  0  0  0  0  0  0  0
   -5.0667   -1.1745    2.6451 H   0  0  0  0  0  0  0  0  0  0  0  0
   -4.0049    0.2555    3.1001 H   0  0  0  0  0  0  0  0  0  0  0  0
   -1.9481    0.2553    1.8150 H   0  0  0  0  0  0  0  0  0  0  0  0
    6.0090   -3.3998    1.9828 H   0  0  0  0  0  0  0  0  0  0  0  0
    4.5471   -3.6726    3.0636 H   0  0  0  0  0  0  0  0  0  0  0  0
    4.5765   -4.2812    1.3984 H   0  0  0  0  0  0  0  0  0  0  0  0
    4.9412   -0.3868    2.2820 H   0  0  0  0  0  0  0  0  0  0  0  0
    3.1323   -0.5520    2.1367 H   0  0  0  0  0  0  0  0  0  0  0  0
    4.0341   -1.4224    3.4288 H   0  0  0  0  0  0  0  0  0  0  0  0
    4.8818    0.2500   -1.1294 H   0  0  0  0  0  0  0  0  0  0  0  0
    2.8410    2.2757   -3.0813 H   0  0  0  0  0  0  0  0  0  0  0  0
    4.1719    2.5707   -1.9476 H   0  0  0  0  0  0  0  0  0  0  0  0
    2.5641    3.1592   -1.4788 H   0  0  0  0  0  0  0  0  0  0  0  0
   -0.1722    0.8939   -2.0317 H   0  0  0  0  0  0  0  0  0  0  0  0
    0.1620    1.4631    1.6890 H   0  0  0  0  0  0  0  0  0  0  0  0
   -0.3757    3.6534    2.6743 H   0  0  0  0  0  0  0  0  0  0  0  0
   -0.9354    5.3163   -1.1317 H   0  0  0  0  0  0  0  0  0  0  0  0
   -0.4152    3.1768   -2.2421 H   0  0  0  0  0  0  0  0  0  0  0  0
   -1.9576   -1.4044   -2.0944 H   0  0  0  0  0  0  0  0  0  0  0  0
   -5.0723   -3.1835   -3.7273 H   0  0  0  0  0  0  0  0  0  0  0  0
   -4.2055   -1.6006   -3.9133 H   0  0  0  0  0  0  0  0  0  0  0  0
   -3.3228   -3.0122   -3.2177 H   0  0  0  0  0  0  0  0  0  0  0  0
  1  2  1  0
  2  3  2  0
  3  4  1  0
  4  5  1  0
  5  6  1  0
  6  7  2  0
  6  8  1  0
  8  9  1  0
  9 10  1  0
 10 11  2  0
 10 12  1  0
 12 13  1  0
 12 14  1  0
  9 15  2  0
 15 16  1  0
 16 17  1  0
 16 18  1  0
 18 19  1  0
 19 20  1  0
 20 21  2  0
 21 22  1  0
 22 23  2  0
 23 24  1  0
 23 25  1  0
 25 26  2  0
  4 27  2  0
 27 28  1  0
 28 29  1  0
 29 30  1  0
 29 31  2  0
 31 32  1  0
 32 33  2  0
 33  2  1  0
 19  5  1  0
 26 20  1  0
 33 28  1  0
 18  8  2  0
  1 34  1  0
  1 35  1  0
  1 36  1  0
  3 37  1  0
 13 38  1  0
 13 39  1  0
 13 40  1  0
 14 41  1  0
 14 42  1  0
 14 43  1  0
 15 44  1  0
 17 45  1  0
 17 46  1  0
 17 47  1  0
 19 48  1  0
 21 49  1  0
 22 50  1  0
 25 51  1  0
 26 52  1  0
 27 53  1  0
 30 54  1  0
 30 55  1  0
 30 56  1  0
M  END
$$$$
