@<TRIPOS>MOLECULE
*****
 43 46 0 0 0
SMALL
GASTEIGER

@<TRIPOS>ATOM
      1 C          -0.9717    0.7659    2.0763 C.3     1  UNL1       -0.0217
      2 C          -0.1464    0.3981    0.8779 C.ar    1  UNL1        0.0480
      3 N           1.1885    0.5316    0.8944 N.ar    1  UNL1       -0.2366
      4 C           1.9146    0.1908   -0.2062 C.ar    1  UNL1        0.1216
      5 N           3.3284    0.3361   -0.1782 N.pl3   1  UNL1       -0.3126
      6 C           4.1092    0.8257    0.9356 C.3     1  UNL1        0.0160
      7 C           5.3170   -0.0823    0.8993 C.3     1  UNL1       -0.0096
      8 C           5.5639   -0.2473   -0.5731 C.3     1  UNL1        0.0723
      9 O           6.5631    0.6073   -0.9757 O.3     1  UNL1       -0.3902
     10 C           4.2355    0.0239   -1.2482 C.3     1  UNL1        0.0396
     11 C           1.3013   -0.2927   -1.3466 C.ar    1  UNL1       -0.0211
     12 C          -0.0678   -0.4317   -1.3690 C.ar    1  UNL1       -0.0491
     13 C          -0.7749   -0.0830   -0.2521 C.ar    1  UNL1        0.0040
     14 C          -2.2204   -0.2130   -0.2306 C.ar    1  UNL1       -0.0050
     15 C          -2.9769    0.8597   -0.6424 C.ar    1  UNL1       -0.0416
     16 C          -4.3539    0.7961   -0.6443 C.ar    1  UNL1        0.0574
     17 C          -5.1321    1.9756   -1.0960 C.3     1  UNL1        0.4175
     18 F          -6.1794    1.5505   -1.8872 F       1  UNL1       -0.1659
     19 F          -4.3282    2.8236   -1.8393 F       1  UNL1       -0.1659
     20 F          -5.5894    2.6941    0.0147 F       1  UNL1       -0.1659
     21 C          -4.9876   -0.3392   -0.2349 C.ar    1  UNL1       -0.0246
     22 C          -4.2645   -1.4317    0.1836 C.ar    1  UNL1        0.0668
     23 N          -4.6135   -2.6467    0.6277 N.ar    1  UNL1       -0.2769
     24 N          -3.5102   -3.3464    0.9076 N.ar    1  UNL1       -0.1812
     25 C          -2.4298   -2.5568    0.6348 C.ar    1  UNL1        0.0575
     26 C          -2.8769   -1.3487    0.1785 C.ar    1  UNL1        0.0272
     27 H          -1.4260    1.7694    1.9379 H       1  UNL1        0.0293
     28 H          -0.3543    0.7020    2.9874 H       1  UNL1        0.0293
     29 H          -1.7708   -0.0005    2.1555 H       1  UNL1        0.0293
     30 H           4.4379    1.8674    0.8208 H       1  UNL1        0.0465
     31 H           3.5590    0.7057    1.9056 H       1  UNL1        0.0465
     32 H           6.1487    0.4453    1.4229 H       1  UNL1        0.0306
     33 H           5.0801   -1.0490    1.3938 H       1  UNL1        0.0306
     34 H           5.9083   -1.2973   -0.7616 H       1  UNL1        0.0609
     35 H           6.2051    1.2590   -1.6141 H       1  UNL1        0.2098
     36 H           4.4031    0.9152   -1.9053 H       1  UNL1        0.0489
     37 H           3.9206   -0.8324   -1.8695 H       1  UNL1        0.0489
     38 H           1.9024   -0.5499   -2.1907 H       1  UNL1        0.0652
     39 H          -0.5524   -0.8074   -2.2532 H       1  UNL1        0.0625
     40 H          -2.5161    1.7780   -0.9744 H       1  UNL1        0.0629
     41 H          -6.0875   -0.3686   -0.2444 H       1  UNL1        0.0644
     42 H          -5.5649   -3.0477    0.7588 H       1  UNL1        0.1889
     43 H          -1.3909   -2.8489    0.7623 H       1  UNL1        0.0854
@<TRIPOS>BOND
     1     1     2    1
     2     2     3   ar
     3     3     4   ar
     4     4     5    1
     5     5     6    1
     6     6     7    1
     7     7     8    1
     8     8     9    1
     9     8    10    1
    10     4    11   ar
    11    11    12   ar
    12    12    13   ar
    13    13    14    1
    14    14    15   ar
    15    15    16   ar
    16    16    17    1
    17    17    18    1
    18    17    19    1
    19    17    20    1
    20    16    21   ar
    21    21    22   ar
    22    22    23   ar
    23    23    24   ar
    24    24    25   ar
    25    25    26   ar
    26    13     2   ar
    27    26    14   ar
    28    10     5    1
    29    26    22   ar
    30     1    27    1
    31     1    28    1
    32     1    29    1
    33     6    30    1
    34     6    31    1
    35     7    32    1
    36     7    33    1
    37     8    34    1
    38     9    35    1
    39    10    36    1
    40    10    37    1
    41    11    38    1
    42    12    39    1
    43    15    40    1
    44    21    41    1
    45    23    42    1
    46    25    43    1
