
     RDKit          3D

 91 95  0  0  0  0  0  0  0  0999 V2000
    0.9558    3.8806    5.3899 C   0  0  0  0  0  0  0  0  0  0  0  0
    0.2568    2.8894    4.5118 C   0  0  0  0  0  0  0  0  0  0  0  0
    1.1206    2.0233    3.7764 N   0  0  0  0  0  0  0  0  0  0  0  0
    1.8608    1.0784    4.5415 C   0  0  0  0  0  0  0  0  0  0  0  0
    0.9582    0.0067    5.1500 C   0  0  0  0  0  0  0  0  0  0  0  0
    0.5862    1.5722    2.5396 C   0  0  0  0  0  0  0  0  0  0  0  0
    1.4789    0.6196    1.7872 C   0  0  0  0  0  0  0  0  0  0  0  0
    0.8370    0.2313    0.5334 N   0  0  0  0  0  0  0  0  0  0  0  0
    1.1491    0.9918   -0.6297 C   0  0  0  0  0  0  0  0  0  0  0  0
    2.4413    0.6791   -1.2690 C   0  0  0  0  0  0  0  0  0  0  0  0
    3.6170    1.3497   -0.9189 C   0  0  0  0  0  0  0  0  0  0  0  0
    4.8294    1.0768   -1.5099 C   0  0  0  0  0  0  0  0  0  0  0  0
    4.9221    0.1117   -2.4873 C   0  0  0  0  0  0  0  0  0  0  0  0
    6.2194   -0.1879   -3.1349 C   0  0  0  0  0  0  0  0  0  0  0  0
    6.2741   -0.6155   -4.4552 C   0  0  0  0  0  0  0  0  0  0  0  0
    7.4637   -0.8929   -5.0727 C   0  0  0  0  0  0  0  0  0  0  0  0
    8.6590   -0.7501   -4.3805 C   0  0  0  0  0  0  0  0  0  0  0  0
    9.9318   -1.0467   -5.0541 C   0  0  0  0  0  0  0  0  0  0  0  0
   10.7581   -1.8701   -4.3093 F   0  0  0  0  0  0  0  0  0  0  0  0
   10.6503    0.1118   -5.3525 F   0  0  0  0  0  0  0  0  0  0  0  0
    9.6737   -1.7249   -6.2454 F   0  0  0  0  0  0  0  0  0  0  0  0
    8.6006   -0.3268   -3.0746 C   0  0  0  0  0  0  0  0  0  0  0  0
    7.3864   -0.0467   -2.4531 C   0  0  0  0  0  0  0  0  0  0  0  0
    3.7842   -0.5622   -2.8503 C   0  0  0  0  0  0  0  0  0  0  0  0
    2.5611   -0.2709   -2.2384 C   0  0  0  0  0  0  0  0  0  0  0  0
    0.0020   -0.8834    0.5482 C   0  0  0  0  0  0  0  0  0  0  0  0
   -0.1243   -1.5813    1.6264 O   0  0  0  0  0  0  0  0  0  0  0  0
   -0.7907   -1.3531   -0.6165 C   0  0  0  0  0  0  0  0  0  0  0  0
   -2.1792   -0.9578   -0.4554 N   0  0  0  0  0  0  0  0  0  0  0  0
   -2.6208    0.1890   -0.9647 C   0  0  0  0  0  0  0  0  0  0  0  0
   -3.9606    0.5260   -0.7817 C   0  0  0  0  0  0  0  0  0  0  0  0
   -4.4436    1.7872   -1.3380 C   0  0  0  0  0  0  0  0  0  0  0  0
   -4.6121    2.8807   -0.3681 C   0  0  0  0  0  0  0  0  0  0  0  0
   -3.7019    3.8477    0.0218 C   0  0  0  0  0  0  0  0  0  0  0  0
   -4.2945    4.6283    0.9232 N   0  0  0  0  0  0  0  0  0  0  0  0
   -5.5305    4.2085    1.1256 N   0  0  0  0  0  0  0  0  0  0  0  0
   -6.5241    4.7689    2.0240 C   0  0  0  0  0  0  0  0  0  0  0  0
   -5.7587    3.1335    0.3460 C   0  0  0  0  0  0  0  0  0  0  0  0
   -4.7837   -0.3199   -0.0902 C   0  0  0  0  0  0  0  0  0  0  0  0
   -6.0120   -0.0731    0.1121 O   0  0  0  0  0  0  0  0  0  0  0  0
   -4.3062   -1.4746    0.4130 N   0  0  0  0  0  0  0  0  0  0  0  0
   -3.0096   -1.7699    0.2187 C   0  0  0  0  0  0  0  0  0  0  0  0
   -2.4119   -3.3168    0.9038 S   0  0  0  0  0  0  0  0  0  0  0  0
   -2.6462   -4.5952   -0.3709 C   0  0  0  0  0  0  0  0  0  0  0  0
   -4.0958   -4.8280   -0.6145 C   0  0  0  0  0  0  0  0  0  0  0  0
   -4.8313   -4.1431   -1.5381 C   0  0  0  0  0  0  0  0  0  0  0  0
   -6.1807   -4.4215   -1.7005 C   0  0  0  0  0  0  0  0  0  0  0  0
   -6.7971   -5.3887   -0.9362 C   0  0  0  0  0  0  0  0  0  0  0  0
   -8.1196   -5.6738   -1.0816 F   0  0  0  0  0  0  0  0  0  0  0  0
   -6.0655   -6.0838   -0.0035 C   0  0  0  0  0  0  0  0  0  0  0  0
   -4.7322   -5.7853    0.1335 C   0  0  0  0  0  0  0  0  0  0  0  0
    1.3144    4.7862    4.8544 H   0  0  0  0  0  0  0  0  0  0  0  0
    0.1818    4.2667    6.1093 H   0  0  0  0  0  0  0  0  0  0  0  0
    1.7422    3.4321    6.0277 H   0  0  0  0  0  0  0  0  0  0  0  0
   -0.4417    2.3124    5.1530 H   0  0  0  0  0  0  0  0  0  0  0  0
   -0.3643    3.4532    3.7854 H   0  0  0  0  0  0  0  0  0  0  0  0
    2.4712    1.5668    5.3396 H   0  0  0  0  0  0  0  0  0  0  0  0
    2.6015    0.5750    3.8927 H   0  0  0  0  0  0  0  0  0  0  0  0
    0.4503    0.3482    6.0626 H   0  0  0  0  0  0  0  0  0  0  0  0
    0.2264   -0.2750    4.3541 H   0  0  0  0  0  0  0  0  0  0  0  0
    1.5816   -0.9010    5.3275 H   0  0  0  0  0  0  0  0  0  0  0  0
    0.3146    2.3865    1.8425 H   0  0  0  0  0  0  0  0  0  0  0  0
   -0.3458    0.9953    2.7689 H   0  0  0  0  0  0  0  0  0  0  0  0
    2.4567    1.0797    1.6598 H   0  0  0  0  0  0  0  0  0  0  0  0
    1.6212   -0.3208    2.3954 H   0  0  0  0  0  0  0  0  0  0  0  0
    1.1032    2.0928   -0.4604 H   0  0  0  0  0  0  0  0  0  0  0  0
    0.3381    0.8035   -1.3869 H   0  0  0  0  0  0  0  0  0  0  0  0
    3.5717    2.1004   -0.1708 H   0  0  0  0  0  0  0  0  0  0  0  0
    5.7292    1.6052   -1.2277 H   0  0  0  0  0  0  0  0  0  0  0  0
    5.3066   -0.7127   -4.9580 H   0  0  0  0  0  0  0  0  0  0  0  0
    7.4683   -1.2227   -6.0965 H   0  0  0  0  0  0  0  0  0  0  0  0
    9.5263   -0.2083   -2.5134 H   0  0  0  0  0  0  0  0  0  0  0  0
    7.3835    0.2885   -1.4149 H   0  0  0  0  0  0  0  0  0  0  0  0
    3.8590   -1.3131   -3.6119 H   0  0  0  0  0  0  0  0  0  0  0  0
    1.6990   -0.8422   -2.5764 H   0  0  0  0  0  0  0  0  0  0  0  0
   -0.7570   -2.4817   -0.5863 H   0  0  0  0  0  0  0  0  0  0  0  0
   -0.4048   -1.0623   -1.5893 H   0  0  0  0  0  0  0  0  0  0  0  0
   -1.9677    0.8762   -1.5285 H   0  0  0  0  0  0  0  0  0  0  0  0
   -3.7642    2.1166   -2.1679 H   0  0  0  0  0  0  0  0  0  0  0  0
   -5.4411    1.6530   -1.8517 H   0  0  0  0  0  0  0  0  0  0  0  0
   -2.6935    3.9697   -0.3237 H   0  0  0  0  0  0  0  0  0  0  0  0
   -6.0817    5.4332    2.7936 H   0  0  0  0  0  0  0  0  0  0  0  0
   -7.2875    5.2682    1.3955 H   0  0  0  0  0  0  0  0  0  0  0  0
   -7.0431    3.9293    2.5384 H   0  0  0  0  0  0  0  0  0  0  0  0
   -6.6872    2.5824    0.3058 H   0  0  0  0  0  0  0  0  0  0  0  0
   -2.2072   -4.2473   -1.3136 H   0  0  0  0  0  0  0  0  0  0  0  0
   -2.1223   -5.5325   -0.0774 H   0  0  0  0  0  0  0  0  0  0  0  0
   -4.3535   -3.3740   -2.1495 H   0  0  0  0  0  0  0  0  0  0  0  0
   -6.7704   -3.8779   -2.4346 H   0  0  0  0  0  0  0  0  0  0  0  0
   -6.4981   -6.8473    0.6194 H   0  0  0  0  0  0  0  0  0  0  0  0
   -4.1606   -6.3502    0.8835 H   0  0  0  0  0  0  0  0  0  0  0  0
  1  2  1  0
  2  3  1  0
  3  4  1  0
  4  5  1  0
  3  6  1  0
  6  7  1  0
  7  8  1  0
  8  9  1  0
  9 10  1  0
 10 11  2  0
 11 12  1  0
 12 13  2  0
 13 14  1  0
 14 15  2  0
 15 16  1  0
 16 17  2  0
 17 18  1  0
 18 19  1  0
 18 20  1  0
 18 21  1  0
 17 22  1  0
 22 23  2  0
 13 24  1  0
 24 25  2  0
  8 26  1  0
 26 27  2  0
 26 28  1  0
 28 29  1  0
 29 30  1  0
 30 31  2  0
 31 32  1  0
 32 33  1  0
 33 34  1  0
 34 35  2  0
 35 36  1  0
 36 37  1  0
 36 38  1  0
 31 39  1  0
 39 40  2  0
 39 41  1  0
 41 42  2  0
 42 43  1  0
 43 44  1  0
 44 45  1  0
 45 46  2  0
 46 47  1  0
 47 48  2  0
 48 49  1  0
 48 50  1  0
 50 51  2  0
 25 10  1  0
 42 29  1  0
 51 45  1  0
 23 14  1  0
 38 33  2  0
  1 52  1  0
  1 53  1  0
  1 54  1  0
  2 55  1  0
  2 56  1  0
  4 57  1  0
  4 58  1  0
  5 59  1  0
  5 60  1  0
  5 61  1  0
  6 62  1  0
  6 63  1  0
  7 64  1  0
  7 65  1  0
  9 66  1  0
  9 67  1  0
 11 68  1  0
 12 69  1  0
 15 70  1  0
 16 71  1  0
 22 72  1  0
 23 73  1  0
 24 74  1  0
 25 75  1  0
 28 76  1  0
 28 77  1  0
 30 78  1  0
 32 79  1  0
 32 80  1  0
 34 81  1  0
 37 82  1  0
 37 83  1  0
 37 84  1  0
 38 85  1  0
 44 86  1  0
 44 87  1  0
 46 88  1  0
 47 89  1  0
 50 90  1  0
 51 91  1  0
M  END
$$$$
