@<TRIPOS>MOLECULE
*****
 91 95 0 0 0
SMALL
GASTEIGER

@<TRIPOS>ATOM
      1 C           0.9558    3.8806    5.3899 C.3     1  UNL1       -0.0524
      2 C           0.2568    2.8894    4.5118 C.3     1  UNL1       -0.0039
      3 N           1.1206    2.0233    3.7764 N.3     1  UNL1       -0.3014
      4 C           1.8608    1.0784    4.5415 C.3     1  UNL1       -0.0039
      5 C           0.9582    0.0067    5.1500 C.3     1  UNL1       -0.0524
      6 C           0.5862    1.5722    2.5396 C.3     1  UNL1        0.0147
      7 C           1.4789    0.6196    1.7872 C.3     1  UNL1        0.0278
      8 N           0.8370    0.2313    0.5334 N.am    1  UNL1       -0.2945
      9 C           1.1491    0.9918   -0.6297 C.3     1  UNL1        0.0398
     10 C           2.4413    0.6791   -1.2690 C.ar    1  UNL1       -0.0301
     11 C           3.6170    1.3497   -0.9189 C.ar    1  UNL1       -0.0565
     12 C           4.8294    1.0768   -1.5099 C.ar    1  UNL1       -0.0537
     13 C           4.9221    0.1117   -2.4873 C.ar    1  UNL1       -0.0179
     14 C           6.2194   -0.1879   -3.1349 C.ar    1  UNL1       -0.0179
     15 C           6.2741   -0.6155   -4.4552 C.ar    1  UNL1       -0.0535
     16 C           7.4637   -0.8929   -5.0727 C.ar    1  UNL1       -0.0495
     17 C           8.6590   -0.7501   -4.3805 C.ar    1  UNL1        0.0548
     18 C           9.9318   -1.0467   -5.0541 C.3     1  UNL1        0.4174
     19 F          10.7581   -1.8701   -4.3093 F       1  UNL1       -0.1659
     20 F          10.6503    0.1118   -5.3525 F       1  UNL1       -0.1659
     21 F           9.6737   -1.7249   -6.2454 F       1  UNL1       -0.1659
     22 C           8.6006   -0.3268   -3.0746 C.ar    1  UNL1       -0.0495
     23 C           7.3864   -0.0467   -2.4531 C.ar    1  UNL1       -0.0535
     24 C           3.7842   -0.5622   -2.8503 C.ar    1  UNL1       -0.0537
     25 C           2.5611   -0.2709   -2.2384 C.ar    1  UNL1       -0.0565
     26 C           0.0020   -0.8834    0.5482 C.2     1  UNL1        0.2357
     27 O          -0.1243   -1.5813    1.6264 O.2     1  UNL1       -0.2736
     28 C          -0.7907   -1.3531   -0.6165 C.3     1  UNL1        0.1015
     29 N          -2.1792   -0.9578   -0.4554 N.ar    1  UNL1       -0.3177
     30 C          -2.6208    0.1890   -0.9647 C.ar    1  UNL1        0.0161
     31 C          -3.9606    0.5260   -0.7817 C.ar    1  UNL1        0.0394
     32 C          -4.4436    1.7872   -1.3380 C.3     1  UNL1        0.0071
     33 C          -4.6121    2.8807   -0.3681 C.ar    1  UNL1       -0.0054
     34 C          -3.7019    3.8477    0.0218 C.ar    1  UNL1        0.0528
     35 N          -4.2945    4.6283    0.9232 N.ar    1  UNL1       -0.1796
     36 N          -5.5305    4.2085    1.1256 N.ar    1  UNL1       -0.2742
     37 C          -6.5241    4.7689    2.0240 C.3     1  UNL1        0.0302
     38 C          -5.7587    3.1335    0.3460 C.ar    1  UNL1        0.0286
     39 C          -4.7837   -0.3199   -0.0902 C.ar    1  UNL1        0.2773
     40 O          -6.0120   -0.0731    0.1121 O.2     1  UNL1       -0.2655
     41 N          -4.3062   -1.4746    0.4130 N.ar    1  UNL1       -0.1848
     42 C          -3.0096   -1.7699    0.2187 C.ar    1  UNL1        0.1733
     43 S          -2.4119   -3.3168    0.9038 S.3     1  UNL1       -0.0829
     44 C          -2.6462   -4.5952   -0.3709 C.3     1  UNL1        0.0262
     45 C          -4.0958   -4.8280   -0.6145 C.ar    1  UNL1       -0.0370
     46 C          -4.8313   -4.1431   -1.5381 C.ar    1  UNL1       -0.0551
     47 C          -6.1807   -4.4215   -1.7005 C.ar    1  UNL1       -0.0262
     48 C          -6.7971   -5.3887   -0.9362 C.ar    1  UNL1        0.1234
     49 F          -8.1196   -5.6738   -1.0816 F       1  UNL1       -0.2055
     50 C          -6.0655   -6.0838   -0.0035 C.ar    1  UNL1       -0.0262
     51 C          -4.7322   -5.7853    0.1335 C.ar    1  UNL1       -0.0551
     52 H           1.3144    4.7862    4.8544 H       1  UNL1        0.0242
     53 H           0.1818    4.2667    6.1093 H       1  UNL1        0.0242
     54 H           1.7422    3.4321    6.0277 H       1  UNL1        0.0242
     55 H          -0.4417    2.3124    5.1530 H       1  UNL1        0.0424
     56 H          -0.3643    3.4532    3.7854 H       1  UNL1        0.0424
     57 H           2.4712    1.5668    5.3396 H       1  UNL1        0.0424
     58 H           2.6015    0.5750    3.8927 H       1  UNL1        0.0424
     59 H           0.4503    0.3482    6.0626 H       1  UNL1        0.0242
     60 H           0.2264   -0.2750    4.3541 H       1  UNL1        0.0242
     61 H           1.5816   -0.9010    5.3275 H       1  UNL1        0.0242
     62 H           0.3146    2.3865    1.8425 H       1  UNL1        0.0442
     63 H          -0.3458    0.9953    2.7689 H       1  UNL1        0.0442
     64 H           2.4567    1.0797    1.6598 H       1  UNL1        0.0477
     65 H           1.6212   -0.3208    2.3954 H       1  UNL1        0.0477
     66 H           1.1032    2.0928   -0.4604 H       1  UNL1        0.0514
     67 H           0.3381    0.8035   -1.3869 H       1  UNL1        0.0514
     68 H           3.5717    2.1004   -0.1708 H       1  UNL1        0.0621
     69 H           5.7292    1.6052   -1.2277 H       1  UNL1        0.0624
     70 H           5.3066   -0.7127   -4.9580 H       1  UNL1        0.0624
     71 H           7.4683   -1.2227   -6.0965 H       1  UNL1        0.0623
     72 H           9.5263   -0.2083   -2.5134 H       1  UNL1        0.0623
     73 H           7.3835    0.2885   -1.4149 H       1  UNL1        0.0624
     74 H           3.8590   -1.3131   -3.6119 H       1  UNL1        0.0624
     75 H           1.6990   -0.8422   -2.5764 H       1  UNL1        0.0621
     76 H          -0.7570   -2.4817   -0.5863 H       1  UNL1        0.0588
     77 H          -0.4048   -1.0623   -1.5893 H       1  UNL1        0.0588
     78 H          -1.9677    0.8762   -1.5285 H       1  UNL1        0.0814
     79 H          -3.7642    2.1166   -2.1679 H       1  UNL1        0.0365
     80 H          -5.4411    1.6530   -1.8517 H       1  UNL1        0.0365
     81 H          -2.6935    3.9697   -0.3237 H       1  UNL1        0.0851
     82 H          -6.0817    5.4332    2.7936 H       1  UNL1        0.0473
     83 H          -7.2875    5.2682    1.3955 H       1  UNL1        0.0473
     84 H          -7.0431    3.9293    2.5384 H       1  UNL1        0.0473
     85 H          -6.6872    2.5824    0.3058 H       1  UNL1        0.0829
     86 H          -2.2072   -4.2473   -1.3136 H       1  UNL1        0.0429
     87 H          -2.1223   -5.5325   -0.0774 H       1  UNL1        0.0429
     88 H          -4.3535   -3.3740   -2.1495 H       1  UNL1        0.0621
     89 H          -6.7704   -3.8779   -2.4346 H       1  UNL1        0.0646
     90 H          -6.4981   -6.8473    0.6194 H       1  UNL1        0.0646
     91 H          -4.1606   -6.3502    0.8835 H       1  UNL1        0.0621
@<TRIPOS>BOND
     1     1     2    1
     2     2     3    1
     3     3     4    1
     4     4     5    1
     5     3     6    1
     6     6     7    1
     7     7     8    1
     8     8     9    1
     9     9    10    1
    10    10    11   ar
    11    11    12   ar
    12    12    13   ar
    13    13    14    1
    14    14    15   ar
    15    15    16   ar
    16    16    17   ar
    17    17    18    1
    18    18    19    1
    19    18    20    1
    20    18    21    1
    21    17    22   ar
    22    22    23   ar
    23    13    24   ar
    24    24    25   ar
    25     8    26   am
    26    26    27    2
    27    26    28    1
    28    28    29    1
    29    29    30   ar
    30    30    31   ar
    31    31    32    1
    32    32    33    1
    33    33    34   ar
    34    34    35   ar
    35    35    36   ar
    36    36    37    1
    37    36    38   ar
    38    31    39   ar
    39    39    40    2
    40    39    41   ar
    41    41    42   ar
    42    42    43    1
    43    43    44    1
    44    44    45    1
    45    45    46   ar
    46    46    47   ar
    47    47    48   ar
    48    48    49    1
    49    48    50   ar
    50    50    51   ar
    51    25    10   ar
    52    42    29   ar
    53    51    45   ar
    54    23    14   ar
    55    38    33   ar
    56     1    52    1
    57     1    53    1
    58     1    54    1
    59     2    55    1
    60     2    56    1
    61     4    57    1
    62     4    58    1
    63     5    59    1
    64     5    60    1
    65     5    61    1
    66     6    62    1
    67     6    63    1
    68     7    64    1
    69     7    65    1
    70     9    66    1
    71     9    67    1
    72    11    68    1
    73    12    69    1
    74    15    70    1
    75    16    71    1
    76    22    72    1
    77    23    73    1
    78    24    74    1
    79    25    75    1
    80    28    76    1
    81    28    77    1
    82    30    78    1
    83    32    79    1
    84    32    80    1
    85    34    81    1
    86    37    82    1
    87    37    83    1
    88    37    84    1
    89    38    85    1
    90    44    86    1
    91    44    87    1
    92    46    88    1
    93    47    89    1
    94    50    90    1
    95    51    91    1
