@<TRIPOS>MOLECULE
*****
 52 55 0 0 0
SMALL
GASTEIGER

@<TRIPOS>ATOM
      1 C          -3.4255    4.4940    0.7789 C.3     1  UNL1       -0.0397
      2 C          -2.8699    3.1256    0.6151 C.ar    1  UNL1       -0.0504
      3 C          -2.2492    2.4572    1.6640 C.ar    1  UNL1       -0.0586
      4 C          -1.7573    1.1926    1.4434 C.ar    1  UNL1       -0.0580
      5 C          -1.8341    0.5301    0.2467 C.ar    1  UNL1       -0.0435
      6 C          -1.3121   -0.8185    0.0030 C.3     1  UNL1       -0.0032
      7 C          -2.1218   -1.7651    0.8902 C.3     1  UNL1       -0.0298
      8 C          -1.5813   -3.1833    0.8075 C.3     1  UNL1        0.0110
      9 C          -1.4857   -3.5407   -0.6524 C.3     1  UNL1       -0.0359
     10 C          -0.1143   -3.0633   -1.0369 C.3     1  UNL1       -0.0352
     11 C           0.4636   -2.4759    0.2434 C.3     1  UNL1        0.0208
     12 C           0.1276   -0.9972    0.3721 C.3     1  UNL1        0.0422
     13 C           1.0582   -0.3167   -0.5641 C.ar    1  UNL1        0.1426
     14 C           1.9915    0.6020   -0.1282 C.ar    1  UNL1        0.0041
     15 C           2.6780    1.0307   -1.2458 C.ar    1  UNL1        0.0864
     16 C           3.7698    2.0260   -1.1980 C.3     1  UNL1       -0.0010
     17 C           3.3394    3.3042   -0.5097 C.3     1  UNL1       -0.0571
     18 C           4.9220    1.4606   -0.3571 C.3     1  UNL1       -0.0571
     19 N           2.1427    0.3699   -2.2749 N.ar    1  UNL1       -0.0828
     20 O           1.1876   -0.4195   -1.8439 O.2     1  UNL1       -0.3590
     21 N          -0.2322   -3.1535    1.3181 N.3     1  UNL1       -0.2988
     22 C           0.3164   -4.4747    1.5265 C.3     1  UNL1       -0.0122
     23 C          -2.4570    1.2081   -0.7954 C.ar    1  UNL1       -0.0580
     24 C          -2.9600    2.4795   -0.6008 C.ar    1  UNL1       -0.0586
     25 H          -2.7505    5.1207    1.3942 H       1  UNL1        0.0278
     26 H          -3.5830    4.9246   -0.2302 H       1  UNL1        0.0278
     27 H          -4.4362    4.3703    1.2527 H       1  UNL1        0.0278
     28 H          -2.1693    2.9433    2.6180 H       1  UNL1        0.0620
     29 H          -1.2824    0.6928    2.2623 H       1  UNL1        0.0620
     30 H          -1.4927   -1.1327   -1.0311 H       1  UNL1        0.0357
     31 H          -1.9785   -1.3862    1.9339 H       1  UNL1        0.0286
     32 H          -3.1760   -1.8098    0.5891 H       1  UNL1        0.0286
     33 H          -2.2577   -3.8239    1.3798 H       1  UNL1        0.0463
     34 H          -1.6193   -4.6308   -0.8276 H       1  UNL1        0.0281
     35 H          -2.2927   -3.0148   -1.2071 H       1  UNL1        0.0281
     36 H          -0.1044   -2.3677   -1.8734 H       1  UNL1        0.0281
     37 H           0.4806   -3.9555   -1.3434 H       1  UNL1        0.0281
     38 H           1.5632   -2.6352    0.3078 H       1  UNL1        0.0470
     39 H           0.2620   -0.6976    1.4104 H       1  UNL1        0.0401
     40 H           2.1636    0.9350    0.9046 H       1  UNL1        0.0671
     41 H           4.1970    2.2428   -2.1845 H       1  UNL1        0.0360
     42 H           2.9744    3.0171    0.4989 H       1  UNL1        0.0236
     43 H           4.2665    3.9119   -0.3619 H       1  UNL1        0.0236
     44 H           2.6029    3.8814   -1.0935 H       1  UNL1        0.0236
     45 H           5.2324    0.4654   -0.7878 H       1  UNL1        0.0236
     46 H           5.7713    2.1662   -0.4590 H       1  UNL1        0.0236
     47 H           4.5809    1.3755    0.6858 H       1  UNL1        0.0236
     48 H           1.3909   -4.4373    1.2008 H       1  UNL1        0.0391
     49 H          -0.2324   -5.2679    1.0212 H       1  UNL1        0.0391
     50 H           0.2999   -4.6953    2.6171 H       1  UNL1        0.0391
     51 H          -2.5626    0.7581   -1.7810 H       1  UNL1        0.0620
     52 H          -3.4444    2.9779   -1.4528 H       1  UNL1        0.0620
@<TRIPOS>BOND
     1     1     2    1
     2     2     3   ar
     3     3     4   ar
     4     4     5   ar
     5     5     6    1
     6     6     7    1
     7     7     8    1
     8     8     9    1
     9     9    10    1
    10    10    11    1
    11    11    12    1
    12    12    13    1
    13    13    14   ar
    14    14    15   ar
    15    15    16    1
    16    16    17    1
    17    16    18    1
    18    15    19   ar
    19    19    20   ar
    20    11    21    1
    21    21    22    1
    22     5    23   ar
    23    23    24   ar
    24    24     2   ar
    25    12     6    1
    26    20    13   ar
    27    21     8    1
    28     1    25    1
    29     1    26    1
    30     1    27    1
    31     3    28    1
    32     4    29    1
    33     6    30    1
    34     7    31    1
    35     7    32    1
    36     8    33    1
    37     9    34    1
    38     9    35    1
    39    10    36    1
    40    10    37    1
    41    11    38    1
    42    12    39    1
    43    14    40    1
    44    16    41    1
    45    17    42    1
    46    17    43    1
    47    17    44    1
    48    18    45    1
    49    18    46    1
    50    18    47    1
    51    22    48    1
    52    22    49    1
    53    22    50    1
    54    23    51    1
    55    24    52    1
