@<TRIPOS>MOLECULE
*****
 79 80 0 0 0
SMALL
GASTEIGER

@<TRIPOS>ATOM
      1 C          -6.6817   -1.4112    2.6874 C.3     1  UNL1       -0.0627
      2 C          -7.5034   -1.6490    1.4528 C.3     1  UNL1       -0.0467
      3 C          -8.4633   -2.7792    1.7492 C.3     1  UNL1       -0.0627
      4 C          -6.6231   -2.0064    0.2780 C.3     1  UNL1       -0.0507
      5 C          -5.6375   -0.8752   -0.0152 C.3     1  UNL1       -0.0526
      6 C          -4.8153   -1.3053   -1.1798 C.3     1  UNL1       -0.0505
      7 C          -3.7692   -0.2593   -1.6094 C.3     1  UNL1       -0.0439
      8 C          -4.5647    0.9636   -1.9596 C.3     1  UNL1       -0.0624
      9 C          -2.7780   -0.1377   -0.5290 C.3     1  UNL1       -0.0505
     10 C          -1.6167    0.7672   -0.6897 C.3     1  UNL1       -0.0526
     11 C          -1.9264    2.2083   -0.8906 C.3     1  UNL1       -0.0505
     12 C          -0.6779    3.0667   -1.0267 C.3     1  UNL1       -0.0439
     13 C          -1.1377    4.4974   -1.2267 C.3     1  UNL1       -0.0624
     14 C           0.2133    2.9062    0.1535 C.3     1  UNL1       -0.0502
     15 C           1.4548    3.7743    0.0557 C.3     1  UNL1       -0.0491
     16 C           2.2801    3.4620   -1.1220 C.3     1  UNL1       -0.0320
     17 C           2.9359    2.1703   -1.2397 C.2     1  UNL1       -0.0762
     18 C           3.6888    1.9640   -2.5296 C.3     1  UNL1       -0.0438
     19 C           3.0914    1.0435   -0.5197 C.2     1  UNL1       -0.0806
     20 C           3.7806   -0.2173   -0.7398 C.3     1  UNL1       -0.0052
     21 C           4.8441   -0.5950    0.1776 C.2     1  UNL1        0.0102
     22 C           5.4092   -0.0603    1.2396 C.2     1  UNL1        0.0039
     23 C           4.9187    1.2592    1.7109 C.3     1  UNL1       -0.0357
     24 C           6.4916   -0.7013    1.9717 C.2     1  UNL1        0.1900
     25 O           6.9632   -0.1077    2.9734 O.2     1  UNL1       -0.2870
     26 C           7.0311   -1.9780    1.5883 C.ar    1  UNL1        0.0327
     27 C           6.4651   -2.5863    0.4676 C.ar    1  UNL1        0.0327
     28 C           7.0128   -3.8080    0.1362 C.ar    1  UNL1       -0.0502
     29 C           8.0385   -4.3729    0.8632 C.ar    1  UNL1       -0.0610
     30 C           8.5641   -3.7340    1.9619 C.ar    1  UNL1       -0.0610
     31 C           8.0501   -2.5137    2.3305 C.ar    1  UNL1       -0.0502
     32 C           5.3812   -1.9111   -0.2397 C.2     1  UNL1        0.1905
     33 O           5.0028   -2.6267   -1.2307 O.2     1  UNL1       -0.2869
     34 H          -6.0129   -2.3079    2.8332 H       1  UNL1        0.0232
     35 H          -7.3992   -1.3859    3.5509 H       1  UNL1        0.0232
     36 H          -6.0630   -0.5067    2.6446 H       1  UNL1        0.0232
     37 H          -8.0565   -0.7186    1.1648 H       1  UNL1        0.0295
     38 H          -9.3250   -2.7449    1.0425 H       1  UNL1        0.0232
     39 H          -7.8760   -3.7334    1.6306 H       1  UNL1        0.0232
     40 H          -8.8002   -2.7274    2.8023 H       1  UNL1        0.0232
     41 H          -7.2567   -2.2195   -0.6063 H       1  UNL1        0.0268
     42 H          -6.0346   -2.9343    0.4977 H       1  UNL1        0.0268
     43 H          -5.0402   -0.7030    0.8944 H       1  UNL1        0.0265
     44 H          -6.2535    0.0261   -0.2798 H       1  UNL1        0.0265
     45 H          -4.2686   -2.2339   -0.9051 H       1  UNL1        0.0268
     46 H          -5.5026   -1.5199   -2.0382 H       1  UNL1        0.0268
     47 H          -3.2765   -0.6152   -2.5290 H       1  UNL1        0.0298
     48 H          -4.6486    1.7081   -1.1475 H       1  UNL1        0.0232
     49 H          -5.6431    0.6202   -2.1433 H       1  UNL1        0.0232
     50 H          -4.2789    1.4025   -2.9560 H       1  UNL1        0.0232
     51 H          -3.2613    0.0907    0.4733 H       1  UNL1        0.0268
     52 H          -2.3590   -1.1736   -0.3541 H       1  UNL1        0.0268
     53 H          -0.9693    0.7249    0.2530 H       1  UNL1        0.0265
     54 H          -0.8995    0.3787   -1.4725 H       1  UNL1        0.0265
     55 H          -2.5111    2.6495   -0.0590 H       1  UNL1        0.0268
     56 H          -2.5546    2.3693   -1.8257 H       1  UNL1        0.0268
     57 H          -0.1978    2.7458   -1.9726 H       1  UNL1        0.0298
     58 H          -0.3285    5.1676   -1.5807 H       1  UNL1        0.0232
     59 H          -1.6752    4.8714   -0.3323 H       1  UNL1        0.0232
     60 H          -1.8934    4.4772   -2.0467 H       1  UNL1        0.0232
     61 H          -0.2739    3.1379    1.1029 H       1  UNL1        0.0268
     62 H           0.5488    1.8658    0.1854 H       1  UNL1        0.0268
     63 H           1.1234    4.8391    0.0275 H       1  UNL1        0.0268
     64 H           2.0261    3.7100    1.0270 H       1  UNL1        0.0268
     65 H           1.6535    3.6072   -2.0524 H       1  UNL1        0.0310
     66 H           3.0977    4.2581   -1.1538 H       1  UNL1        0.0310
     67 H           3.5691    2.8188   -3.1877 H       1  UNL1        0.0274
     68 H           3.1986    1.0953   -3.0308 H       1  UNL1        0.0274
     69 H           4.7440    1.6721   -2.3570 H       1  UNL1        0.0274
     70 H           2.6115    1.1030    0.4468 H       1  UNL1        0.0575
     71 H           4.1811   -0.1916   -1.7996 H       1  UNL1        0.0357
     72 H           3.0061   -1.0448   -0.8044 H       1  UNL1        0.0357
     73 H           4.8815    1.9387    0.8455 H       1  UNL1        0.0279
     74 H           5.7113    1.7237    2.3710 H       1  UNL1        0.0279
     75 H           4.0291    1.2171    2.3403 H       1  UNL1        0.0279
     76 H           6.6039   -4.3092   -0.7224 H       1  UNL1        0.0625
     77 H           8.4009   -5.3461    0.5154 H       1  UNL1        0.0618
     78 H           9.3742   -4.2666    2.4689 H       1  UNL1        0.0618
     79 H           8.4764   -2.0369    3.1892 H       1  UNL1        0.0625
@<TRIPOS>BOND
     1     1     2    1
     2     2     3    1
     3     2     4    1
     4     4     5    1
     5     5     6    1
     6     6     7    1
     7     7     8    1
     8     7     9    1
     9     9    10    1
    10    10    11    1
    11    11    12    1
    12    12    13    1
    13    12    14    1
    14    14    15    1
    15    15    16    1
    16    16    17    1
    17    17    18    1
    18    17    19    2
    19    19    20    1
    20    20    21    1
    21    21    22    2
    22    22    23    1
    23    22    24    1
    24    24    25    2
    25    24    26    1
    26    26    27   ar
    27    27    28   ar
    28    28    29   ar
    29    29    30   ar
    30    30    31   ar
    31    27    32    1
    32    32    33    2
    33    32    21    1
    34    31    26   ar
    35     1    34    1
    36     1    35    1
    37     1    36    1
    38     2    37    1
    39     3    38    1
    40     3    39    1
    41     3    40    1
    42     4    41    1
    43     4    42    1
    44     5    43    1
    45     5    44    1
    46     6    45    1
    47     6    46    1
    48     7    47    1
    49     8    48    1
    50     8    49    1
    51     8    50    1
    52     9    51    1
    53     9    52    1
    54    10    53    1
    55    10    54    1
    56    11    55    1
    57    11    56    1
    58    12    57    1
    59    13    58    1
    60    13    59    1
    61    13    60    1
    62    14    61    1
    63    14    62    1
    64    15    63    1
    65    15    64    1
    66    16    65    1
    67    16    66    1
    68    18    67    1
    69    18    68    1
    70    18    69    1
    71    19    70    1
    72    20    71    1
    73    20    72    1
    74    23    73    1
    75    23    74    1
    76    23    75    1
    77    28    76    1
    78    29    77    1
    79    30    78    1
    80    31    79    1
