
     RDKit          3D

 79 80  0  0  0  0  0  0  0  0999 V2000
   -6.6817   -1.4112    2.6874 C   0  0  0  0  0  0  0  0  0  0  0  0
   -7.5034   -1.6490    1.4528 C   0  0  0  0  0  0  0  0  0  0  0  0
   -8.4633   -2.7792    1.7492 C   0  0  0  0  0  0  0  0  0  0  0  0
   -6.6231   -2.0064    0.2780 C   0  0  0  0  0  0  0  0  0  0  0  0
   -5.6375   -0.8752   -0.0152 C   0  0  0  0  0  0  0  0  0  0  0  0
   -4.8153   -1.3053   -1.1798 C   0  0  0  0  0  0  0  0  0  0  0  0
   -3.7692   -0.2593   -1.6094 C   0  0  1  0  0  0  0  0  0  0  0  0
   -4.5647    0.9636   -1.9596 C   0  0  0  0  0  0  0  0  0  0  0  0
   -2.7780   -0.1377   -0.5290 C   0  0  0  0  0  0  0  0  0  0  0  0
   -1.6167    0.7672   -0.6897 C   0  0  0  0  0  0  0  0  0  0  0  0
   -1.9264    2.2083   -0.8906 C   0  0  0  0  0  0  0  0  0  0  0  0
   -0.6779    3.0667   -1.0267 C   0  0  1  0  0  0  0  0  0  0  0  0
   -1.1377    4.4974   -1.2267 C   0  0  0  0  0  0  0  0  0  0  0  0
    0.2133    2.9062    0.1535 C   0  0  0  0  0  0  0  0  0  0  0  0
    1.4548    3.7743    0.0557 C   0  0  0  0  0  0  0  0  0  0  0  0
    2.2801    3.4620   -1.1220 C   0  0  0  0  0  0  0  0  0  0  0  0
    2.9359    2.1703   -1.2397 C   0  0  0  0  0  0  0  0  0  0  0  0
    3.6888    1.9640   -2.5296 C   0  0  0  0  0  0  0  0  0  0  0  0
    3.0914    1.0435   -0.5197 C   0  0  0  0  0  0  0  0  0  0  0  0
    3.7806   -0.2173   -0.7398 C   0  0  0  0  0  0  0  0  0  0  0  0
    4.8441   -0.5950    0.1776 C   0  0  0  0  0  0  0  0  0  0  0  0
    5.4092   -0.0603    1.2396 C   0  0  0  0  0  0  0  0  0  0  0  0
    4.9187    1.2592    1.7109 C   0  0  0  0  0  0  0  0  0  0  0  0
    6.4916   -0.7013    1.9717 C   0  0  0  0  0  0  0  0  0  0  0  0
    6.9632   -0.1077    2.9734 O   0  0  0  0  0  0  0  0  0  0  0  0
    7.0311   -1.9780    1.5883 C   0  0  0  0  0  0  0  0  0  0  0  0
    6.4651   -2.5863    0.4676 C   0  0  0  0  0  0  0  0  0  0  0  0
    7.0128   -3.8080    0.1362 C   0  0  0  0  0  0  0  0  0  0  0  0
    8.0385   -4.3729    0.8632 C   0  0  0  0  0  0  0  0  0  0  0  0
    8.5641   -3.7340    1.9619 C   0  0  0  0  0  0  0  0  0  0  0  0
    8.0501   -2.5137    2.3305 C   0  0  0  0  0  0  0  0  0  0  0  0
    5.3812   -1.9111   -0.2397 C   0  0  0  0  0  0  0  0  0  0  0  0
    5.0028   -2.6267   -1.2307 O   0  0  0  0  0  0  0  0  0  0  0  0
   -6.0129   -2.3079    2.8332 H   0  0  0  0  0  0  0  0  0  0  0  0
   -7.3992   -1.3859    3.5509 H   0  0  0  0  0  0  0  0  0  0  0  0
   -6.0630   -0.5067    2.6446 H   0  0  0  0  0  0  0  0  0  0  0  0
   -8.0565   -0.7186    1.1648 H   0  0  0  0  0  0  0  0  0  0  0  0
   -9.3250   -2.7449    1.0425 H   0  0  0  0  0  0  0  0  0  0  0  0
   -7.8760   -3.7334    1.6306 H   0  0  0  0  0  0  0  0  0  0  0  0
   -8.8002   -2.7274    2.8023 H   0  0  0  0  0  0  0  0  0  0  0  0
   -7.2567   -2.2195   -0.6063 H   0  0  0  0  0  0  0  0  0  0  0  0
   -6.0346   -2.9343    0.4977 H   0  0  0  0  0  0  0  0  0  0  0  0
   -5.0402   -0.7030    0.8944 H   0  0  0  0  0  0  0  0  0  0  0  0
   -6.2535    0.0261   -0.2798 H   0  0  0  0  0  0  0  0  0  0  0  0
   -4.2686   -2.2339   -0.9051 H   0  0  0  0  0  0  0  0  0  0  0  0
   -5.5026   -1.5199   -2.0382 H   0  0  0  0  0  0  0  0  0  0  0  0
   -3.2765   -0.6152   -2.5290 H   0  0  0  0  0  0  0  0  0  0  0  0
   -4.6486    1.7081   -1.1475 H   0  0  0  0  0  0  0  0  0  0  0  0
   -5.6431    0.6202   -2.1433 H   0  0  0  0  0  0  0  0  0  0  0  0
   -4.2789    1.4025   -2.9560 H   0  0  0  0  0  0  0  0  0  0  0  0
   -3.2613    0.0907    0.4733 H   0  0  0  0  0  0  0  0  0  0  0  0
   -2.3590   -1.1736   -0.3541 H   0  0  0  0  0  0  0  0  0  0  0  0
   -0.9693    0.7249    0.2530 H   0  0  0  0  0  0  0  0  0  0  0  0
   -0.8995    0.3787   -1.4725 H   0  0  0  0  0  0  0  0  0  0  0  0
   -2.5111    2.6495   -0.0590 H   0  0  0  0  0  0  0  0  0  0  0  0
   -2.5546    2.3693   -1.8257 H   0  0  0  0  0  0  0  0  0  0  0  0
   -0.1978    2.7458   -1.9726 H   0  0  0  0  0  0  0  0  0  0  0  0
   -0.3285    5.1676   -1.5807 H   0  0  0  0  0  0  0  0  0  0  0  0
   -1.6752    4.8714   -0.3323 H   0  0  0  0  0  0  0  0  0  0  0  0
   -1.8934    4.4772   -2.0467 H   0  0  0  0  0  0  0  0  0  0  0  0
   -0.2739    3.1379    1.1029 H   0  0  0  0  0  0  0  0  0  0  0  0
    0.5488    1.8658    0.1854 H   0  0  0  0  0  0  0  0  0  0  0  0
    1.1234    4.8391    0.0275 H   0  0  0  0  0  0  0  0  0  0  0  0
    2.0261    3.7100    1.0270 H   0  0  0  0  0  0  0  0  0  0  0  0
    1.6535    3.6072   -2.0524 H   0  0  0  0  0  0  0  0  0  0  0  0
    3.0977    4.2581   -1.1538 H   0  0  0  0  0  0  0  0  0  0  0  0
    3.5691    2.8188   -3.1877 H   0  0  0  0  0  0  0  0  0  0  0  0
    3.1986    1.0953   -3.0308 H   0  0  0  0  0  0  0  0  0  0  0  0
    4.7440    1.6721   -2.3570 H   0  0  0  0  0  0  0  0  0  0  0  0
    2.6115    1.1030    0.4468 H   0  0  0  0  0  0  0  0  0  0  0  0
    4.1811   -0.1916   -1.7996 H   0  0  0  0  0  0  0  0  0  0  0  0
    3.0061   -1.0448   -0.8044 H   0  0  0  0  0  0  0  0  0  0  0  0
    4.8815    1.9387    0.8455 H   0  0  0  0  0  0  0  0  0  0  0  0
    5.7113    1.7237    2.3710 H   0  0  0  0  0  0  0  0  0  0  0  0
    4.0291    1.2171    2.3403 H   0  0  0  0  0  0  0  0  0  0  0  0
    6.6039   -4.3092   -0.7224 H   0  0  0  0  0  0  0  0  0  0  0  0
    8.4009   -5.3461    0.5154 H   0  0  0  0  0  0  0  0  0  0  0  0
    9.3742   -4.2666    2.4689 H   0  0  0  0  0  0  0  0  0  0  0  0
    8.4764   -2.0369    3.1892 H   0  0  0  0  0  0  0  0  0  0  0  0
  1  2  1  0
  2  3  1  0
  2  4  1  0
  4  5  1  0
  5  6  1  0
  6  7  1  0
  7  8  1  0
  7  9  1  0
  9 10  1  0
 10 11  1  0
 11 12  1  0
 12 13  1  0
 12 14  1  0
 14 15  1  0
 15 16  1  0
 16 17  1  0
 17 18  1  0
 17 19  2  0
 19 20  1  0
 20 21  1  0
 21 22  2  0
 22 23  1  0
 22 24  1  0
 24 25  2  0
 24 26  1  0
 26 27  2  0
 27 28  1  0
 28 29  2  0
 29 30  1  0
 30 31  2  0
 27 32  1  0
 32 33  2  0
 32 21  1  0
 31 26  1  0
  1 34  1  0
  1 35  1  0
  1 36  1  0
  2 37  1  0
  3 38  1  0
  3 39  1  0
  3 40  1  0
  4 41  1  0
  4 42  1  0
  5 43  1  0
  5 44  1  0
  6 45  1  0
  6 46  1  0
  7 47  1  6
  8 48  1  0
  8 49  1  0
  8 50  1  0
  9 51  1  0
  9 52  1  0
 10 53  1  0
 10 54  1  0
 11 55  1  0
 11 56  1  0
 12 57  1  6
 13 58  1  0
 13 59  1  0
 13 60  1  0
 14 61  1  0
 14 62  1  0
 15 63  1  0
 15 64  1  0
 16 65  1  0
 16 66  1  0
 18 67  1  0
 18 68  1  0
 18 69  1  0
 19 70  1  0
 20 71  1  0
 20 72  1  0
 23 73  1  0
 23 74  1  0
 23 75  1  0
 28 76  1  0
 29 77  1  0
 30 78  1  0
 31 79  1  0
M  END
$$$$
