@<TRIPOS>MOLECULE
*****
 56 61 0 0 0
SMALL
GASTEIGER

@<TRIPOS>ATOM
      1 C           6.7429   -1.1692    0.0182 C.3     1  UNL1        0.0043
      2 N           5.3167   -1.0964    0.5101 N.am    1  UNL1       -0.2916
      3 C           5.1561   -0.8510    1.9023 C.3     1  UNL1        0.0043
      4 C           4.3254   -1.2720   -0.4423 C.2     1  UNL1        0.3046
      5 O           4.7405   -1.4760   -1.6728 O.2     1  UNL1       -0.2524
      6 N           2.9535   -1.2655   -0.3041 N.am    1  UNL1       -0.2794
      7 C           2.3503   -1.0870    0.9729 C.3     1  UNL1        0.0345
      8 C           0.8353   -1.4259    0.9865 C.3     1  UNL1        0.0392
      9 N           0.1679   -0.2870    0.3790 N.ar    1  UNL1       -0.3443
     10 C          -0.7883    0.4726    0.9374 C.ar    1  UNL1        0.0137
     11 C          -1.1873    1.4791    0.0331 C.ar    1  UNL1        0.0131
     12 C          -2.2122    2.4889    0.2807 C.2     1  UNL1        0.0604
     13 C          -3.4020    2.2415    0.8214 C.2     1  UNL1        0.0751
     14 C          -3.8786    0.9376    1.2469 C.ar    1  UNL1        0.0789
     15 C          -4.3882    0.6440    2.4937 C.ar    1  UNL1        0.0545
     16 N          -4.7411   -0.6249    2.5044 N.ar    1  UNL1       -0.2355
     17 C          -4.4838   -1.1754    1.3146 C.ar    1  UNL1        0.1380
     18 C          -4.7045   -2.4656    0.8910 C.ar    1  UNL1       -0.0188
     19 C          -4.3788   -2.8275   -0.3867 C.ar    1  UNL1       -0.0569
     20 C          -3.8364   -1.8513   -1.1894 C.ar    1  UNL1       -0.0450
     21 C          -3.6258   -0.5539   -0.7278 C.ar    1  UNL1        0.0118
     22 N          -3.9544   -0.2164    0.5424 N.ar    1  UNL1       -0.2991
     23 C          -4.1497    3.5184    0.9224 C.2     1  UNL1        0.2533
     24 O          -5.3069    3.6451    1.3861 O.2     1  UNL1       -0.2697
     25 N          -3.3372    4.5677    0.4077 N.am    1  UNL1       -0.2482
     26 C          -2.1367    3.9184    0.0126 C.2     1  UNL1        0.2519
     27 O          -1.1519    4.4977   -0.4944 O.2     1  UNL1       -0.2697
     28 C          -0.4099    1.2588   -1.0794 C.ar    1  UNL1        0.0081
     29 C          -0.3209    1.8886   -2.3098 C.ar    1  UNL1       -0.0520
     30 C           0.5626    1.4518   -3.2788 C.ar    1  UNL1       -0.0607
     31 C           1.3754    0.3503   -2.9938 C.ar    1  UNL1       -0.0551
     32 C           1.3120   -0.2924   -1.7926 C.ar    1  UNL1       -0.0060
     33 C           0.4155    0.1818   -0.8640 C.ar    1  UNL1        0.0544
     34 C           2.2403   -1.4361   -1.6104 C.3     1  UNL1        0.0432
     35 H           6.7428   -1.1321   -1.0683 H       1  UNL1        0.0429
     36 H           7.2567   -0.3161    0.4582 H       1  UNL1        0.0429
     37 H           7.1865   -2.1119    0.3640 H       1  UNL1        0.0429
     38 H           4.9708   -1.8040    2.4468 H       1  UNL1        0.0429
     39 H           4.4537   -0.0658    2.1539 H       1  UNL1        0.0429
     40 H           6.1810   -0.4952    2.3055 H       1  UNL1        0.0429
     41 H           2.8090   -1.6529    1.7813 H       1  UNL1        0.0483
     42 H           2.3576    0.0035    1.2436 H       1  UNL1        0.0483
     43 H           0.5039   -1.5607    2.0176 H       1  UNL1        0.0507
     44 H           0.7525   -2.3496    0.3795 H       1  UNL1        0.0507
     45 H          -1.2128    0.3612    1.9218 H       1  UNL1        0.0815
     46 H          -4.4793    1.3612    3.3313 H       1  UNL1        0.0852
     47 H          -5.1368   -3.1809    1.5889 H       1  UNL1        0.0654
     48 H          -4.5534   -3.8345   -0.7030 H       1  UNL1        0.0619
     49 H          -3.5712   -2.1068   -2.1973 H       1  UNL1        0.0632
     50 H          -3.2103    0.2031   -1.3883 H       1  UNL1        0.0813
     51 H          -3.5264    5.5838    0.3176 H       1  UNL1        0.1581
     52 H          -0.9644    2.7367   -2.5168 H       1  UNL1        0.0624
     53 H           0.5932    1.9759   -4.2189 H       1  UNL1        0.0618
     54 H           2.0650    0.0106   -3.7510 H       1  UNL1        0.0621
     55 H           1.6729   -2.3623   -1.4952 H       1  UNL1        0.0515
     56 H           3.0091   -1.4320   -2.3882 H       1  UNL1        0.0515
@<TRIPOS>BOND
     1     1     2    1
     2     2     3    1
     3     2     4   am
     4     4     5    2
     5     4     6   am
     6     6     7    1
     7     7     8    1
     8     8     9    1
     9     9    10   ar
    10    10    11   ar
    11    11    12    1
    12    12    13    2
    13    13    14    1
    14    14    15   ar
    15    15    16   ar
    16    16    17   ar
    17    17    18   ar
    18    18    19   ar
    19    19    20   ar
    20    20    21   ar
    21    21    22   ar
    22    13    23    1
    23    23    24    2
    24    23    25   am
    25    25    26   am
    26    26    27    2
    27    11    28   ar
    28    28    29   ar
    29    29    30   ar
    30    30    31   ar
    31    31    32   ar
    32    32    33   ar
    33    32    34    1
    34    34     6    1
    35    33     9   ar
    36    26    12    1
    37    33    28   ar
    38    22    14   ar
    39    22    17   ar
    40     1    35    1
    41     1    36    1
    42     1    37    1
    43     3    38    1
    44     3    39    1
    45     3    40    1
    46     7    41    1
    47     7    42    1
    48     8    43    1
    49     8    44    1
    50    10    45    1
    51    15    46    1
    52    18    47    1
    53    19    48    1
    54    20    49    1
    55    21    50    1
    56    25    51    1
    57    29    52    1
    58    30    53    1
    59    31    54    1
    60    34    55    1
    61    34    56    1
