@<TRIPOS>MOLECULE
*****
 25 25 0 0 0
SMALL
GASTEIGER

@<TRIPOS>ATOM
      1 C          -1.3975    0.0587    0.5898 C.3     1  UNL1        0.0689
      2 C          -2.8335   -0.4535    0.4226 C.3     1  UNL1        0.0039
      3 S          -2.7756   -2.2299    0.7378 S.3     1  UNL1       -0.1774
      4 C          -0.5743   -0.6772   -0.4203 C.3     1  UNL1       -0.0140
      5 C           0.8632   -0.3187   -0.4187 C.ar    1  UNL1       -0.0466
      6 C           1.4243    0.6884   -1.1781 C.ar    1  UNL1       -0.0586
      7 C           2.7699    0.9950   -1.1512 C.ar    1  UNL1       -0.0615
      8 C           3.5987    0.2436   -0.3106 C.ar    1  UNL1       -0.0617
      9 C           3.0606   -0.7804    0.4685 C.ar    1  UNL1       -0.0615
     10 C           1.7147   -1.0552    0.4137 C.ar    1  UNL1       -0.0586
     11 C          -1.3579    1.5307    0.4281 C.2     1  UNL1        0.3089
     12 O          -1.7834    2.0792   -0.7867 O.3     1  UNL1       -0.4804
     13 O          -0.9952    2.4720    1.2098 O.2     1  UNL1       -0.2507
     14 H          -1.0973   -0.2218    1.6199 H       1  UNL1        0.0425
     15 H          -3.1333   -0.2703   -0.6325 H       1  UNL1        0.0382
     16 H          -3.5297    0.0580    1.1182 H       1  UNL1        0.0382
     17 H          -3.4873   -2.9711   -0.2168 H       1  UNL1        0.1017
     18 H          -0.6796   -1.7571   -0.1893 H       1  UNL1        0.0321
     19 H          -1.0181   -0.5332   -1.4263 H       1  UNL1        0.0321
     20 H           0.7674    1.2628   -1.8258 H       1  UNL1        0.0620
     21 H           3.2081    1.7744   -1.7379 H       1  UNL1        0.0618
     22 H           4.6572    0.4082   -0.2224 H       1  UNL1        0.0618
     23 H           3.6471   -1.3991    1.1396 H       1  UNL1        0.0618
     24 H           1.2797   -1.8585    1.0222 H       1  UNL1        0.0620
     25 H          -2.3281    2.9550   -0.8153 H       1  UNL1        0.2951
@<TRIPOS>BOND
     1     1     2    1
     2     2     3    1
     3     1     4    1
     4     4     5    1
     5     5     6   ar
     6     6     7   ar
     7     7     8   ar
     8     8     9   ar
     9     9    10   ar
    10     1    11    1
    11    11    12    1
    12    11    13    2
    13    10     5   ar
    14     1    14    1
    15     2    15    1
    16     2    16    1
    17     3    17    1
    18     4    18    1
    19     4    19    1
    20     6    20    1
    21     7    21    1
    22     8    22    1
    23     9    23    1
    24    10    24    1
    25    12    25    1
