@<TRIPOS>MOLECULE
*****
 38 39 0 0 0
SMALL
GASTEIGER

@<TRIPOS>ATOM
      1 C           1.6228    4.2785    0.8178 C.3     1  UNL1        0.0788
      2 O           2.0225    3.5913   -0.3299 O.3     1  UNL1       -0.4950
      3 C           1.9907    2.2157   -0.4897 C.ar    1  UNL1        0.1222
      4 C           2.4002    1.6121   -1.6474 C.ar    1  UNL1       -0.0164
      5 C           2.3739    0.2476   -1.8200 C.ar    1  UNL1       -0.0145
      6 C           1.9139   -0.5535   -0.7798 C.ar    1  UNL1        0.1466
      7 O           1.8752   -1.9292   -0.9221 O.3     1  UNL1       -0.4931
      8 C           2.2871   -2.5834   -2.0935 C.3     1  UNL1        0.0789
      9 C           1.4939    0.0198    0.3999 C.ar    1  UNL1        0.1501
     10 S           0.9217   -0.9665    1.7075 S.O2    1  UNL1        0.0623
     11 O           0.5151   -0.1213    2.8999 O.2     1  UNL1       -0.1529
     12 O           2.0419   -1.8522    2.2251 O.2     1  UNL1       -0.1529
     13 N          -0.4580   -1.9197    1.2937 N.3     1  UNL1       -0.1852
     14 C          -1.5081   -1.0325    0.9479 C.3     1  UNL1        0.0466
     15 C          -2.7669   -1.2230    1.7739 C.3     1  UNL1       -0.0179
     16 C          -3.7351   -0.3672    0.9849 C.3     1  UNL1        0.0235
     17 N          -3.2545   -0.4298   -0.4055 N.pl3   1  UNL1       -0.2679
     18 C          -3.8801    0.2163   -1.4396 C.1     1  UNL1        0.1690
     19 N          -4.4188    0.7989   -2.3523 N.1     1  UNL1       -0.1741
     20 C          -2.0637   -1.2599   -0.4508 C.3     1  UNL1        0.0389
     21 C           1.5381    1.3796    0.5257 C.ar    1  UNL1        0.0100
     22 H           1.8091    3.7257    1.7611 H       1  UNL1        0.0660
     23 H           2.1934    5.2371    0.9279 H       1  UNL1        0.0660
     24 H           0.5345    4.5266    0.7798 H       1  UNL1        0.0660
     25 H           2.7544    2.2643   -2.4420 H       1  UNL1        0.0655
     26 H           2.7099   -0.1648   -2.7552 H       1  UNL1        0.0656
     27 H           3.3105   -2.2536   -2.4036 H       1  UNL1        0.0660
     28 H           1.5678   -2.4581   -2.9261 H       1  UNL1        0.0660
     29 H           2.3532   -3.6751   -1.9028 H       1  UNL1        0.0660
     30 H          -0.2337   -2.6225    0.5394 H       1  UNL1        0.1484
     31 H          -1.2391    0.0402    1.0101 H       1  UNL1        0.0493
     32 H          -2.6563   -0.9125    2.8147 H       1  UNL1        0.0297
     33 H          -3.1204   -2.2762    1.6556 H       1  UNL1        0.0297
     34 H          -3.6095    0.6735    1.3477 H       1  UNL1        0.0472
     35 H          -4.7799   -0.7248    1.0564 H       1  UNL1        0.0472
     36 H          -1.3579   -0.9692   -1.2303 H       1  UNL1        0.0487
     37 H          -2.3572   -2.3452   -0.5227 H       1  UNL1        0.0487
     38 H           1.2095    1.8126    1.4444 H       1  UNL1        0.0675
@<TRIPOS>BOND
     1     1     2    1
     2     2     3    1
     3     3     4   ar
     4     4     5   ar
     5     5     6   ar
     6     6     7    1
     7     7     8    1
     8     6     9   ar
     9     9    10    1
    10    10    11    2
    11    10    12    2
    12    10    13    1
    13    13    14    1
    14    14    15    1
    15    15    16    1
    16    16    17    1
    17    17    18    1
    18    18    19    3
    19    17    20    1
    20     9    21   ar
    21    21     3   ar
    22    20    14    1
    23     1    22    1
    24     1    23    1
    25     1    24    1
    26     4    25    1
    27     5    26    1
    28     8    27    1
    29     8    28    1
    30     8    29    1
    31    13    30    1
    32    14    31    1
    33    15    32    1
    34    15    33    1
    35    16    34    1
    36    16    35    1
    37    20    36    1
    38    20    37    1
    39    21    38    1
