@<TRIPOS>MOLECULE
*****
 9 8 0 0 0
SMALL
GASTEIGER

@<TRIPOS>ATOM
      1 C          -0.9535    0.0478    0.0425 C.3     1  UNL1       -0.0418
      2 C           0.4879   -0.3215   -0.1890 C.3     1  UNL1        0.0414
      3 O           1.2770    0.3248    0.7377 O.3     1  UNL1       -0.3953
      4 H          -1.3570    0.7340   -0.7332 H       1  UNL1        0.0252
      5 H          -1.5933   -0.8626    0.0218 H       1  UNL1        0.0252
      6 H          -1.0710    0.5964    1.0112 H       1  UNL1        0.0252
      7 H           0.7874   -0.1406   -1.2358 H       1  UNL1        0.0554
      8 H           0.5900   -1.4261   -0.0440 H       1  UNL1        0.0554
      9 H           1.8325    1.0478    0.3890 H       1  UNL1        0.2094
@<TRIPOS>BOND
     1     1     2    1
     2     2     3    1
     3     1     4    1
     4     1     5    1
     5     1     6    1
     6     2     7    1
     7     2     8    1
     8     3     9    1
