
     RDKit          3D

 62 67  0  0  0  0  0  0  0  0999 V2000
    1.2409   -0.0937   -4.0113 C   0  0  0  0  0  0  0  0  0  0  0  0
    0.8080   -1.0625   -2.8994 C   0  0  2  0  0  0  0  0  0  0  0  0
    2.1642   -1.2681   -2.1016 C   0  0  0  0  0  0  0  0  0  0  0  0
    2.1103   -1.0089   -0.8149 C   0  0  0  0  0  0  0  0  0  0  0  0
    3.2639   -1.3871    0.1009 C   0  0  0  0  0  0  0  0  0  0  0  0
    3.1096   -0.8930    1.3652 C   0  0  0  0  0  0  0  0  0  0  0  0
    3.4023   -1.1194    2.6644 C   0  0  0  0  0  0  0  0  0  0  0  0
    4.1521   -2.3270    2.7241 F   0  0  0  0  0  0  0  0  0  0  0  0
    3.6148   -0.0548    3.5845 C   0  0  0  0  0  0  0  0  0  0  0  0
    3.6953    1.2594    2.8969 C   0  0  0  0  0  0  0  0  0  0  0  0
    3.9518    2.3426    3.5633 C   0  0  0  0  0  0  0  0  0  0  0  0
    4.1614    2.4500    4.8582 C   0  0  0  0  0  0  0  0  0  0  0  0
    4.4467    3.7437    5.4911 C   0  0  0  0  0  0  0  0  0  0  0  0
    4.6491    4.7036    5.9412 N   0  0  0  0  0  0  0  0  0  0  0  0
    4.1148    1.2213    5.5878 C   0  0  0  0  0  0  0  0  0  0  0  0
    3.8389    0.0822    4.8735 N   0  0  0  0  0  0  0  0  0  0  0  0
    4.1788   -1.9485   -0.6853 C   0  0  0  0  0  0  0  0  0  0  0  0
    4.2797   -2.2152   -1.9534 N   0  0  0  0  0  0  0  0  0  0  0  0
    3.1833   -1.8301   -2.6877 C   0  0  0  0  0  0  0  0  0  0  0  0
    3.2807   -1.9885   -4.0627 F   0  0  0  0  0  0  0  0  0  0  0  0
    0.5006   -2.3396   -3.3559 N   0  0  0  0  0  0  0  0  0  0  0  0
   -0.5462   -3.0004   -3.4687 C   0  0  0  0  0  0  0  0  0  0  0  0
   -0.5954   -4.3266   -3.9890 N   0  0  0  0  0  0  0  0  0  0  0  0
   -2.0922   -2.2389   -2.9277 S   0  0  0  0  0  0  0  0  0  0  0  0
   -1.5874   -0.8642   -1.9195 C   0  0  1  0  0  0  0  0  0  0  0  0
   -2.7146    0.0961   -1.6733 C   0  0  0  0  0  0  0  0  0  0  0  0
   -2.9451    0.7175   -2.8307 O   0  0  0  0  0  0  0  0  0  0  0  0
   -3.4656    0.4329   -0.6022 N   0  0  0  0  0  0  0  0  0  0  0  0
   -4.5573    1.4136   -0.8257 C   0  0  1  0  0  0  0  0  0  0  0  0
   -5.6400    1.3321    0.1583 C   0  0  0  0  0  0  0  0  0  0  0  0
   -5.7413    0.2575    0.9797 O   0  0  0  0  0  0  0  0  0  0  0  0
   -4.5991   -0.3238    1.4016 C   0  0  0  0  0  0  0  0  0  0  0  0
   -3.3140    0.1141    0.7777 C   0  0  2  0  0  0  0  0  0  0  0  0
   -3.0026    1.5375    1.3726 C   0  0  0  0  0  0  0  0  0  0  0  0
   -2.6659    2.4293    0.3108 O   0  0  0  0  0  0  0  0  0  0  0  0
   -3.7353    2.7390   -0.5227 C   0  0  0  0  0  0  0  0  0  0  0  0
   -0.5920   -1.0064   -0.8003 C   0  0  0  0  0  0  0  0  0  0  0  0
   -0.1831   -0.3865   -2.0534 C   0  0  1  0  0  0  0  0  0  0  0  0
    1.4442   -0.6456   -4.9684 H   0  0  0  0  0  0  0  0  0  0  0  0
    2.2160    0.3025   -3.6761 H   0  0  0  0  0  0  0  0  0  0  0  0
    0.4953    0.7106   -4.1137 H   0  0  0  0  0  0  0  0  0  0  0  0
    1.3437   -0.4399   -0.3506 H   0  0  0  0  0  0  0  0  0  0  0  0
    2.3545    0.0477    1.4330 H   0  0  0  0  0  0  0  0  0  0  0  0
    3.5367    1.2560    1.8373 H   0  0  0  0  0  0  0  0  0  0  0  0
    4.0458    3.3009    2.9075 H   0  0  0  0  0  0  0  0  0  0  0  0
    4.2995    1.2230    6.6297 H   0  0  0  0  0  0  0  0  0  0  0  0
    5.1181   -2.2825   -0.0501 H   0  0  0  0  0  0  0  0  0  0  0  0
   -1.5316   -4.8570   -3.9479 H   0  0  0  0  0  0  0  0  0  0  0  0
    0.2300   -4.7511   -4.3908 H   0  0  0  0  0  0  0  0  0  0  0  0
   -4.8638    1.3782   -1.8656 H   0  0  0  0  0  0  0  0  0  0  0  0
   -6.6231    1.3341   -0.4492 H   0  0  0  0  0  0  0  0  0  0  0  0
   -5.7828    2.3277    0.7231 H   0  0  0  0  0  0  0  0  0  0  0  0
   -4.4610   -0.3376    2.5313 H   0  0  0  0  0  0  0  0  0  0  0  0
   -4.7051   -1.4457    1.1849 H   0  0  0  0  0  0  0  0  0  0  0  0
   -2.5353   -0.5902    1.0754 H   0  0  0  0  0  0  0  0  0  0  0  0
   -3.8313    1.9030    1.9728 H   0  0  0  0  0  0  0  0  0  0  0  0
   -2.0988    1.4239    1.9738 H   0  0  0  0  0  0  0  0  0  0  0  0
   -4.4092    3.5077   -0.1728 H   0  0  0  0  0  0  0  0  0  0  0  0
   -3.3227    3.0244   -1.5093 H   0  0  0  0  0  0  0  0  0  0  0  0
   -0.3386   -2.0074   -0.4849 H   0  0  0  0  0  0  0  0  0  0  0  0
   -0.7232   -0.3160    0.0845 H   0  0  0  0  0  0  0  0  0  0  0  0
   -0.0276    0.7440   -2.0271 H   0  0  0  0  0  0  0  0  0  0  0  0
  2  1  1  6
  2  3  1  0
  3  4  2  0
  4  5  1  0
  5  6  1  0
  6  7  2  0
  7  8  1  0
  7  9  1  0
  9 10  2  0
 10 11  1  0
 11 12  2  0
 12 13  1  0
 13 14  3  0
 12 15  1  0
 15 16  2  0
  5 17  2  0
 17 18  1  0
 18 19  2  0
 19 20  1  0
  2 21  1  0
 21 22  2  0
 22 23  1  0
 22 24  1  0
 24 25  1  0
 25 26  1  1
 26 27  2  0
 26 28  1  0
 28 29  1  0
 29 30  1  0
 30 31  1  0
 31 32  1  0
 32 33  1  0
 33 34  1  0
 34 35  1  0
 35 36  1  0
 25 37  1  0
 37 38  1  0
 38  2  1  0
 19  3  1  0
 38 25  1  0
 16  9  1  0
 33 28  1  0
 36 29  1  0
  1 39  1  0
  1 40  1  0
  1 41  1  0
  4 42  1  0
  6 43  1  0
 10 44  1  0
 11 45  1  0
 15 46  1  0
 17 47  1  0
 23 48  1  0
 23 49  1  0
 29 50  1  6
 30 51  1  0
 30 52  1  0
 32 53  1  0
 32 54  1  0
 33 55  1  6
 34 56  1  0
 34 57  1  0
 36 58  1  0
 36 59  1  0
 37 60  1  0
 37 61  1  0
 38 62  1  1
M  END
$$$$
