@<TRIPOS>MOLECULE
*****
 62 67 0 0 0
SMALL
GASTEIGER

@<TRIPOS>ATOM
      1 C           1.2409   -0.0937   -4.0113 C.3     1  UNL1       -0.0351
      2 C           0.8080   -1.0625   -2.8994 C.3     1  UNL1        0.0950
      3 C           2.1642   -1.2681   -2.1016 C.ar    1  UNL1        0.0349
      4 C           2.1103   -1.0089   -0.8149 C.ar    1  UNL1       -0.0433
      5 C           3.2639   -1.3871    0.1009 C.ar    1  UNL1       -0.0036
      6 C           3.1096   -0.8930    1.3652 C.2     1  UNL1       -0.0157
      7 C           3.4023   -1.1194    2.6644 C.2     1  UNL1        0.1492
      8 F           4.1521   -2.3270    2.7241 F       1  UNL1       -0.2032
      9 C           3.6148   -0.0548    3.5845 C.ar    1  UNL1        0.0990
     10 C           3.6953    1.2594    2.8969 C.ar    1  UNL1       -0.0322
     11 C           3.9518    2.3426    3.5633 C.ar    1  UNL1       -0.0408
     12 C           4.1614    2.4500    4.8582 C.ar    1  UNL1        0.0699
     13 C           4.4467    3.7437    5.4911 C.1     1  UNL1        0.1007
     14 N           4.6491    4.7036    5.9412 N.1     1  UNL1       -0.1908
     15 C           4.1148    1.2213    5.5878 C.ar    1  UNL1        0.0457
     16 N           3.8389    0.0822    4.8735 N.ar    1  UNL1       -0.2514
     17 C           4.1788   -1.9485   -0.6853 C.ar    1  UNL1        0.0379
     18 N           4.2797   -2.2152   -1.9534 N.ar    1  UNL1       -0.2267
     19 C           3.1833   -1.8301   -2.6877 C.ar    1  UNL1        0.2187
     20 F           3.2807   -1.9885   -4.0627 F       1  UNL1       -0.1835
     21 N           0.5006   -2.3396   -3.3559 N.2     1  UNL1       -0.2520
     22 C          -0.5462   -3.0004   -3.4687 C.2     1  UNL1        0.1485
     23 N          -0.5954   -4.3266   -3.9890 N.pl3   1  UNL1       -0.3380
     24 S          -2.0922   -2.2389   -2.9277 S.3     1  UNL1       -0.0746
     25 C          -1.5874   -0.8642   -1.9195 C.3     1  UNL1        0.1054
     26 C          -2.7146    0.0961   -1.6733 C.2     1  UNL1        0.2332
     27 O          -2.9451    0.7175   -2.8307 O.2     1  UNL1       -0.2740
     28 N          -3.4656    0.4329   -0.6022 N.am    1  UNL1       -0.2854
     29 C          -4.5573    1.4136   -0.8257 C.3     1  UNL1        0.0731
     30 C          -5.6400    1.3321    0.1583 C.3     1  UNL1        0.0685
     31 O          -5.7413    0.2575    0.9797 O.3     1  UNL1       -0.3759
     32 C          -4.5991   -0.3238    1.4016 C.3     1  UNL1        0.0685
     33 C          -3.3140    0.1141    0.7777 C.3     1  UNL1        0.0731
     34 C          -3.0026    1.5375    1.3726 C.3     1  UNL1        0.0685
     35 O          -2.6659    2.4293    0.3108 O.3     1  UNL1       -0.3759
     36 C          -3.7353    2.7390   -0.5227 C.3     1  UNL1        0.0685
     37 C          -0.5920   -1.0064   -0.8003 C.3     1  UNL1       -0.0220
     38 C          -0.1831   -0.3865   -2.0534 C.3     1  UNL1        0.0135
     39 H           1.4442   -0.6456   -4.9684 H       1  UNL1        0.0256
     40 H           2.2160    0.3025   -3.6761 H       1  UNL1        0.0256
     41 H           0.4953    0.7106   -4.1137 H       1  UNL1        0.0256
     42 H           1.3437   -0.4399   -0.3506 H       1  UNL1        0.0629
     43 H           2.3545    0.0477    1.4330 H       1  UNL1        0.0653
     44 H           3.5367    1.2560    1.8373 H       1  UNL1        0.0640
     45 H           4.0458    3.3009    2.9075 H       1  UNL1        0.0631
     46 H           4.2995    1.2230    6.6297 H       1  UNL1        0.0843
     47 H           5.1181   -2.2825   -0.0501 H       1  UNL1        0.0836
     48 H          -1.5316   -4.8570   -3.9479 H       1  UNL1        0.1442
     49 H           0.2300   -4.7511   -4.3908 H       1  UNL1        0.1442
     50 H          -4.8638    1.3782   -1.8656 H       1  UNL1        0.0546
     51 H          -6.6231    1.3341   -0.4492 H       1  UNL1        0.0579
     52 H          -5.7828    2.3277    0.7231 H       1  UNL1        0.0579
     53 H          -4.4610   -0.3376    2.5313 H       1  UNL1        0.0579
     54 H          -4.7051   -1.4457    1.1849 H       1  UNL1        0.0579
     55 H          -2.5353   -0.5902    1.0754 H       1  UNL1        0.0546
     56 H          -3.8313    1.9030    1.9728 H       1  UNL1        0.0579
     57 H          -2.0988    1.4239    1.9738 H       1  UNL1        0.0579
     58 H          -4.4092    3.5077   -0.1728 H       1  UNL1        0.0579
     59 H          -3.3227    3.0244   -1.5093 H       1  UNL1        0.0579
     60 H          -0.3386   -2.0074   -0.4849 H       1  UNL1        0.0287
     61 H          -0.7232   -0.3160    0.0845 H       1  UNL1        0.0287
     62 H          -0.0276    0.7440   -2.0271 H       1  UNL1        0.0346
@<TRIPOS>BOND
     1     2     1    1
     2     2     3    1
     3     3     4   ar
     4     4     5   ar
     5     5     6    1
     6     6     7    2
     7     7     8    1
     8     7     9    1
     9     9    10   ar
    10    10    11   ar
    11    11    12   ar
    12    12    13    1
    13    13    14    3
    14    12    15   ar
    15    15    16   ar
    16     5    17   ar
    17    17    18   ar
    18    18    19   ar
    19    19    20    1
    20     2    21    1
    21    21    22    2
    22    22    23    1
    23    22    24    1
    24    24    25    1
    25    25    26    1
    26    26    27    2
    27    26    28   am
    28    28    29    1
    29    29    30    1
    30    30    31    1
    31    31    32    1
    32    32    33    1
    33    33    34    1
    34    34    35    1
    35    35    36    1
    36    25    37    1
    37    37    38    1
    38    38     2    1
    39    19     3   ar
    40    38    25    1
    41    16     9   ar
    42    33    28    1
    43    36    29    1
    44     1    39    1
    45     1    40    1
    46     1    41    1
    47     4    42    1
    48     6    43    1
    49    10    44    1
    50    11    45    1
    51    15    46    1
    52    17    47    1
    53    23    48    1
    54    23    49    1
    55    29    50    1
    56    30    51    1
    57    30    52    1
    58    32    53    1
    59    32    54    1
    60    33    55    1
    61    34    56    1
    62    34    57    1
    63    36    58    1
    64    36    59    1
    65    37    60    1
    66    37    61    1
    67    38    62    1
