@<TRIPOS>MOLECULE
*****
 46 50 0 0 0
SMALL
GASTEIGER

@<TRIPOS>ATOM
      1 C           5.7572    1.2222   -2.6584 C.3     1  UNL1        0.0124
      2 C           4.5017    0.7003   -3.2770 C.2     1  UNL1        0.2126
      3 O           4.5765    0.3288   -4.4747 O.2     1  UNL1       -0.2759
      4 N           3.2869    0.6182   -2.5780 N.am    1  UNL1       -0.2977
      5 C           2.8676    0.9523   -1.2405 C.3     1  UNL1        0.0370
      6 C           1.4499    0.4703   -1.5287 C.3     1  UNL1        0.0674
      7 N           1.1076   -0.6595   -0.6875 N.ar    1  UNL1       -0.3222
      8 C           1.8407   -1.7605   -0.4457 C.ar    1  UNL1        0.0975
      9 N           1.1579   -2.5821    0.4055 N.ar    1  UNL1       -0.2351
     10 C          -0.0160   -1.9700    0.6890 C.ar    1  UNL1        0.0982
     11 C          -1.0815   -2.4615    1.5560 C.ar    1  UNL1        0.0027
     12 C          -1.4506   -1.7724    2.6880 C.ar    1  UNL1       -0.0498
     13 C          -2.4548   -2.2367    3.5026 C.ar    1  UNL1       -0.0258
     14 C          -3.1046   -3.4076    3.1866 C.ar    1  UNL1        0.1234
     15 F          -4.1078   -3.8687    4.0032 F       1  UNL1       -0.2055
     16 C          -2.7631   -4.1210    2.0656 C.ar    1  UNL1       -0.0258
     17 C          -1.7481   -3.6298    1.2635 C.ar    1  UNL1       -0.0498
     18 C          -0.0401   -0.7640   -0.0007 C.ar    1  UNL1        0.0969
     19 C          -1.1360    0.1845    0.0448 C.ar    1  UNL1        0.1103
     20 C          -2.4112   -0.1500   -0.3987 C.ar    1  UNL1       -0.0290
     21 C          -3.4684    0.7255   -0.3677 C.ar    1  UNL1       -0.0153
     22 C          -3.2375    1.9885    0.1281 C.ar    1  UNL1        0.1555
     23 N          -4.0660    3.0275    0.2740 N.ar    1  UNL1       -0.2333
     24 C          -3.3787    4.0488    0.8034 C.ar    1  UNL1        0.0659
     25 C          -2.0915    3.5829    0.9733 C.ar    1  UNL1        0.1618
     26 C          -1.0358    4.3985    1.5261 C.1     1  UNL1        0.1208
     27 N          -0.1917    5.0294    1.9561 N.1     1  UNL1       -0.1892
     28 N          -1.9985    2.3076    0.5569 N.ar    1  UNL1       -0.2023
     29 N          -0.9958    1.4419    0.5156 N.ar    1  UNL1       -0.1623
     30 C           1.9543    0.1646   -2.8992 C.3     1  UNL1        0.0370
     31 H           5.5317    2.1138   -2.0300 H       1  UNL1        0.0323
     32 H           6.2073    0.4730   -1.9701 H       1  UNL1        0.0323
     33 H           6.4847    1.5320   -3.4343 H       1  UNL1        0.0323
     34 H           3.3878    0.3249   -0.4927 H       1  UNL1        0.0485
     35 H           2.9453    2.0163   -0.9564 H       1  UNL1        0.0485
     36 H           0.7580    1.3250   -1.4630 H       1  UNL1        0.0559
     37 H           2.8269   -1.9522   -0.8723 H       1  UNL1        0.1029
     38 H          -0.9720   -0.8405    2.9884 H       1  UNL1        0.0625
     39 H          -2.7844   -1.7288    4.4094 H       1  UNL1        0.0646
     40 H          -3.2688   -5.0452    1.8071 H       1  UNL1        0.0646
     41 H          -1.5135   -4.2329    0.3841 H       1  UNL1        0.0625
     42 H          -2.5078   -1.1707   -0.7761 H       1  UNL1        0.0641
     43 H          -4.4371    0.4233   -0.7205 H       1  UNL1        0.0655
     44 H          -3.8172    5.0010    1.0193 H       1  UNL1        0.0859
     45 H           1.5156    0.8478   -3.6630 H       1  UNL1        0.0485
     46 H           1.9213   -0.8948   -3.2248 H       1  UNL1        0.0485
@<TRIPOS>BOND
     1     1     2    1
     2     2     3    2
     3     2     4   am
     4     4     5    1
     5     5     6    1
     6     6     7    1
     7     7     8   ar
     8     8     9   ar
     9     9    10   ar
    10    10    11    1
    11    11    12   ar
    12    12    13   ar
    13    13    14   ar
    14    14    15    1
    15    14    16   ar
    16    16    17   ar
    17    10    18   ar
    18    18    19    1
    19    19    20   ar
    20    20    21   ar
    21    21    22   ar
    22    22    23   ar
    23    23    24   ar
    24    24    25   ar
    25    25    26    1
    26    26    27    3
    27    25    28   ar
    28    28    29   ar
    29     6    30    1
    30    30     4    1
    31    18     7   ar
    32    29    19   ar
    33    17    11   ar
    34    28    22   ar
    35     1    31    1
    36     1    32    1
    37     1    33    1
    38     5    34    1
    39     5    35    1
    40     6    36    1
    41     8    37    1
    42    12    38    1
    43    13    39    1
    44    16    40    1
    45    17    41    1
    46    20    42    1
    47    21    43    1
    48    24    44    1
    49    30    45    1
    50    30    46    1
