
     RDKit          3D

 46 50  0  0  0  0  0  0  0  0999 V2000
    5.7572    1.2222   -2.6584 C   0  0  0  0  0  0  0  0  0  0  0  0
    4.5017    0.7003   -3.2770 C   0  0  0  0  0  0  0  0  0  0  0  0
    4.5765    0.3288   -4.4747 O   0  0  0  0  0  0  0  0  0  0  0  0
    3.2869    0.6182   -2.5780 N   0  0  0  0  0  0  0  0  0  0  0  0
    2.8676    0.9523   -1.2405 C   0  0  0  0  0  0  0  0  0  0  0  0
    1.4499    0.4703   -1.5287 C   0  0  0  0  0  0  0  0  0  0  0  0
    1.1076   -0.6595   -0.6875 N   0  0  0  0  0  0  0  0  0  0  0  0
    1.8407   -1.7605   -0.4457 C   0  0  0  0  0  0  0  0  0  0  0  0
    1.1579   -2.5821    0.4055 N   0  0  0  0  0  0  0  0  0  0  0  0
   -0.0160   -1.9700    0.6890 C   0  0  0  0  0  0  0  0  0  0  0  0
   -1.0815   -2.4615    1.5560 C   0  0  0  0  0  0  0  0  0  0  0  0
   -1.4506   -1.7724    2.6880 C   0  0  0  0  0  0  0  0  0  0  0  0
   -2.4548   -2.2367    3.5026 C   0  0  0  0  0  0  0  0  0  0  0  0
   -3.1046   -3.4076    3.1866 C   0  0  0  0  0  0  0  0  0  0  0  0
   -4.1078   -3.8687    4.0032 F   0  0  0  0  0  0  0  0  0  0  0  0
   -2.7631   -4.1210    2.0656 C   0  0  0  0  0  0  0  0  0  0  0  0
   -1.7481   -3.6298    1.2635 C   0  0  0  0  0  0  0  0  0  0  0  0
   -0.0401   -0.7640   -0.0007 C   0  0  0  0  0  0  0  0  0  0  0  0
   -1.1360    0.1845    0.0448 C   0  0  0  0  0  0  0  0  0  0  0  0
   -2.4112   -0.1500   -0.3987 C   0  0  0  0  0  0  0  0  0  0  0  0
   -3.4684    0.7255   -0.3677 C   0  0  0  0  0  0  0  0  0  0  0  0
   -3.2375    1.9885    0.1281 C   0  0  0  0  0  0  0  0  0  0  0  0
   -4.0660    3.0275    0.2740 N   0  0  0  0  0  0  0  0  0  0  0  0
   -3.3787    4.0488    0.8034 C   0  0  0  0  0  0  0  0  0  0  0  0
   -2.0915    3.5829    0.9733 C   0  0  0  0  0  0  0  0  0  0  0  0
   -1.0358    4.3985    1.5261 C   0  0  0  0  0  0  0  0  0  0  0  0
   -0.1917    5.0294    1.9561 N   0  0  0  0  0  0  0  0  0  0  0  0
   -1.9985    2.3076    0.5569 N   0  0  0  0  0  0  0  0  0  0  0  0
   -0.9958    1.4419    0.5156 N   0  0  0  0  0  0  0  0  0  0  0  0
    1.9543    0.1646   -2.8992 C   0  0  0  0  0  0  0  0  0  0  0  0
    5.5317    2.1138   -2.0300 H   0  0  0  0  0  0  0  0  0  0  0  0
    6.2073    0.4730   -1.9701 H   0  0  0  0  0  0  0  0  0  0  0  0
    6.4847    1.5320   -3.4343 H   0  0  0  0  0  0  0  0  0  0  0  0
    3.3878    0.3249   -0.4927 H   0  0  0  0  0  0  0  0  0  0  0  0
    2.9453    2.0163   -0.9564 H   0  0  0  0  0  0  0  0  0  0  0  0
    0.7580    1.3250   -1.4630 H   0  0  0  0  0  0  0  0  0  0  0  0
    2.8269   -1.9522   -0.8723 H   0  0  0  0  0  0  0  0  0  0  0  0
   -0.9720   -0.8405    2.9884 H   0  0  0  0  0  0  0  0  0  0  0  0
   -2.7844   -1.7288    4.4094 H   0  0  0  0  0  0  0  0  0  0  0  0
   -3.2688   -5.0452    1.8071 H   0  0  0  0  0  0  0  0  0  0  0  0
   -1.5135   -4.2329    0.3841 H   0  0  0  0  0  0  0  0  0  0  0  0
   -2.5078   -1.1707   -0.7761 H   0  0  0  0  0  0  0  0  0  0  0  0
   -4.4371    0.4233   -0.7205 H   0  0  0  0  0  0  0  0  0  0  0  0
   -3.8172    5.0010    1.0193 H   0  0  0  0  0  0  0  0  0  0  0  0
    1.5156    0.8478   -3.6630 H   0  0  0  0  0  0  0  0  0  0  0  0
    1.9213   -0.8948   -3.2248 H   0  0  0  0  0  0  0  0  0  0  0  0
  1  2  1  0
  2  3  2  0
  2  4  1  0
  4  5  1  0
  5  6  1  0
  6  7  1  0
  7  8  1  0
  8  9  2  0
  9 10  1  0
 10 11  1  0
 11 12  2  0
 12 13  1  0
 13 14  2  0
 14 15  1  0
 14 16  1  0
 16 17  2  0
 10 18  2  0
 18 19  1  0
 19 20  1  0
 20 21  2  0
 21 22  1  0
 22 23  2  0
 23 24  1  0
 24 25  2  0
 25 26  1  0
 26 27  3  0
 25 28  1  0
 28 29  1  0
  6 30  1  0
 30  4  1  0
 18  7  1  0
 29 19  2  0
 17 11  1  0
 28 22  1  0
  1 31  1  0
  1 32  1  0
  1 33  1  0
  5 34  1  0
  5 35  1  0
  6 36  1  0
  8 37  1  0
 12 38  1  0
 13 39  1  0
 16 40  1  0
 17 41  1  0
 20 42  1  0
 21 43  1  0
 24 44  1  0
 30 45  1  0
 30 46  1  0
M  END
$$$$
