
     RDKit          3D

 73 80  0  0  0  0  0  0  0  0999 V2000
   -9.4221    5.8065    2.5897 S   0  0  0  0  0  0  0  0  0  0  0  0
   -8.7531    4.5813    1.7440 C   0  0  0  0  0  0  0  0  0  0  0  0
   -9.3160    3.8802    0.7425 N   0  0  0  0  0  0  0  0  0  0  0  0
   -8.4651    2.9658    0.3031 N   0  0  0  0  0  0  0  0  0  0  0  0
   -7.3427    3.0520    1.0020 C   0  0  0  0  0  0  0  0  0  0  0  0
   -6.1766    2.3268    0.9216 C   0  0  0  0  0  0  0  0  0  0  0  0
   -5.9779    1.3033    0.0168 C   0  0  0  0  0  0  0  0  0  0  0  0
   -4.7729    0.6022   -0.0193 C   0  0  0  0  0  0  0  0  0  0  0  0
   -4.5431   -0.4645   -0.9597 C   0  0  0  0  0  0  0  0  0  0  0  0
   -5.3159   -1.5969   -0.9332 C   0  0  0  0  0  0  0  0  0  0  0  0
   -5.1306   -2.6410   -1.8216 C   0  0  0  0  0  0  0  0  0  0  0  0
   -4.1298   -2.5443   -2.7739 C   0  0  0  0  0  0  0  0  0  0  0  0
   -3.3389   -1.4150   -2.8207 C   0  0  0  0  0  0  0  0  0  0  0  0
   -3.5520   -0.3731   -1.9057 C   0  0  0  0  0  0  0  0  0  0  0  0
   -3.8001    0.9541    0.8604 C   0  0  0  0  0  0  0  0  0  0  0  0
   -2.4916    0.3112    0.9480 C   0  0  0  0  0  0  0  0  0  0  0  0
   -2.3487   -0.9895    1.3801 C   0  0  0  0  0  0  0  0  0  0  0  0
   -1.1031   -1.5856    1.4564 C   0  0  0  0  0  0  0  0  0  0  0  0
    0.0648   -0.9061    1.1023 C   0  0  0  0  0  0  0  0  0  0  0  0
    1.3797   -1.5807    1.2223 C   0  0  0  0  0  0  0  0  0  0  0  0
    1.7701   -2.3828    0.1239 N   0  0  0  0  0  0  0  0  0  0  0  0
    3.0677   -2.9377    0.3494 C   0  0  0  0  0  0  0  0  0  0  0  0
    3.7970   -3.3150   -0.8948 C   0  0  0  0  0  0  0  0  0  0  0  0
    3.9410   -2.2162   -1.9067 C   0  0  0  0  0  0  0  0  0  0  0  0
    5.3233   -1.6396   -1.8600 C   0  0  0  0  0  0  0  0  0  0  0  0
    6.2729   -1.6841   -2.8076 N   0  0  0  0  0  0  0  0  0  0  0  0
    7.3543   -1.0717   -2.4234 N   0  0  0  0  0  0  0  0  0  0  0  0
    7.1398   -0.5891   -1.1665 C   0  0  0  0  0  0  0  0  0  0  0  0
    8.0836    0.1678   -0.3524 C   0  0  0  0  0  0  0  0  0  0  0  0
    9.3475    0.4575   -0.8249 C   0  0  0  0  0  0  0  0  0  0  0  0
   10.2624    1.1713   -0.0686 C   0  0  0  0  0  0  0  0  0  0  0  0
    9.9021    1.6029    1.1859 C   0  0  0  0  0  0  0  0  0  0  0  0
    8.6377    1.3047    1.6403 C   0  0  0  0  0  0  0  0  0  0  0  0
    7.7619    0.6019    0.8743 N   0  0  0  0  0  0  0  0  0  0  0  0
    5.8990   -0.9464   -0.8452 N   0  0  0  0  0  0  0  0  0  0  0  0
    2.9853   -1.1159   -1.5868 C   0  0  0  0  0  0  0  0  0  0  0  0
    1.6579   -1.6879   -1.1184 C   0  0  0  0  0  0  0  0  0  0  0  0
   -0.0926    0.3948    0.6716 C   0  0  0  0  0  0  0  0  0  0  0  0
   -1.3409    0.9871    0.5970 C   0  0  0  0  0  0  0  0  0  0  0  0
   -4.0324    1.9685    1.7378 N   0  0  0  0  0  0  0  0  0  0  0  0
   -5.1637    2.6547    1.7995 C   0  0  0  0  0  0  0  0  0  0  0  0
   -5.3596    3.6909    2.7178 C   0  0  0  0  0  0  0  0  0  0  0  0
   -6.5446    4.3805    2.7526 C   0  0  0  0  0  0  0  0  0  0  0  0
   -7.5148    4.0565    1.9020 N   0  0  0  0  0  0  0  0  0  0  0  0
  -10.2897    4.0748    0.4026 H   0  0  0  0  0  0  0  0  0  0  0  0
   -6.7717    1.0402   -0.6770 H   0  0  0  0  0  0  0  0  0  0  0  0
   -6.0973   -1.6740   -0.1904 H   0  0  0  0  0  0  0  0  0  0  0  0
   -5.7435   -3.5271   -1.7923 H   0  0  0  0  0  0  0  0  0  0  0  0
   -3.9648   -3.3489   -3.4817 H   0  0  0  0  0  0  0  0  0  0  0  0
   -2.5720   -1.3637   -3.5665 H   0  0  0  0  0  0  0  0  0  0  0  0
   -2.8968    0.4814   -1.9986 H   0  0  0  0  0  0  0  0  0  0  0  0
   -3.2457   -1.5381    1.6611 H   0  0  0  0  0  0  0  0  0  0  0  0
   -0.9847   -2.6066    1.7951 H   0  0  0  0  0  0  0  0  0  0  0  0
    1.3329   -2.2220    2.1338 H   0  0  0  0  0  0  0  0  0  0  0  0
    2.1794   -0.8206    1.4798 H   0  0  0  0  0  0  0  0  0  0  0  0
    2.9468   -3.8579    0.9566 H   0  0  0  0  0  0  0  0  0  0  0  0
    3.7116   -2.1910    0.8942 H   0  0  0  0  0  0  0  0  0  0  0  0
    3.2946   -4.1749   -1.4121 H   0  0  0  0  0  0  0  0  0  0  0  0
    4.8030   -3.6955   -0.5915 H   0  0  0  0  0  0  0  0  0  0  0  0
    3.8090   -2.6078   -2.9470 H   0  0  0  0  0  0  0  0  0  0  0  0
    9.6920    0.1429   -1.8112 H   0  0  0  0  0  0  0  0  0  0  0  0
   11.2525    1.4043   -0.4218 H   0  0  0  0  0  0  0  0  0  0  0  0
   10.5981    2.1696    1.8124 H   0  0  0  0  0  0  0  0  0  0  0  0
    8.3621    1.6526    2.6381 H   0  0  0  0  0  0  0  0  0  0  0  0
    5.4209   -0.7286    0.0627 H   0  0  0  0  0  0  0  0  0  0  0  0
    2.7577   -0.5816   -2.5331 H   0  0  0  0  0  0  0  0  0  0  0  0
    3.4029   -0.4119   -0.8691 H   0  0  0  0  0  0  0  0  0  0  0  0
    1.3375   -2.3755   -1.9547 H   0  0  0  0  0  0  0  0  0  0  0  0
    0.9317   -0.8562   -1.1403 H   0  0  0  0  0  0  0  0  0  0  0  0
    0.7937    0.9613    0.3887 H   0  0  0  0  0  0  0  0  0  0  0  0
   -1.4572    2.0149    0.2561 H   0  0  0  0  0  0  0  0  0  0  0  0
   -4.5482    3.9089    3.3780 H   0  0  0  0  0  0  0  0  0  0  0  0
   -6.6741    5.1915    3.4849 H   0  0  0  0  0  0  0  0  0  0  0  0
  1  2  2  0
  2  3  1  0
  3  4  1  0
  4  5  2  0
  5  6  1  0
  6  7  2  0
  7  8  1  0
  8  9  1  0
  9 10  2  0
 10 11  1  0
 11 12  2  0
 12 13  1  0
 13 14  2  0
  8 15  2  0
 15 16  1  0
 16 17  2  0
 17 18  1  0
 18 19  2  0
 19 20  1  0
 20 21  1  0
 21 22  1  0
 22 23  1  0
 23 24  1  0
 24 25  1  0
 25 26  2  0
 26 27  1  0
 27 28  2  0
 28 29  1  0
 29 30  2  0
 30 31  1  0
 31 32  2  0
 32 33  1  0
 33 34  2  0
 28 35  1  0
 24 36  1  0
 36 37  1  0
 19 38  1  0
 38 39  2  0
 15 40  1  0
 40 41  2  0
 41 42  1  0
 42 43  2  0
 43 44  1  0
 44  2  1  0
 44  5  1  0
 41  6  1  0
 14  9  1  0
 39 16  1  0
 37 21  1  0
 35 25  1  0
 34 29  1  0
  3 45  1  0
  7 46  1  0
 10 47  1  0
 11 48  1  0
 12 49  1  0
 13 50  1  0
 14 51  1  0
 17 52  1  0
 18 53  1  0
 20 54  1  0
 20 55  1  0
 22 56  1  0
 22 57  1  0
 23 58  1  0
 23 59  1  0
 24 60  1  0
 30 61  1  0
 31 62  1  0
 32 63  1  0
 33 64  1  0
 35 65  1  0
 36 66  1  0
 36 67  1  0
 37 68  1  0
 37 69  1  0
 38 70  1  0
 39 71  1  0
 42 72  1  0
 43 73  1  0
M  END
$$$$
