@<TRIPOS>MOLECULE
*****
 73 80 0 0 0
SMALL
GASTEIGER

@<TRIPOS>ATOM
      1 S          -9.4221    5.8065    2.5897 S.2     1  UNL1       -0.0111
      2 C          -8.7531    4.5813    1.7440 C.ar    1  UNL1        0.1799
      3 N          -9.3160    3.8802    0.7425 N.ar    1  UNL1       -0.2537
      4 N          -8.4651    2.9658    0.3031 N.ar    1  UNL1       -0.1529
      5 C          -7.3427    3.0520    1.0020 C.ar    1  UNL1        0.1687
      6 C          -6.1766    2.3268    0.9216 C.ar    1  UNL1        0.0455
      7 C          -5.9779    1.3033    0.0168 C.ar    1  UNL1       -0.0392
      8 C          -4.7729    0.6022   -0.0193 C.ar    1  UNL1        0.0088
      9 C          -4.5431   -0.4645   -0.9597 C.ar    1  UNL1       -0.0158
     10 C          -5.3159   -1.5969   -0.9332 C.ar    1  UNL1       -0.0540
     11 C          -5.1306   -2.6410   -1.8216 C.ar    1  UNL1       -0.0612
     12 C          -4.1298   -2.5443   -2.7739 C.ar    1  UNL1       -0.0617
     13 C          -3.3389   -1.4150   -2.8207 C.ar    1  UNL1       -0.0612
     14 C          -3.5520   -0.3731   -1.9057 C.ar    1  UNL1       -0.0540
     15 C          -3.8001    0.9541    0.8604 C.ar    1  UNL1        0.0794
     16 C          -2.4916    0.3112    0.9480 C.ar    1  UNL1        0.0010
     17 C          -2.3487   -0.9895    1.3801 C.ar    1  UNL1       -0.0522
     18 C          -1.1031   -1.5856    1.4564 C.ar    1  UNL1       -0.0567
     19 C           0.0648   -0.9061    1.1023 C.ar    1  UNL1       -0.0333
     20 C           1.3797   -1.5807    1.2223 C.3     1  UNL1        0.0240
     21 N           1.7701   -2.3828    0.1239 N.3     1  UNL1       -0.2981
     22 C           3.0677   -2.9377    0.3494 C.3     1  UNL1       -0.0001
     23 C           3.7970   -3.3150   -0.8948 C.3     1  UNL1       -0.0304
     24 C           3.9410   -2.2162   -1.9067 C.3     1  UNL1        0.0212
     25 C           5.3233   -1.6396   -1.8600 C.ar    1  UNL1        0.1344
     26 N           6.2729   -1.6841   -2.8076 N.ar    1  UNL1       -0.1339
     27 N           7.3543   -1.0717   -2.4234 N.ar    1  UNL1       -0.1278
     28 C           7.1398   -0.5891   -1.1665 C.ar    1  UNL1        0.1800
     29 C           8.0836    0.1678   -0.3524 C.ar    1  UNL1        0.1077
     30 C           9.3475    0.4575   -0.8249 C.ar    1  UNL1       -0.0326
     31 C          10.2624    1.1713   -0.0686 C.ar    1  UNL1       -0.0582
     32 C           9.9021    1.6029    1.1859 C.ar    1  UNL1       -0.0436
     33 C           8.6377    1.3047    1.6403 C.ar    1  UNL1        0.0284
     34 N           7.7619    0.6019    0.8743 N.ar    1  UNL1       -0.2519
     35 N           5.8990   -0.9464   -0.8452 N.ar    1  UNL1       -0.3237
     36 C           2.9853   -1.1159   -1.5868 C.3     1  UNL1       -0.0304
     37 C           1.6579   -1.6879   -1.1184 C.3     1  UNL1       -0.0001
     38 C          -0.0926    0.3948    0.6716 C.ar    1  UNL1       -0.0567
     39 C          -1.3409    0.9871    0.5970 C.ar    1  UNL1       -0.0522
     40 N          -4.0324    1.9685    1.7378 N.ar    1  UNL1       -0.2459
     41 C          -5.1637    2.6547    1.7995 C.ar    1  UNL1        0.0766
     42 C          -5.3596    3.6909    2.7178 C.ar    1  UNL1       -0.0190
     43 C          -6.5446    4.3805    2.7526 C.ar    1  UNL1        0.0157
     44 N          -7.5148    4.0565    1.9020 N.ar    1  UNL1       -0.2781
     45 H         -10.2897    4.0748    0.4026 H       1  UNL1        0.1911
     46 H          -6.7717    1.0402   -0.6770 H       1  UNL1        0.0632
     47 H          -6.0973   -1.6740   -0.1904 H       1  UNL1        0.0624
     48 H          -5.7435   -3.5271   -1.7923 H       1  UNL1        0.0618
     49 H          -3.9648   -3.3489   -3.4817 H       1  UNL1        0.0618
     50 H          -2.5720   -1.3637   -3.5665 H       1  UNL1        0.0618
     51 H          -2.8968    0.4814   -1.9986 H       1  UNL1        0.0624
     52 H          -3.2457   -1.5381    1.6611 H       1  UNL1        0.0624
     53 H          -0.9847   -2.6066    1.7951 H       1  UNL1        0.0621
     54 H           1.3329   -2.2220    2.1338 H       1  UNL1        0.0476
     55 H           2.1794   -0.8206    1.4798 H       1  UNL1        0.0476
     56 H           2.9468   -3.8579    0.9566 H       1  UNL1        0.0427
     57 H           3.7116   -2.1910    0.8942 H       1  UNL1        0.0427
     58 H           3.2946   -4.1749   -1.4121 H       1  UNL1        0.0284
     59 H           4.8030   -3.6955   -0.5915 H       1  UNL1        0.0284
     60 H           3.8090   -2.6078   -2.9470 H       1  UNL1        0.0380
     61 H           9.6920    0.1429   -1.8112 H       1  UNL1        0.0640
     62 H          11.2525    1.4043   -0.4218 H       1  UNL1        0.0619
     63 H          10.5981    2.1696    1.8124 H       1  UNL1        0.0633
     64 H           8.3621    1.6526    2.6381 H       1  UNL1        0.0830
     65 H           5.4209   -0.7286    0.0627 H       1  UNL1        0.1686
     66 H           2.7577   -0.5816   -2.5331 H       1  UNL1        0.0284
     67 H           3.4029   -0.4119   -0.8691 H       1  UNL1        0.0284
     68 H           1.3375   -2.3755   -1.9547 H       1  UNL1        0.0427
     69 H           0.9317   -0.8562   -1.1403 H       1  UNL1        0.0427
     70 H           0.7937    0.9613    0.3887 H       1  UNL1        0.0621
     71 H          -1.4572    2.0149    0.2561 H       1  UNL1        0.0624
     72 H          -4.5482    3.9089    3.3780 H       1  UNL1        0.0654
     73 H          -6.6741    5.1915    3.4849 H       1  UNL1        0.0815
@<TRIPOS>BOND
     1     1     2    2
     2     2     3   ar
     3     3     4   ar
     4     4     5   ar
     5     5     6   ar
     6     6     7   ar
     7     7     8   ar
     8     8     9    1
     9     9    10   ar
    10    10    11   ar
    11    11    12   ar
    12    12    13   ar
    13    13    14   ar
    14     8    15   ar
    15    15    16    1
    16    16    17   ar
    17    17    18   ar
    18    18    19   ar
    19    19    20    1
    20    20    21    1
    21    21    22    1
    22    22    23    1
    23    23    24    1
    24    24    25    1
    25    25    26   ar
    26    26    27   ar
    27    27    28   ar
    28    28    29    1
    29    29    30   ar
    30    30    31   ar
    31    31    32   ar
    32    32    33   ar
    33    33    34   ar
    34    28    35   ar
    35    24    36    1
    36    36    37    1
    37    19    38   ar
    38    38    39   ar
    39    15    40   ar
    40    40    41   ar
    41    41    42   ar
    42    42    43   ar
    43    43    44   ar
    44    44     2   ar
    45    44     5   ar
    46    41     6   ar
    47    14     9   ar
    48    39    16   ar
    49    37    21    1
    50    35    25   ar
    51    34    29   ar
    52     3    45    1
    53     7    46    1
    54    10    47    1
    55    11    48    1
    56    12    49    1
    57    13    50    1
    58    14    51    1
    59    17    52    1
    60    18    53    1
    61    20    54    1
    62    20    55    1
    63    22    56    1
    64    22    57    1
    65    23    58    1
    66    23    59    1
    67    24    60    1
    68    30    61    1
    69    31    62    1
    70    32    63    1
    71    33    64    1
    72    35    65    1
    73    36    66    1
    74    36    67    1
    75    37    68    1
    76    37    69    1
    77    38    70    1
    78    39    71    1
    79    42    72    1
    80    43    73    1
