
     RDKit          3D

 52 55  0  0  0  0  0  0  0  0999 V2000
    1.6174   -1.5171   -2.0502 O   0  0  0  0  0  0  0  0  0  0  0  0
    0.8492   -0.7632   -1.4014 C   0  0  0  0  0  0  0  0  0  0  0  0
   -0.5921   -0.8592   -1.7440 C   0  0  0  0  0  0  0  0  0  0  0  0
   -1.4236   -0.0140   -0.9620 N   0  0  0  0  0  0  0  0  0  0  0  0
   -1.9687   -0.5025    0.1944 C   0  0  0  0  0  0  0  0  0  0  0  0
   -1.7407   -1.6828    0.5618 O   0  0  0  0  0  0  0  0  0  0  0  0
   -2.7702    0.3241    0.9466 C   0  0  0  0  0  0  0  0  0  0  0  0
   -3.4278   -0.1159    2.2221 C   0  0  0  0  0  0  0  0  0  0  0  0
   -4.6240   -0.9519    1.9727 C   0  0  0  0  0  0  0  0  0  0  0  0
   -4.4965   -2.3221    1.9812 C   0  0  0  0  0  0  0  0  0  0  0  0
   -5.6281   -3.1036    1.7359 C   0  0  0  0  0  0  0  0  0  0  0  0
   -6.8595   -2.5309    1.4881 C   0  0  0  0  0  0  0  0  0  0  0  0
   -6.9889   -1.1617    1.4796 C   0  0  0  0  0  0  0  0  0  0  0  0
   -5.8740   -0.3760    1.7213 C   0  0  0  0  0  0  0  0  0  0  0  0
   -3.0250    1.6008    0.5637 N   0  0  0  0  0  0  0  0  0  0  0  0
   -2.4872    2.0789   -0.5746 C   0  0  0  0  0  0  0  0  0  0  0  0
   -2.7367    3.3781   -0.9760 C   0  0  0  0  0  0  0  0  0  0  0  0
   -2.2089    3.9180   -2.1304 C   0  0  0  0  0  0  0  0  0  0  0  0
   -1.4018    3.1064   -2.8989 C   0  0  0  0  0  0  0  0  0  0  0  0
   -1.1421    1.8055   -2.5130 C   0  0  0  0  0  0  0  0  0  0  0  0
   -1.6714    1.2456   -1.3447 C   0  0  0  0  0  0  0  0  0  0  0  0
    1.3633    0.0996   -0.4233 N   0  0  0  0  0  0  0  0  0  0  0  0
    2.6922    0.2187   -0.0721 N   0  0  0  0  0  0  0  0  0  0  0  0
    3.7260   -0.0194   -0.7645 C   0  0  0  0  0  0  0  0  0  0  0  0
    5.0866    0.1455   -0.2790 C   0  0  0  0  0  0  0  0  0  0  0  0
    6.1328   -0.1530   -1.1174 C   0  0  0  0  0  0  0  0  0  0  0  0
    7.4612   -0.0127   -0.7055 C   0  0  0  0  0  0  0  0  0  0  0  0
    7.7202    0.4306    0.5553 C   0  0  0  0  0  0  0  0  0  0  0  0
    9.0623    0.5876    1.0165 N   0  0  0  0  0  4  0  0  0  0  0  0
    9.2918    0.9952    2.1758 O   0  0  0  0  0  0  0  0  0  0  0  0
   10.1364    0.3008    0.2152 O   0  0  0  0  0  1  0  0  0  0  0  0
    6.6727    0.7336    1.4053 C   0  0  0  0  0  0  0  0  0  0  0  0
    5.3671    0.5945    0.9983 C   0  0  0  0  0  0  0  0  0  0  0  0
   -0.9630   -1.9132   -1.5739 H   0  0  0  0  0  0  0  0  0  0  0  0
   -0.7105   -0.6991   -2.8228 H   0  0  0  0  0  0  0  0  0  0  0  0
   -2.6973   -0.7252    2.8337 H   0  0  0  0  0  0  0  0  0  0  0  0
   -3.7113    0.7604    2.8249 H   0  0  0  0  0  0  0  0  0  0  0  0
   -3.5881   -2.8565    2.1674 H   0  0  0  0  0  0  0  0  0  0  0  0
   -5.5374   -4.1821    1.7398 H   0  0  0  0  0  0  0  0  0  0  0  0
   -7.6902   -3.2170    1.3061 H   0  0  0  0  0  0  0  0  0  0  0  0
   -7.9585   -0.7060    1.2848 H   0  0  0  0  0  0  0  0  0  0  0  0
   -5.9237    0.7106    1.7255 H   0  0  0  0  0  0  0  0  0  0  0  0
   -3.3859    3.9707   -0.3211 H   0  0  0  0  0  0  0  0  0  0  0  0
   -2.4570    4.9384   -2.3648 H   0  0  0  0  0  0  0  0  0  0  0  0
   -0.9712    3.4914   -3.8077 H   0  0  0  0  0  0  0  0  0  0  0  0
   -0.4979    1.2059   -3.1418 H   0  0  0  0  0  0  0  0  0  0  0  0
    0.6686    0.7172    0.0947 H   0  0  0  0  0  0  0  0  0  0  0  0
    3.5835   -0.3632   -1.7768 H   0  0  0  0  0  0  0  0  0  0  0  0
    5.9762   -0.5079   -2.1242 H   0  0  0  0  0  0  0  0  0  0  0  0
    8.2859   -0.2493   -1.3700 H   0  0  0  0  0  0  0  0  0  0  0  0
    6.9303    1.0868    2.4088 H   0  0  0  0  0  0  0  0  0  0  0  0
    4.5355    0.8236    1.6407 H   0  0  0  0  0  0  0  0  0  0  0  0
  1  2  2  0
  2  3  1  0
  3  4  1  0
  4  5  1  0
  5  6  2  0
  5  7  1  0
  7  8  1  0
  8  9  1  0
  9 10  2  0
 10 11  1  0
 11 12  2  0
 12 13  1  0
 13 14  2  0
  7 15  2  0
 15 16  1  0
 16 17  2  0
 17 18  1  0
 18 19  2  0
 19 20  1  0
 20 21  2  0
  2 22  1  0
 22 23  1  0
 23 24  2  0
 24 25  1  0
 25 26  2  0
 26 27  1  0
 27 28  2  0
 28 29  1  0
 29 30  2  0
 29 31  1  0
 28 32  1  0
 32 33  2  0
 21  4  1  0
 33 25  1  0
 14  9  1  0
 21 16  1  0
  3 34  1  0
  3 35  1  0
  8 36  1  0
  8 37  1  0
 10 38  1  0
 11 39  1  0
 12 40  1  0
 13 41  1  0
 14 42  1  0
 17 43  1  0
 18 44  1  0
 19 45  1  0
 20 46  1  0
 22 47  1  0
 24 48  1  0
 26 49  1  0
 27 50  1  0
 32 51  1  0
 33 52  1  0
M  CHG  2  29   1  31  -1
M  END
$$$$
