@<TRIPOS>MOLECULE
*****
 52 55 0 0 0
SMALL
GASTEIGER

@<TRIPOS>ATOM
      1 O           1.6174   -1.5171   -2.0502 O.2     1  UNL1       -0.2721
      2 C           0.8492   -0.7632   -1.4014 C.2     1  UNL1        0.2521
      3 C          -0.5921   -0.8592   -1.7440 C.3     1  UNL1        0.1046
      4 N          -1.4236   -0.0140   -0.9620 N.ar    1  UNL1       -0.2963
      5 C          -1.9687   -0.5025    0.1944 C.ar    1  UNL1        0.2739
      6 O          -1.7407   -1.6828    0.5618 O.2     1  UNL1       -0.2657
      7 C          -2.7702    0.3241    0.9466 C.ar    1  UNL1        0.1105
      8 C          -3.4278   -0.1159    2.2221 C.3     1  UNL1        0.0201
      9 C          -4.6240   -0.9519    1.9727 C.ar    1  UNL1       -0.0414
     10 C          -4.4965   -2.3221    1.9812 C.ar    1  UNL1       -0.0582
     11 C          -5.6281   -3.1036    1.7359 C.ar    1  UNL1       -0.0615
     12 C          -6.8595   -2.5309    1.4881 C.ar    1  UNL1       -0.0617
     13 C          -6.9889   -1.1617    1.4796 C.ar    1  UNL1       -0.0615
     14 C          -5.8740   -0.3760    1.7213 C.ar    1  UNL1       -0.0582
     15 N          -3.0250    1.6008    0.5637 N.ar    1  UNL1       -0.2444
     16 C          -2.4872    2.0789   -0.5746 C.ar    1  UNL1        0.0879
     17 C          -2.7367    3.3781   -0.9760 C.ar    1  UNL1       -0.0343
     18 C          -2.2089    3.9180   -2.1304 C.ar    1  UNL1       -0.0596
     19 C          -1.4018    3.1064   -2.8989 C.ar    1  UNL1       -0.0597
     20 C          -1.1421    1.8055   -2.5130 C.ar    1  UNL1       -0.0360
     21 C          -1.6714    1.2456   -1.3447 C.ar    1  UNL1        0.0708
     22 N           1.3633    0.0996   -0.4233 N.am    1  UNL1       -0.2055
     23 N           2.6922    0.2187   -0.0721 N.2     1  UNL1       -0.1877
     24 C           3.7260   -0.0194   -0.7645 C.2     1  UNL1        0.0528
     25 C           5.0866    0.1455   -0.2790 C.ar    1  UNL1       -0.0050
     26 C           6.1328   -0.1530   -1.1174 C.ar    1  UNL1       -0.0467
     27 C           7.4612   -0.0127   -0.7055 C.ar    1  UNL1        0.0162
     28 C           7.7202    0.4306    0.5553 C.ar    1  UNL1        0.2732
     29 N           9.0623    0.5876    1.0165 N.pl3   1  UNL1        0.0796
     30 O           9.2918    0.9952    2.1758 O.2     1  UNL1        0.0414
     31 O          10.1364    0.3008    0.2152 O.co2   1  UNL1       -0.5760
     32 C           6.6727    0.7336    1.4053 C.ar    1  UNL1        0.0162
     33 C           5.3671    0.5945    0.9983 C.ar    1  UNL1       -0.0467
     34 H          -0.9630   -1.9132   -1.5739 H       1  UNL1        0.0589
     35 H          -0.7105   -0.6991   -2.8228 H       1  UNL1        0.0589
     36 H          -2.6973   -0.7252    2.8337 H       1  UNL1        0.0378
     37 H          -3.7113    0.7604    2.8249 H       1  UNL1        0.0378
     38 H          -3.5881   -2.8565    2.1674 H       1  UNL1        0.0620
     39 H          -5.5374   -4.1821    1.7398 H       1  UNL1        0.0618
     40 H          -7.6902   -3.2170    1.3061 H       1  UNL1        0.0618
     41 H          -7.9585   -0.7060    1.2848 H       1  UNL1        0.0618
     42 H          -5.9237    0.7106    1.7255 H       1  UNL1        0.0620
     43 H          -3.3859    3.9707   -0.3211 H       1  UNL1        0.0639
     44 H          -2.4570    4.9384   -2.3648 H       1  UNL1        0.0618
     45 H          -0.9712    3.4914   -3.8077 H       1  UNL1        0.0618
     46 H          -0.4979    1.2059   -3.1418 H       1  UNL1        0.0639
     47 H           0.6686    0.7172    0.0947 H       1  UNL1        0.1773
     48 H           3.5835   -0.3632   -1.7768 H       1  UNL1        0.0851
     49 H           5.9762   -0.5079   -2.1242 H       1  UNL1        0.0626
     50 H           8.2859   -0.2493   -1.3700 H       1  UNL1        0.0685
     51 H           6.9303    1.0868    2.4088 H       1  UNL1        0.0685
     52 H           4.5355    0.8236    1.6407 H       1  UNL1        0.0626
@<TRIPOS>UNITY_ATOM_ATTR
29 1
charge 1
31 1
charge -1
@<TRIPOS>BOND
     1     1     2    2
     2     2     3    1
     3     3     4    1
     4     4     5   ar
     5     5     6    2
     6     5     7   ar
     7     7     8    1
     8     8     9    1
     9     9    10   ar
    10    10    11   ar
    11    11    12   ar
    12    12    13   ar
    13    13    14   ar
    14     7    15   ar
    15    15    16   ar
    16    16    17   ar
    17    17    18   ar
    18    18    19   ar
    19    19    20   ar
    20    20    21   ar
    21     2    22   am
    22    22    23    1
    23    23    24    2
    24    24    25    1
    25    25    26   ar
    26    26    27   ar
    27    27    28   ar
    28    28    29    1
    29    29    30    2
    30    29    31    1
    31    28    32   ar
    32    32    33   ar
    33    21     4   ar
    34    33    25   ar
    35    14     9   ar
    36    21    16   ar
    37     3    34    1
    38     3    35    1
    39     8    36    1
    40     8    37    1
    41    10    38    1
    42    11    39    1
    43    12    40    1
    44    13    41    1
    45    14    42    1
    46    17    43    1
    47    18    44    1
    48    19    45    1
    49    20    46    1
    50    22    47    1
    51    24    48    1
    52    26    49    1
    53    27    50    1
    54    32    51    1
    55    33    52    1
