@<TRIPOS>MOLECULE
*****
 49 51 0 0 0
SMALL
GASTEIGER

@<TRIPOS>ATOM
      1 C           1.4416    2.9242    2.3906 C.3     1  UNL1        0.0788
      2 O           2.1438    2.1088    1.4838 O.3     1  UNL1       -0.4948
      3 C           1.4991    1.2451    0.6071 C.ar    1  UNL1        0.1253
      4 C           0.1203    1.1855    0.6264 C.ar    1  UNL1       -0.0084
      5 C          -0.5941    0.3564   -0.2096 C.ar    1  UNL1        0.0292
      6 C          -2.0351    0.3114   -0.1711 C.ar    1  UNL1        0.0099
      7 C          -2.8703    1.0951   -0.9097 C.ar    1  UNL1        0.0160
      8 N          -4.2114    1.0314   -0.8514 N.ar    1  UNL1       -0.3171
      9 C          -5.0444    1.9056   -1.6742 C.3     1  UNL1        0.0147
     10 C          -4.7889    0.1475   -0.0201 C.ar    1  UNL1        0.2603
     11 O          -6.0417    0.0406    0.0789 O.2     1  UNL1       -0.2670
     12 C          -3.9803   -0.6811    0.7609 C.ar    1  UNL1        0.0653
     13 C          -4.5566   -1.6045    1.6300 C.ar    1  UNL1        0.0405
     14 N          -3.7785   -2.4029    2.3831 N.ar    1  UNL1       -0.2625
     15 C          -2.4351   -2.3279    2.3141 C.ar    1  UNL1        0.0282
     16 C          -1.8105   -1.4385    1.4768 C.ar    1  UNL1       -0.0351
     17 C          -2.6071   -0.6166    0.7018 C.ar    1  UNL1       -0.0006
     18 C           0.1063   -0.4443   -1.1003 C.ar    1  UNL1        0.1284
     19 O          -0.5475   -1.3061   -1.9746 O.3     1  UNL1       -0.4945
     20 C           0.2306   -2.0907   -2.8537 C.3     1  UNL1        0.0788
     21 C           1.4763   -0.3662   -1.0995 C.ar    1  UNL1       -0.0115
     22 C           2.2076    0.4547   -0.2731 C.ar    1  UNL1        0.0117
     23 C           3.6729    0.5522   -0.2580 C.3     1  UNL1        0.0270
     24 N           4.2753   -0.1277    0.8684 N.3     1  UNL1       -0.3041
     25 C           3.9623   -1.5461    0.8798 C.3     1  UNL1       -0.0127
     26 C           5.7245    0.0078    0.6825 C.3     1  UNL1       -0.0127
     27 H           0.7704    3.6425    1.8973 H       1  UNL1        0.0660
     28 H           0.8934    2.2479    3.0774 H       1  UNL1        0.0660
     29 H           2.1926    3.5225    2.9566 H       1  UNL1        0.0660
     30 H          -0.4035    1.8221    1.3315 H       1  UNL1        0.0661
     31 H          -2.4079    1.8220   -1.5931 H       1  UNL1        0.0816
     32 H          -4.9558    1.5548   -2.7218 H       1  UNL1        0.0457
     33 H          -6.0898    1.8767   -1.3649 H       1  UNL1        0.0457
     34 H          -4.7116    2.9607   -1.6240 H       1  UNL1        0.0457
     35 H          -5.6349   -1.6643    1.6848 H       1  UNL1        0.0837
     36 H          -1.8062   -2.9715    2.9213 H       1  UNL1        0.0830
     37 H          -0.7338   -1.3490    1.3935 H       1  UNL1        0.0639
     38 H           0.8156   -2.8809   -2.3056 H       1  UNL1        0.0660
     39 H           0.9640   -1.4906   -3.4351 H       1  UNL1        0.0660
     40 H          -0.4201   -2.5804   -3.6294 H       1  UNL1        0.0660
     41 H           2.0465   -0.9811   -1.7851 H       1  UNL1        0.0658
     42 H           4.0689    0.0831   -1.1749 H       1  UNL1        0.0477
     43 H           3.9499    1.6259   -0.1660 H       1  UNL1        0.0477
     44 H           3.7051   -1.9100   -0.1360 H       1  UNL1        0.0391
     45 H           4.8378   -2.1428    1.2701 H       1  UNL1        0.0391
     46 H           3.1334   -1.7736    1.6047 H       1  UNL1        0.0391
     47 H           6.0376    1.0660    0.8643 H       1  UNL1        0.0391
     48 H           6.2823   -0.7097    1.3052 H       1  UNL1        0.0391
     49 H           5.9070   -0.1841   -0.3947 H       1  UNL1        0.0391
@<TRIPOS>BOND
     1     1     2    1
     2     2     3    1
     3     3     4   ar
     4     4     5   ar
     5     5     6    1
     6     6     7   ar
     7     7     8   ar
     8     8     9    1
     9     8    10   ar
    10    10    11    2
    11    10    12   ar
    12    12    13   ar
    13    13    14   ar
    14    14    15   ar
    15    15    16   ar
    16    16    17   ar
    17     5    18   ar
    18    18    19    1
    19    19    20    1
    20    18    21   ar
    21    21    22   ar
    22    22    23    1
    23    23    24    1
    24    24    25    1
    25    24    26    1
    26    22     3   ar
    27    17     6   ar
    28    17    12   ar
    29     1    27    1
    30     1    28    1
    31     1    29    1
    32     4    30    1
    33     7    31    1
    34     9    32    1
    35     9    33    1
    36     9    34    1
    37    13    35    1
    38    15    36    1
    39    16    37    1
    40    20    38    1
    41    20    39    1
    42    20    40    1
    43    21    41    1
    44    23    42    1
    45    23    43    1
    46    25    44    1
    47    25    45    1
    48    25    46    1
    49    26    47    1
    50    26    48    1
    51    26    49    1
