@<TRIPOS>MOLECULE
*****
 56 59 0 0 0
SMALL
GASTEIGER

@<TRIPOS>ATOM
      1 O          -4.3945    3.9241    0.7914 O.3     1  UNL1       -0.3918
      2 C          -4.3695    2.5636    1.1844 C.3     1  UNL1        0.0554
      3 C          -4.8304    1.7697    0.0167 C.3     1  UNL1       -0.0252
      4 C          -4.2941    0.3445    0.2125 C.3     1  UNL1       -0.0322
      5 C          -2.8307    0.4428   -0.0456 C.3     1  UNL1        0.0221
      6 N          -2.2309   -0.9071   -0.0320 N.pl3   1  UNL1       -0.3256
      7 C          -0.8499   -1.0643   -0.2553 C.ar    1  UNL1        0.1333
      8 N          -0.0984    0.0807   -0.4826 N.ar    1  UNL1       -0.1991
      9 C           1.2116    0.0073   -0.7014 C.ar    1  UNL1        0.2171
     10 N           1.9673    1.2019   -0.9336 N.pl3   1  UNL1       -0.3106
     11 C           3.3965    1.1614   -1.1759 C.3     1  UNL1        0.0233
     12 C           4.0323    0.5425    0.0333 C.3     1  UNL1       -0.0345
     13 C           4.8607    1.5908    0.7891 C.3     1  UNL1       -0.0514
     14 C           5.9555    1.9792   -0.1921 C.3     1  UNL1       -0.0529
     15 C           5.3385    2.7677   -1.3072 C.3     1  UNL1       -0.0514
     16 C           3.8941    2.4962   -1.5418 C.3     1  UNL1       -0.0345
     17 N           1.7789   -1.1803   -0.6970 N.ar    1  UNL1       -0.2222
     18 C           1.1024   -2.3442   -0.4809 C.ar    1  UNL1        0.0436
     19 C          -0.2629   -2.3006   -0.2501 C.ar    1  UNL1        0.0582
     20 C          -0.9996   -3.5463   -0.0167 C.ar    1  UNL1        0.0757
     21 C          -0.3178   -4.7590   -0.0297 C.ar    1  UNL1       -0.0355
     22 C          -0.9693   -5.9815    0.1871 C.ar    1  UNL1       -0.0583
     23 C          -2.3162   -6.0080    0.4207 C.ar    1  UNL1       -0.0436
     24 C          -2.9556   -4.7823    0.4254 C.ar    1  UNL1        0.0283
     25 N          -2.2997   -3.6387    0.2145 N.ar    1  UNL1       -0.2548
     26 C          -2.1674    1.3417    0.9319 C.3     1  UNL1       -0.0322
     27 C          -3.0535    2.2107    1.7417 C.3     1  UNL1       -0.0252
     28 H          -4.5229    4.0272   -0.1719 H       1  UNL1        0.2098
     29 H          -5.1814    2.4993    1.9694 H       1  UNL1        0.0593
     30 H          -4.3362    2.1612   -0.9110 H       1  UNL1        0.0291
     31 H          -5.9157    1.7982   -0.0641 H       1  UNL1        0.0291
     32 H          -4.8174   -0.3608   -0.4536 H       1  UNL1        0.0284
     33 H          -4.4362    0.0946    1.2927 H       1  UNL1        0.0284
     34 H          -2.7117    0.8481   -1.0928 H       1  UNL1        0.0498
     35 H          -2.8769   -1.6626    0.1440 H       1  UNL1        0.1478
     36 H           1.5058    2.1384   -0.9341 H       1  UNL1        0.1492
     37 H           3.5299    0.4289   -2.0271 H       1  UNL1        0.0498
     38 H           3.3120    0.0954    0.7415 H       1  UNL1        0.0283
     39 H           4.7517   -0.2414   -0.2697 H       1  UNL1        0.0283
     40 H           5.3233    1.0982    1.6696 H       1  UNL1        0.0266
     41 H           4.2067    2.4261    1.0572 H       1  UNL1        0.0266
     42 H           6.7505    2.5256    0.3508 H       1  UNL1        0.0265
     43 H           6.3253    1.0200   -0.6399 H       1  UNL1        0.0265
     44 H           5.9471    2.5783   -2.2298 H       1  UNL1        0.0266
     45 H           5.4854    3.8446   -1.0701 H       1  UNL1        0.0266
     46 H           3.6850    2.6757   -2.6222 H       1  UNL1        0.0283
     47 H           3.2958    3.2918   -1.0070 H       1  UNL1        0.0283
     48 H           1.6414   -3.2740   -0.4937 H       1  UNL1        0.0838
     49 H           0.7276   -4.8236   -0.2035 H       1  UNL1        0.0639
     50 H          -0.4140   -6.9150    0.1717 H       1  UNL1        0.0619
     51 H          -2.8741   -6.9213    0.5949 H       1  UNL1        0.0633
     52 H          -4.0261   -4.7787    0.6089 H       1  UNL1        0.0830
     53 H          -1.5562    0.6832    1.6180 H       1  UNL1        0.0284
     54 H          -1.4129    1.9445    0.3826 H       1  UNL1        0.0284
     55 H          -2.4949    3.1560    1.9754 H       1  UNL1        0.0291
     56 H          -3.2082    1.7296    2.7422 H       1  UNL1        0.0291
@<TRIPOS>BOND
     1     1     2    1
     2     2     3    1
     3     3     4    1
     4     4     5    1
     5     5     6    1
     6     6     7    1
     7     7     8   ar
     8     8     9   ar
     9     9    10    1
    10    10    11    1
    11    11    12    1
    12    12    13    1
    13    13    14    1
    14    14    15    1
    15    15    16    1
    16     9    17   ar
    17    17    18   ar
    18    18    19   ar
    19    19    20    1
    20    20    21   ar
    21    21    22   ar
    22    22    23   ar
    23    23    24   ar
    24    24    25   ar
    25     5    26    1
    26    26    27    1
    27    27     2    1
    28    19     7   ar
    29    25    20   ar
    30    16    11    1
    31     1    28    1
    32     2    29    1
    33     3    30    1
    34     3    31    1
    35     4    32    1
    36     4    33    1
    37     5    34    1
    38     6    35    1
    39    10    36    1
    40    11    37    1
    41    12    38    1
    42    12    39    1
    43    13    40    1
    44    13    41    1
    45    14    42    1
    46    14    43    1
    47    15    44    1
    48    15    45    1
    49    16    46    1
    50    16    47    1
    51    18    48    1
    52    21    49    1
    53    22    50    1
    54    23    51    1
    55    24    52    1
    56    26    53    1
    57    26    54    1
    58    27    55    1
    59    27    56    1
