@<TRIPOS>MOLECULE
*****
 58 62 0 0 0
SMALL
GASTEIGER

@<TRIPOS>ATOM
      1 C           5.7746    2.6475    0.6931 C.3     1  UNL1        0.0788
      2 O           5.3961    1.4759   -0.0035 O.3     1  UNL1       -0.4945
      3 C           4.0417    1.2292   -0.1604 C.ar    1  UNL1        0.1293
      4 C           3.0784    2.0992    0.3469 C.ar    1  UNL1       -0.0190
      5 C           1.7460    1.8009    0.1596 C.ar    1  UNL1       -0.0550
      6 C           1.3839    0.6589   -0.5193 C.ar    1  UNL1       -0.0447
      7 C          -0.0801    0.3801   -0.6985 C.3     1  UNL1       -0.0068
      8 C          -0.5071   -0.4235    0.4843 C.3     1  UNL1        0.0537
      9 C           0.2350   -1.7338    0.5991 C.3     1  UNL1        0.0666
     10 O          -0.4163   -2.5984    1.4347 O.3     1  UNL1       -0.3764
     11 C          -1.1778   -2.0144    2.4152 C.3     1  UNL1        0.0635
     12 C          -2.3849   -1.2726    1.8241 C.3     1  UNL1        0.0388
     13 N          -1.9143   -0.6841    0.5865 N.am    1  UNL1       -0.2897
     14 C          -2.8034   -0.3806   -0.4665 C.2     1  UNL1        0.2491
     15 O          -2.4255    0.1266   -1.5472 O.2     1  UNL1       -0.2699
     16 C          -4.2473   -0.6648   -0.3107 C.ar    1  UNL1        0.0640
     17 C          -4.7998   -1.8759   -0.6525 C.ar    1  UNL1       -0.0475
     18 C          -6.1641   -2.0522   -0.4649 C.ar    1  UNL1       -0.0609
     19 C          -6.9765   -1.0599    0.0489 C.ar    1  UNL1       -0.0597
     20 C          -6.3826    0.1419    0.3795 C.ar    1  UNL1       -0.0338
     21 C          -5.0171    0.3529    0.2043 C.ar    1  UNL1        0.0982
     22 N          -4.4281    1.5979    0.5453 N.ar    1  UNL1       -0.1496
     23 N          -3.3258    1.8793    1.1707 N.ar    1  UNL1       -0.1556
     24 C          -3.1263    3.1914    1.2905 C.ar    1  UNL1        0.0697
     25 C          -4.2100    3.7912    0.6801 C.ar    1  UNL1        0.0697
     26 N          -4.9821    2.7826    0.2379 N.ar    1  UNL1       -0.1556
     27 C           2.3547   -0.2164   -1.0295 C.ar    1  UNL1       -0.0458
     28 C           3.6879    0.0717   -0.8484 C.ar    1  UNL1        0.0437
     29 C           4.7442   -0.7915   -1.3507 C.ar    1  UNL1        0.0925
     30 C           4.4967   -1.9538   -2.0357 C.ar    1  UNL1        0.0536
     31 N           5.5092   -2.7525   -2.4995 N.ar    1  UNL1       -0.2596
     32 C           6.7917   -2.4162   -2.2943 C.ar    1  UNL1        0.0457
     33 C           7.0380   -1.2488   -1.6063 C.ar    1  UNL1        0.0464
     34 N           6.0412   -0.4751   -1.1570 N.ar    1  UNL1       -0.2518
     35 H           5.2614    3.5379    0.2779 H       1  UNL1        0.0660
     36 H           5.3910    2.5296    1.7344 H       1  UNL1        0.0660
     37 H           6.8733    2.7809    0.7230 H       1  UNL1        0.0660
     38 H           3.3914    2.9797    0.8706 H       1  UNL1        0.0654
     39 H           0.9951    2.4792    0.5554 H       1  UNL1        0.0621
     40 H          -0.5930    1.3363   -0.7608 H       1  UNL1        0.0332
     41 H          -0.1557   -0.2179   -1.6456 H       1  UNL1        0.0332
     42 H          -0.2023    0.1585    1.4011 H       1  UNL1        0.0526
     43 H           1.2930   -1.6099    0.8719 H       1  UNL1        0.0578
     44 H           0.2000   -2.1922   -0.4328 H       1  UNL1        0.0578
     45 H          -1.6093   -2.8341    3.0356 H       1  UNL1        0.0575
     46 H          -0.6068   -1.3682    3.1029 H       1  UNL1        0.0575
     47 H          -3.1861   -2.0140    1.6399 H       1  UNL1        0.0487
     48 H          -2.6624   -0.4723    2.5175 H       1  UNL1        0.0487
     49 H          -4.1540   -2.6437   -1.0534 H       1  UNL1        0.0626
     50 H          -6.6184   -2.9892   -0.7241 H       1  UNL1        0.0618
     51 H          -8.0531   -1.2164    0.1906 H       1  UNL1        0.0618
     52 H          -6.9851    0.9402    0.7836 H       1  UNL1        0.0639
     53 H          -2.2940    3.6984    1.7643 H       1  UNL1        0.0864
     54 H          -4.4150    4.8615    0.5695 H       1  UNL1        0.0864
     55 H           2.0136   -1.0894   -1.5490 H       1  UNL1        0.0628
     56 H           3.4642   -2.2413   -2.2108 H       1  UNL1        0.0851
     57 H           7.6103   -3.0332   -2.6524 H       1  UNL1        0.0845
     58 H           8.0917   -0.9930   -1.4499 H       1  UNL1        0.0845
@<TRIPOS>BOND
     1     1     2    1
     2     2     3    1
     3     3     4   ar
     4     4     5   ar
     5     5     6   ar
     6     6     7    1
     7     7     8    1
     8     8     9    1
     9     9    10    1
    10    10    11    1
    11    11    12    1
    12    12    13    1
    13    13    14   am
    14    14    15    2
    15    14    16    1
    16    16    17   ar
    17    17    18   ar
    18    18    19   ar
    19    19    20   ar
    20    20    21   ar
    21    21    22    1
    22    22    23   ar
    23    23    24   ar
    24    24    25   ar
    25    25    26   ar
    26     6    27   ar
    27    27    28   ar
    28    28    29    1
    29    29    30   ar
    30    30    31   ar
    31    31    32   ar
    32    32    33   ar
    33    33    34   ar
    34    28     3   ar
    35    34    29   ar
    36    13     8    1
    37    21    16   ar
    38    26    22   ar
    39     1    35    1
    40     1    36    1
    41     1    37    1
    42     4    38    1
    43     5    39    1
    44     7    40    1
    45     7    41    1
    46     8    42    1
    47     9    43    1
    48     9    44    1
    49    11    45    1
    50    11    46    1
    51    12    47    1
    52    12    48    1
    53    17    49    1
    54    18    50    1
    55    19    51    1
    56    20    52    1
    57    24    53    1
    58    25    54    1
    59    27    55    1
    60    30    56    1
    61    32    57    1
    62    33    58    1
