
     RDKit          3D

 42 46  0  0  0  0  0  0  0  0999 V2000
   -3.3735   -1.0513    1.9075 C   0  0  0  0  0  0  0  0  0  0  0  0
   -3.8820    0.2430    1.3250 C   0  0  0  0  0  0  0  0  0  0  0  0
   -3.6139    0.3109   -0.1171 C   0  0  1  0  0  0  0  0  0  0  0  0
   -4.2834   -0.7884   -0.7083 O   0  0  0  0  0  0  0  0  0  0  0  0
   -4.2262    1.4997   -0.7852 C   0  0  0  0  0  0  0  0  0  0  0  0
   -4.7494    2.5511   -0.3302 O   0  0  0  0  0  0  0  0  0  0  0  0
   -4.2075    1.4147   -2.1738 O   0  0  0  0  0  0  0  0  0  0  0  0
   -3.3464    0.4983   -2.8702 C   0  0  0  0  0  0  0  0  0  0  0  0
   -2.1276    0.3692   -1.9891 C   0  0  0  0  0  0  0  0  0  0  0  0
   -2.2349    0.2734   -0.5929 C   0  0  0  0  0  0  0  0  0  0  0  0
   -1.0790    0.1612    0.1190 C   0  0  0  0  0  0  0  0  0  0  0  0
    0.1742    0.1369   -0.4498 C   0  0  0  0  0  0  0  0  0  0  0  0
    0.2580    0.2283   -1.7693 N   0  0  0  0  0  0  0  0  0  0  0  0
    1.6603    0.1863   -2.2016 C   0  0  0  0  0  0  0  0  0  0  0  0
    2.3712    0.0549   -0.9055 C   0  0  0  0  0  0  0  0  0  0  0  0
    3.7438   -0.0277   -0.7570 C   0  0  0  0  0  0  0  0  0  0  0  0
    4.2160   -0.1477    0.5546 C   0  0  0  0  0  0  0  0  0  0  0  0
    5.5782   -0.2337    0.7566 C   0  0  0  0  0  0  0  0  0  0  0  0
    6.0593   -0.3524    2.0445 C   0  0  0  0  0  0  0  0  0  0  0  0
    5.2017   -0.3868    3.1375 C   0  0  0  0  0  0  0  0  0  0  0  0
    3.8408   -0.2978    2.8933 C   0  0  0  0  0  0  0  0  0  0  0  0
    3.3082   -0.1774    1.6178 C   0  0  0  0  0  0  0  0  0  0  0  0
    1.9729   -0.0927    1.4150 N   0  0  0  0  0  0  0  0  0  0  0  0
    1.4767    0.0245    0.1584 C   0  0  0  0  0  0  0  0  0  0  0  0
   -0.8399    0.3417   -2.5389 C   0  0  0  0  0  0  0  0  0  0  0  0
   -0.7229    0.4278   -3.8083 O   0  0  0  0  0  0  0  0  0  0  0  0
   -2.6984   -0.8543    2.7747 H   0  0  0  0  0  0  0  0  0  0  0  0
   -2.8614   -1.6253    1.1096 H   0  0  0  0  0  0  0  0  0  0  0  0
   -4.2263   -1.6554    2.2592 H   0  0  0  0  0  0  0  0  0  0  0  0
   -3.5074    1.0838    1.9327 H   0  0  0  0  0  0  0  0  0  0  0  0
   -4.9813    0.2613    1.4635 H   0  0  0  0  0  0  0  0  0  0  0  0
   -5.2316   -0.5361   -0.7870 H   0  0  0  0  0  0  0  0  0  0  0  0
   -3.0834    0.9939   -3.8023 H   0  0  0  0  0  0  0  0  0  0  0  0
   -3.8252   -0.4636   -3.0541 H   0  0  0  0  0  0  0  0  0  0  0  0
   -1.1908    0.0916    1.1679 H   0  0  0  0  0  0  0  0  0  0  0  0
    1.9697    1.1631   -2.6510 H   0  0  0  0  0  0  0  0  0  0  0  0
    1.8614   -0.6300   -2.8955 H   0  0  0  0  0  0  0  0  0  0  0  0
    4.4471   -0.0068   -1.5524 H   0  0  0  0  0  0  0  0  0  0  0  0
    6.2966   -0.2129   -0.0471 H   0  0  0  0  0  0  0  0  0  0  0  0
    7.1327   -0.4220    2.2300 H   0  0  0  0  0  0  0  0  0  0  0  0
    5.5559   -0.4805    4.1715 H   0  0  0  0  0  0  0  0  0  0  0  0
    3.1677   -0.3247    3.7482 H   0  0  0  0  0  0  0  0  0  0  0  0
  1  2  1  0
  2  3  1  0
  3  4  1  6
  3  5  1  0
  5  6  2  0
  5  7  1  0
  7  8  1  0
  8  9  1  0
  9 10  2  0
 10 11  1  0
 11 12  2  0
 12 13  1  0
 13 14  1  0
 14 15  1  0
 15 16  2  0
 16 17  1  0
 17 18  2  0
 18 19  1  0
 19 20  2  0
 20 21  1  0
 21 22  2  0
 22 23  1  0
 23 24  2  0
 13 25  1  0
 25 26  2  0
 10  3  1  0
 24 12  1  0
 25  9  1  0
 24 15  1  0
 22 17  1  0
  1 27  1  0
  1 28  1  0
  1 29  1  0
  2 30  1  0
  2 31  1  0
  4 32  1  0
  8 33  1  0
  8 34  1  0
 11 35  1  0
 14 36  1  0
 14 37  1  0
 16 38  1  0
 18 39  1  0
 19 40  1  0
 20 41  1  0
 21 42  1  0
M  END
$$$$
