@<TRIPOS>MOLECULE
*****
 42 46 0 0 0
SMALL
GASTEIGER

@<TRIPOS>ATOM
      1 C          -3.3735   -1.0513    1.9075 C.3     1  UNL1       -0.0618
      2 C          -3.8820    0.2430    1.3250 C.3     1  UNL1       -0.0121
      3 C          -3.6139    0.3109   -0.1171 C.3     1  UNL1        0.1877
      4 O          -4.2834   -0.7884   -0.7083 O.3     1  UNL1       -0.3732
      5 C          -4.2262    1.4997   -0.7852 C.2     1  UNL1        0.3441
      6 O          -4.7494    2.5511   -0.3302 O.2     1  UNL1       -0.2472
      7 O          -4.2075    1.4147   -2.1738 O.3     1  UNL1       -0.4575
      8 C          -3.3464    0.4983   -2.8702 C.3     1  UNL1        0.1230
      9 C          -2.1276    0.3692   -1.9891 C.ar    1  UNL1        0.0606
     10 C          -2.2349    0.2734   -0.5929 C.ar    1  UNL1        0.0082
     11 C          -1.0790    0.1612    0.1190 C.ar    1  UNL1       -0.0290
     12 C           0.1742    0.1369   -0.4498 C.ar    1  UNL1        0.0713
     13 N           0.2580    0.2283   -1.7693 N.ar    1  UNL1       -0.3019
     14 C           1.6603    0.1863   -2.2016 C.3     1  UNL1        0.0539
     15 C           2.3712    0.0549   -0.9055 C.ar    1  UNL1        0.0003
     16 C           3.7438   -0.0277   -0.7570 C.ar    1  UNL1       -0.0456
     17 C           4.2160   -0.1477    0.5546 C.ar    1  UNL1        0.0007
     18 C           5.5782   -0.2337    0.7566 C.ar    1  UNL1       -0.0526
     19 C           6.0593   -0.3524    2.0445 C.ar    1  UNL1       -0.0611
     20 C           5.2017   -0.3868    3.1375 C.ar    1  UNL1       -0.0597
     21 C           3.8408   -0.2978    2.8933 C.ar    1  UNL1       -0.0357
     22 C           3.3082   -0.1774    1.6178 C.ar    1  UNL1        0.0717
     23 N           1.9729   -0.0927    1.4150 N.ar    1  UNL1       -0.2449
     24 C           1.4767    0.0245    0.1584 C.ar    1  UNL1        0.0929
     25 C          -0.8399    0.3417   -2.5389 C.ar    1  UNL1        0.2589
     26 O          -0.7229    0.4278   -3.8083 O.2     1  UNL1       -0.2672
     27 H          -2.6984   -0.8543    2.7747 H       1  UNL1        0.0231
     28 H          -2.8614   -1.6253    1.1096 H       1  UNL1        0.0231
     29 H          -4.2263   -1.6554    2.2592 H       1  UNL1        0.0231
     30 H          -3.5074    1.0838    1.9327 H       1  UNL1        0.0299
     31 H          -4.9813    0.2613    1.4635 H       1  UNL1        0.0299
     32 H          -5.2316   -0.5361   -0.7870 H       1  UNL1        0.2113
     33 H          -3.0834    0.9939   -3.8023 H       1  UNL1        0.0750
     34 H          -3.8252   -0.4636   -3.0541 H       1  UNL1        0.0750
     35 H          -1.1908    0.0916    1.1679 H       1  UNL1        0.0643
     36 H           1.9697    1.1631   -2.6510 H       1  UNL1        0.0543
     37 H           1.8614   -0.6300   -2.8955 H       1  UNL1        0.0543
     38 H           4.4471   -0.0068   -1.5524 H       1  UNL1        0.0628
     39 H           6.2966   -0.2129   -0.0471 H       1  UNL1        0.0624
     40 H           7.1327   -0.4220    2.2300 H       1  UNL1        0.0618
     41 H           5.5559   -0.4805    4.1715 H       1  UNL1        0.0618
     42 H           3.1677   -0.3247    3.7482 H       1  UNL1        0.0639
@<TRIPOS>BOND
     1     1     2    1
     2     2     3    1
     3     3     4    1
     4     3     5    1
     5     5     6    2
     6     5     7    1
     7     7     8    1
     8     8     9    1
     9     9    10   ar
    10    10    11   ar
    11    11    12   ar
    12    12    13   ar
    13    13    14    1
    14    14    15    1
    15    15    16   ar
    16    16    17   ar
    17    17    18   ar
    18    18    19   ar
    19    19    20   ar
    20    20    21   ar
    21    21    22   ar
    22    22    23   ar
    23    23    24   ar
    24    13    25   ar
    25    25    26    2
    26    10     3    1
    27    24    12    1
    28    25     9   ar
    29    24    15   ar
    30    22    17   ar
    31     1    27    1
    32     1    28    1
    33     1    29    1
    34     2    30    1
    35     2    31    1
    36     4    32    1
    37     8    33    1
    38     8    34    1
    39    11    35    1
    40    14    36    1
    41    14    37    1
    42    16    38    1
    43    18    39    1
    44    19    40    1
    45    20    41    1
    46    21    42    1
