
     RDKit          3D

 47 50  0  0  0  0  0  0  0  0999 V2000
    4.5313   -2.2537    1.7651 C   0  0  0  0  0  0  0  0  0  0  0  0
    3.9493   -1.1619    0.9766 N   0  0  0  0  0  0  0  0  0  0  0  0
    2.6643   -0.9079    0.7968 N   0  0  0  0  0  0  0  0  0  0  0  0
    2.5194    0.1826    0.0078 C   0  0  0  0  0  0  0  0  0  0  0  0
    1.2731    0.8281   -0.4555 C   0  0  0  0  0  0  0  0  0  0  0  0
    1.3394    1.8618   -1.2040 O   0  0  0  0  0  0  0  0  0  0  0  0
    0.0211    0.2908   -0.0625 N   0  0  0  0  0  0  0  0  0  0  0  0
   -1.2275    0.9247   -0.5175 C   0  0  2  0  0  0  0  0  0  0  0  0
   -1.9614    1.4683    0.6505 C   0  0  0  0  0  0  0  0  0  0  0  0
   -3.2764    0.7099    0.8868 C   0  0  2  0  0  0  0  0  0  0  0  0
   -3.0549   -0.6586    1.3811 C   0  0  0  0  0  0  0  0  0  0  0  0
   -3.3725   -1.7918    0.4717 C   0  0  0  0  0  0  0  0  0  0  0  0
   -3.9524   -1.4196   -0.8606 C   0  0  0  0  0  0  0  0  0  0  0  0
   -3.4284   -0.0471   -1.3005 C   0  0  2  0  0  0  0  0  0  0  0  0
   -1.9517   -0.0469   -1.3807 C   0  0  0  0  0  0  0  0  0  0  0  0
   -3.9870    0.8672   -0.3419 N   0  0  0  0  0  0  0  0  0  0  0  0
   -5.3886    0.6777   -0.1854 C   0  0  0  0  0  0  0  0  0  0  0  0
    3.7937    0.6102   -0.3058 C   0  0  0  0  0  0  0  0  0  0  0  0
    4.6754   -0.2600    0.3213 C   0  0  0  0  0  0  0  0  0  0  0  0
    6.0505   -0.0557    0.1690 C   0  0  0  0  0  0  0  0  0  0  0  0
    6.4991    0.9940   -0.5923 C   0  0  0  0  0  0  0  0  0  0  0  0
    5.6435    1.8746   -1.2270 C   0  0  0  0  0  0  0  0  0  0  0  0
    4.2810    1.6607   -1.0679 C   0  0  0  0  0  0  0  0  0  0  0  0
    3.7517   -2.7742    2.3473 H   0  0  0  0  0  0  0  0  0  0  0  0
    5.3121   -1.8296    2.4353 H   0  0  0  0  0  0  0  0  0  0  0  0
    5.0136   -2.9871    1.0888 H   0  0  0  0  0  0  0  0  0  0  0  0
    0.0524   -0.5674    0.5586 H   0  0  0  0  0  0  0  0  0  0  0  0
   -0.8680    1.7752   -1.1350 H   0  0  0  0  0  0  0  0  0  0  0  0
   -1.3898    1.4854    1.5901 H   0  0  0  0  0  0  0  0  0  0  0  0
   -2.2944    2.5063    0.4422 H   0  0  0  0  0  0  0  0  0  0  0  0
   -3.8116    1.3517    1.6456 H   0  0  0  0  0  0  0  0  0  0  0  0
   -2.0057   -0.7412    1.7801 H   0  0  0  0  0  0  0  0  0  0  0  0
   -3.6767   -0.7966    2.3153 H   0  0  0  0  0  0  0  0  0  0  0  0
   -4.0690   -2.5278    0.9259 H   0  0  0  0  0  0  0  0  0  0  0  0
   -2.4393   -2.3711    0.2780 H   0  0  0  0  0  0  0  0  0  0  0  0
   -5.0441   -1.4066   -0.8654 H   0  0  0  0  0  0  0  0  0  0  0  0
   -3.6279   -2.1155   -1.6816 H   0  0  0  0  0  0  0  0  0  0  0  0
   -3.9239    0.1498   -2.2749 H   0  0  0  0  0  0  0  0  0  0  0  0
   -1.5800   -1.0768   -1.1925 H   0  0  0  0  0  0  0  0  0  0  0  0
   -1.6674    0.1294   -2.4566 H   0  0  0  0  0  0  0  0  0  0  0  0
   -5.6251   -0.0550    0.6266 H   0  0  0  0  0  0  0  0  0  0  0  0
   -5.8102    1.6609    0.1740 H   0  0  0  0  0  0  0  0  0  0  0  0
   -5.9319    0.4157   -1.1135 H   0  0  0  0  0  0  0  0  0  0  0  0
    6.7544   -0.7282    0.6537 H   0  0  0  0  0  0  0  0  0  0  0  0
    7.5624    1.1334   -0.6966 H   0  0  0  0  0  0  0  0  0  0  0  0
    6.0657    2.6876   -1.8169 H   0  0  0  0  0  0  0  0  0  0  0  0
    3.6124    2.3344   -1.5534 H   0  0  0  0  0  0  0  0  0  0  0  0
  1  2  1  0
  2  3  1  0
  3  4  2  0
  4  5  1  0
  5  6  2  0
  5  7  1  0
  7  8  1  0
  8  9  1  0
  9 10  1  0
 10 11  1  0
 11 12  1  0
 12 13  1  0
 13 14  1  0
 14 15  1  0
 14 16  1  0
 16 17  1  0
  4 18  1  0
 18 19  2  0
 19 20  1  0
 20 21  2  0
 21 22  1  0
 22 23  2  0
 19  2  1  0
 15  8  1  0
 23 18  1  0
 16 10  1  0
  1 24  1  0
  1 25  1  0
  1 26  1  0
  7 27  1  0
  8 28  1  6
  9 29  1  0
  9 30  1  0
 10 31  1  1
 11 32  1  0
 11 33  1  0
 12 34  1  0
 12 35  1  0
 13 36  1  0
 13 37  1  0
 14 38  1  6
 15 39  1  0
 15 40  1  0
 17 41  1  0
 17 42  1  0
 17 43  1  0
 20 44  1  0
 21 45  1  0
 22 46  1  0
 23 47  1  0
M  END
$$$$
