@<TRIPOS>MOLECULE
*****
 37 40 0 0 0
SMALL
GASTEIGER

@<TRIPOS>ATOM
      1 C          -2.6615   -0.3857   -2.6781 C.3     1  UNL1       -0.0428
      2 C          -3.2602   -0.2717   -1.2969 C.3     1  UNL1        0.0493
      3 C          -4.0279    1.0259   -1.1605 C.3     1  UNL1       -0.0428
      4 N          -2.1565   -0.2416   -0.3426 N.ar    1  UNL1       -0.2431
      5 N          -0.8673   -0.1590   -0.5962 N.ar    1  UNL1       -0.1667
      6 C          -0.1473   -0.1578    0.5586 C.ar    1  UNL1        0.1267
      7 C           1.3012   -0.0765    0.6061 C.ar    1  UNL1        0.1342
      8 C           2.1583    0.0111   -0.5038 C.ar    1  UNL1        0.0101
      9 C           3.4609    0.0704   -0.0618 C.ar    1  UNL1        0.1410
     10 C           4.7226    0.1694   -0.8333 C.3     1  UNL1        0.0199
     11 C           4.7499   -0.5561   -2.1305 C.3     1  UNL1       -0.0426
     12 C           4.7208    0.9654   -2.0851 C.3     1  UNL1       -0.0426
     13 O           3.3948    0.0214    1.2447 O.2     1  UNL1       -0.3587
     14 N           2.1501   -0.0632    1.6278 N.ar    1  UNL1       -0.0764
     15 C          -1.0874   -0.2460    1.5491 C.ar    1  UNL1        0.0875
     16 C          -1.0025   -0.2884    2.9142 C.ar    1  UNL1        0.1308
     17 N           0.2698   -0.2373    3.5398 N.pl3   1  UNL1       -0.3425
     18 N          -2.1291   -0.3799    3.6903 N.ar    1  UNL1       -0.2204
     19 C          -3.3187   -0.4271    3.0890 C.ar    1  UNL1        0.1204
     20 N          -3.4708   -0.3897    1.7581 N.ar    1  UNL1       -0.2161
     21 C          -2.3681   -0.2999    0.9904 C.ar    1  UNL1        0.1641
     22 H          -3.4788   -0.4153   -3.4491 H       1  UNL1        0.0250
     23 H          -2.0581   -1.3186   -2.7021 H       1  UNL1        0.0250
     24 H          -2.0538    0.4948   -2.8665 H       1  UNL1        0.0250
     25 H          -3.9390   -1.1235   -1.0545 H       1  UNL1        0.0540
     26 H          -3.8344    1.4607   -0.1684 H       1  UNL1        0.0250
     27 H          -5.1247    0.8317   -1.2628 H       1  UNL1        0.0250
     28 H          -3.6721    1.7565   -1.9323 H       1  UNL1        0.0250
     29 H           1.8324    0.0277   -1.5222 H       1  UNL1        0.0675
     30 H           5.6653    0.2033   -0.2552 H       1  UNL1        0.0380
     31 H           5.6775   -1.0555   -2.4765 H       1  UNL1        0.0272
     32 H           3.8258   -1.0333   -2.5248 H       1  UNL1        0.0272
     33 H           5.6338    1.4721   -2.4397 H       1  UNL1        0.0272
     34 H           3.7790    1.4799   -2.4233 H       1  UNL1        0.0272
     35 H           0.6539    0.7008    3.7750 H       1  UNL1        0.1437
     36 H           0.8468   -1.0649    3.7951 H       1  UNL1        0.1437
     37 H          -4.1848   -0.5001    3.7644 H       1  UNL1        0.1048
@<TRIPOS>BOND
     1     1     2    1
     2     2     3    1
     3     2     4    1
     4     4     5   ar
     5     5     6   ar
     6     6     7    1
     7     7     8   ar
     8     8     9   ar
     9     9    10    1
    10    10    11    1
    11    11    12    1
    12     9    13   ar
    13    13    14   ar
    14     6    15   ar
    15    15    16   ar
    16    16    17    1
    17    16    18   ar
    18    18    19   ar
    19    19    20   ar
    20    20    21   ar
    21    21     4   ar
    22    14     7   ar
    23    21    15   ar
    24    12    10    1
    25     1    22    1
    26     1    23    1
    27     1    24    1
    28     2    25    1
    29     3    26    1
    30     3    27    1
    31     3    28    1
    32     8    29    1
    33    10    30    1
    34    11    31    1
    35    11    32    1
    36    12    33    1
    37    12    34    1
    38    17    35    1
    39    17    36    1
    40    19    37    1
