
     RDKit          3D

 37 40  0  0  0  0  0  0  0  0999 V2000
   -2.6615   -0.3857   -2.6781 C   0  0  0  0  0  0  0  0  0  0  0  0
   -3.2602   -0.2717   -1.2969 C   0  0  0  0  0  0  0  0  0  0  0  0
   -4.0279    1.0259   -1.1605 C   0  0  0  0  0  0  0  0  0  0  0  0
   -2.1565   -0.2416   -0.3426 N   0  0  0  0  0  0  0  0  0  0  0  0
   -0.8673   -0.1590   -0.5962 N   0  0  0  0  0  0  0  0  0  0  0  0
   -0.1473   -0.1578    0.5586 C   0  0  0  0  0  0  0  0  0  0  0  0
    1.3012   -0.0765    0.6061 C   0  0  0  0  0  0  0  0  0  0  0  0
    2.1583    0.0111   -0.5038 C   0  0  0  0  0  0  0  0  0  0  0  0
    3.4609    0.0704   -0.0618 C   0  0  0  0  0  0  0  0  0  0  0  0
    4.7226    0.1694   -0.8333 C   0  0  0  0  0  0  0  0  0  0  0  0
    4.7499   -0.5561   -2.1305 C   0  0  0  0  0  0  0  0  0  0  0  0
    4.7208    0.9654   -2.0851 C   0  0  0  0  0  0  0  0  0  0  0  0
    3.3948    0.0214    1.2447 O   0  0  0  0  0  0  0  0  0  0  0  0
    2.1501   -0.0632    1.6278 N   0  0  0  0  0  0  0  0  0  0  0  0
   -1.0874   -0.2460    1.5491 C   0  0  0  0  0  0  0  0  0  0  0  0
   -1.0025   -0.2884    2.9142 C   0  0  0  0  0  0  0  0  0  0  0  0
    0.2698   -0.2373    3.5398 N   0  0  0  0  0  0  0  0  0  0  0  0
   -2.1291   -0.3799    3.6903 N   0  0  0  0  0  0  0  0  0  0  0  0
   -3.3187   -0.4271    3.0890 C   0  0  0  0  0  0  0  0  0  0  0  0
   -3.4708   -0.3897    1.7581 N   0  0  0  0  0  0  0  0  0  0  0  0
   -2.3681   -0.2999    0.9904 C   0  0  0  0  0  0  0  0  0  0  0  0
   -3.4788   -0.4153   -3.4491 H   0  0  0  0  0  0  0  0  0  0  0  0
   -2.0581   -1.3186   -2.7021 H   0  0  0  0  0  0  0  0  0  0  0  0
   -2.0538    0.4948   -2.8665 H   0  0  0  0  0  0  0  0  0  0  0  0
   -3.9390   -1.1235   -1.0545 H   0  0  0  0  0  0  0  0  0  0  0  0
   -3.8344    1.4607   -0.1684 H   0  0  0  0  0  0  0  0  0  0  0  0
   -5.1247    0.8317   -1.2628 H   0  0  0  0  0  0  0  0  0  0  0  0
   -3.6721    1.7565   -1.9323 H   0  0  0  0  0  0  0  0  0  0  0  0
    1.8324    0.0277   -1.5222 H   0  0  0  0  0  0  0  0  0  0  0  0
    5.6653    0.2033   -0.2552 H   0  0  0  0  0  0  0  0  0  0  0  0
    5.6775   -1.0555   -2.4765 H   0  0  0  0  0  0  0  0  0  0  0  0
    3.8258   -1.0333   -2.5248 H   0  0  0  0  0  0  0  0  0  0  0  0
    5.6338    1.4721   -2.4397 H   0  0  0  0  0  0  0  0  0  0  0  0
    3.7790    1.4799   -2.4233 H   0  0  0  0  0  0  0  0  0  0  0  0
    0.6539    0.7008    3.7750 H   0  0  0  0  0  0  0  0  0  0  0  0
    0.8468   -1.0649    3.7951 H   0  0  0  0  0  0  0  0  0  0  0  0
   -4.1848   -0.5001    3.7644 H   0  0  0  0  0  0  0  0  0  0  0  0
  1  2  1  0
  2  3  1  0
  2  4  1  0
  4  5  1  0
  5  6  2  0
  6  7  1  0
  7  8  1  0
  8  9  2  0
  9 10  1  0
 10 11  1  0
 11 12  1  0
  9 13  1  0
 13 14  1  0
  6 15  1  0
 15 16  2  0
 16 17  1  0
 16 18  1  0
 18 19  2  0
 19 20  1  0
 20 21  2  0
 21  4  1  0
 14  7  2  0
 21 15  1  0
 12 10  1  0
  1 22  1  0
  1 23  1  0
  1 24  1  0
  2 25  1  0
  3 26  1  0
  3 27  1  0
  3 28  1  0
  8 29  1  0
 10 30  1  0
 11 31  1  0
 11 32  1  0
 12 33  1  0
 12 34  1  0
 17 35  1  0
 17 36  1  0
 19 37  1  0
M  END
$$$$
