
     RDKit          3D

 47 50  0  0  0  0  0  0  0  0999 V2000
    2.4314    1.3459    1.1715 C   0  0  0  0  0  0  0  0  0  0  0  0
    2.3290    0.8756   -0.2499 C   0  0  2  0  0  0  0  0  0  0  0  0
    1.4399    1.7125   -1.1008 C   0  0  0  0  0  0  0  0  0  0  0  0
    0.0520    1.6906   -0.5105 C   0  0  0  0  0  0  0  0  0  0  0  0
   -0.4483    0.3011   -0.3756 C   0  0  1  0  0  0  0  0  0  0  0  0
    0.5064   -0.5987    0.3862 C   0  0  1  0  0  0  0  0  0  0  0  0
    0.0617   -1.9856    0.5552 C   0  0  0  0  0  0  0  0  0  0  0  0
   -1.3936   -2.2504    0.6313 C   0  0  0  0  0  0  0  0  0  0  0  0
   -2.2419   -1.1993    0.0230 C   0  0  0  0  0  0  0  0  0  0  0  0
   -3.3144   -1.4647   -0.6989 C   0  0  0  0  0  0  0  0  0  0  0  0
   -4.1428   -0.4282   -1.2936 C   0  0  0  0  0  0  0  0  0  0  0  0
   -5.2978   -0.7262   -1.6776 O   0  0  0  0  0  0  0  0  0  0  0  0
   -3.5408    0.9238   -1.3989 C   0  0  0  0  0  0  0  0  0  0  0  0
   -2.7825    1.2372   -0.1339 C   0  0  0  0  0  0  0  0  0  0  0  0
   -1.8017    0.2069    0.2797 C   0  0  2  0  0  0  0  0  0  0  0  0
   -1.6723    0.3017    1.8088 C   0  0  0  0  0  0  0  0  0  0  0  0
    1.8038   -0.5548   -0.3353 C   0  0  2  0  0  0  0  0  0  0  0  0
    2.9108   -1.3406    0.2377 C   0  0  0  0  0  0  0  0  0  0  0  0
    4.1695   -0.5974   -0.2321 C   0  0  0  0  0  0  0  0  0  0  0  0
    3.6944    0.6900   -0.7752 C   0  0  0  0  0  0  0  0  0  0  0  0
    4.2793    1.4503   -1.4987 O   0  0  0  0  0  0  0  0  0  0  0  0
    2.8201    0.5296    1.7878 H   0  0  0  0  0  0  0  0  0  0  0  0
    1.5112    1.7433    1.5937 H   0  0  0  0  0  0  0  0  0  0  0  0
    3.1922    2.1792    1.1874 H   0  0  0  0  0  0  0  0  0  0  0  0
    1.3671    1.2226   -2.0989 H   0  0  0  0  0  0  0  0  0  0  0  0
    1.8151    2.7332   -1.2709 H   0  0  0  0  0  0  0  0  0  0  0  0
   -0.0451    2.3080    0.4024 H   0  0  0  0  0  0  0  0  0  0  0  0
   -0.6005    2.2055   -1.2769 H   0  0  0  0  0  0  0  0  0  0  0  0
   -0.5362   -0.1384   -1.3955 H   0  0  0  0  0  0  0  0  0  0  0  0
    0.6591   -0.1061    1.3855 H   0  0  0  0  0  0  0  0  0  0  0  0
    0.5270   -2.3901    1.5037 H   0  0  0  0  0  0  0  0  0  0  0  0
    0.5176   -2.6322   -0.2518 H   0  0  0  0  0  0  0  0  0  0  0  0
   -1.6367   -3.2044    0.0876 H   0  0  0  0  0  0  0  0  0  0  0  0
   -1.7634   -2.4112    1.6671 H   0  0  0  0  0  0  0  0  0  0  0  0
   -3.5924   -2.5071   -0.8570 H   0  0  0  0  0  0  0  0  0  0  0  0
   -2.9014    0.9549   -2.2814 H   0  0  0  0  0  0  0  0  0  0  0  0
   -4.3911    1.6417   -1.4550 H   0  0  0  0  0  0  0  0  0  0  0  0
   -3.5610    1.3048    0.6819 H   0  0  0  0  0  0  0  0  0  0  0  0
   -2.3043    2.2124   -0.1644 H   0  0  0  0  0  0  0  0  0  0  0  0
   -1.1428   -0.5518    2.2313 H   0  0  0  0  0  0  0  0  0  0  0  0
   -1.2804    1.2898    2.0953 H   0  0  0  0  0  0  0  0  0  0  0  0
   -2.7302    0.2511    2.1937 H   0  0  0  0  0  0  0  0  0  0  0  0
    1.6403   -0.7827   -1.3931 H   0  0  0  0  0  0  0  0  0  0  0  0
    2.9411   -2.3360   -0.2522 H   0  0  0  0  0  0  0  0  0  0  0  0
    2.8927   -1.4577    1.3327 H   0  0  0  0  0  0  0  0  0  0  0  0
    4.7537   -1.1889   -0.9458 H   0  0  0  0  0  0  0  0  0  0  0  0
    4.8059   -0.4591    0.6803 H   0  0  0  0  0  0  0  0  0  0  0  0
  2  1  1  1
  2  3  1  0
  3  4  1  0
  4  5  1  0
  5  6  1  0
  6  7  1  0
  7  8  1  0
  8  9  1  0
  9 10  2  0
 10 11  1  0
 11 12  2  0
 11 13  1  0
 13 14  1  0
 14 15  1  0
 15 16  1  1
  6 17  1  0
 17 18  1  0
 18 19  1  0
 19 20  1  0
 20 21  2  0
 17  2  1  0
 20  2  1  0
 15  5  1  0
 15  9  1  0
  1 22  1  0
  1 23  1  0
  1 24  1  0
  3 25  1  0
  3 26  1  0
  4 27  1  0
  4 28  1  0
  5 29  1  6
  6 30  1  1
  7 31  1  0
  7 32  1  0
  8 33  1  0
  8 34  1  0
 10 35  1  0
 13 36  1  0
 13 37  1  0
 14 38  1  0
 14 39  1  0
 16 40  1  0
 16 41  1  0
 16 42  1  0
 17 43  1  6
 18 44  1  0
 18 45  1  0
 19 46  1  0
 19 47  1  0
M  END
$$$$
