@<TRIPOS>MOLECULE
*****
 47 50 0 0 0
SMALL
GASTEIGER

@<TRIPOS>ATOM
      1 C           2.4314    1.3459    1.1715 C.3     1  UNL1       -0.0526
      2 C           2.3290    0.8756   -0.2499 C.3     1  UNL1        0.0293
      3 C           1.4399    1.7125   -1.1008 C.3     1  UNL1       -0.0404
      4 C           0.0520    1.6906   -0.5105 C.3     1  UNL1       -0.0483
      5 C          -0.4483    0.3011   -0.3756 C.3     1  UNL1       -0.0288
      6 C           0.5064   -0.5987    0.3862 C.3     1  UNL1       -0.0334
      7 C           0.0617   -1.9856    0.5552 C.3     1  UNL1       -0.0459
      8 C          -1.3936   -2.2504    0.6313 C.3     1  UNL1       -0.0305
      9 C          -2.2419   -1.1993    0.0230 C.2     1  UNL1       -0.0601
     10 C          -3.3144   -1.4647   -0.6989 C.2     1  UNL1       -0.0194
     11 C          -4.1428   -0.4282   -1.2936 C.2     1  UNL1        0.1561
     12 O          -5.2978   -0.7262   -1.6776 O.2     1  UNL1       -0.2927
     13 C          -3.5408    0.9238   -1.3989 C.3     1  UNL1        0.0107
     14 C          -2.7825    1.2372   -0.1339 C.3     1  UNL1       -0.0367
     15 C          -1.8017    0.2069    0.2797 C.3     1  UNL1       -0.0072
     16 C          -1.6723    0.3017    1.8088 C.3     1  UNL1       -0.0556
     17 C           1.8038   -0.5548   -0.3353 C.3     1  UNL1       -0.0254
     18 C           2.9108   -1.3406    0.2377 C.3     1  UNL1       -0.0424
     19 C           4.1695   -0.5974   -0.2321 C.3     1  UNL1        0.0067
     20 C           3.6944    0.6900   -0.7752 C.2     1  UNL1        0.1395
     21 O           4.2793    1.4503   -1.4987 O.2     1  UNL1       -0.2968
     22 H           2.8201    0.5296    1.7878 H       1  UNL1        0.0239
     23 H           1.5112    1.7433    1.5937 H       1  UNL1        0.0239
     24 H           3.1922    2.1792    1.1874 H       1  UNL1        0.0239
     25 H           1.3671    1.2226   -2.0989 H       1  UNL1        0.0275
     26 H           1.8151    2.7332   -1.2709 H       1  UNL1        0.0275
     27 H          -0.0451    2.3080    0.4024 H       1  UNL1        0.0269
     28 H          -0.6005    2.2055   -1.2769 H       1  UNL1        0.0269
     29 H          -0.5362   -0.1384   -1.3955 H       1  UNL1        0.0312
     30 H           0.6591   -0.1061    1.3855 H       1  UNL1        0.0307
     31 H           0.5270   -2.3901    1.5037 H       1  UNL1        0.0271
     32 H           0.5176   -2.6322   -0.2518 H       1  UNL1        0.0271
     33 H          -1.6367   -3.2044    0.0876 H       1  UNL1        0.0310
     34 H          -1.7634   -2.4112    1.6671 H       1  UNL1        0.0310
     35 H          -3.5924   -2.5071   -0.8570 H       1  UNL1        0.0652
     36 H          -2.9014    0.9549   -2.2814 H       1  UNL1        0.0345
     37 H          -4.3911    1.6417   -1.4550 H       1  UNL1        0.0345
     38 H          -3.5610    1.3048    0.6819 H       1  UNL1        0.0278
     39 H          -2.3043    2.2124   -0.1644 H       1  UNL1        0.0278
     40 H          -1.1428   -0.5518    2.2313 H       1  UNL1        0.0238
     41 H          -1.2804    1.2898    2.0953 H       1  UNL1        0.0238
     42 H          -2.7302    0.2511    2.1937 H       1  UNL1        0.0238
     43 H           1.6403   -0.7827   -1.3931 H       1  UNL1        0.0313
     44 H           2.9411   -2.3360   -0.2522 H       1  UNL1        0.0272
     45 H           2.8927   -1.4577    1.3327 H       1  UNL1        0.0272
     46 H           4.7537   -1.1889   -0.9458 H       1  UNL1        0.0342
     47 H           4.8059   -0.4591    0.6803 H       1  UNL1        0.0342
@<TRIPOS>BOND
     1     2     1    1
     2     2     3    1
     3     3     4    1
     4     4     5    1
     5     5     6    1
     6     6     7    1
     7     7     8    1
     8     8     9    1
     9     9    10    2
    10    10    11    1
    11    11    12    2
    12    11    13    1
    13    13    14    1
    14    14    15    1
    15    15    16    1
    16     6    17    1
    17    17    18    1
    18    18    19    1
    19    19    20    1
    20    20    21    2
    21    17     2    1
    22    20     2    1
    23    15     5    1
    24    15     9    1
    25     1    22    1
    26     1    23    1
    27     1    24    1
    28     3    25    1
    29     3    26    1
    30     4    27    1
    31     4    28    1
    32     5    29    1
    33     6    30    1
    34     7    31    1
    35     7    32    1
    36     8    33    1
    37     8    34    1
    38    10    35    1
    39    13    36    1
    40    13    37    1
    41    14    38    1
    42    14    39    1
    43    16    40    1
    44    16    41    1
    45    16    42    1
    46    17    43    1
    47    18    44    1
    48    18    45    1
    49    19    46    1
    50    19    47    1
