@<TRIPOS>MOLECULE
*****
 51 53 0 0 0
SMALL
GASTEIGER

@<TRIPOS>ATOM
      1 C           5.4504    0.9456    0.4361 C.3     1  UNL1       -0.0256
      2 C           4.8318   -0.4004    0.1418 C.3     1  UNL1        0.1602
      3 C           5.5590   -0.9169   -1.1106 C.3     1  UNL1       -0.0256
      4 O           3.5088   -0.3403   -0.1810 O.3     1  UNL1       -0.3566
      5 C           2.6890    0.1993    0.7772 C.3     1  UNL1        0.0928
      6 C           1.2717    0.2203    0.3290 C.ar    1  UNL1        0.0892
      7 C           0.3515   -0.7821    0.5281 C.ar    1  UNL1       -0.0108
      8 C          -0.8631   -0.3630   -0.0506 C.ar    1  UNL1        0.0696
      9 C          -2.0580   -1.2144   -0.0546 C.ar    1  UNL1        0.0006
     10 C          -3.2575   -0.7054    0.3270 C.ar    1  UNL1       -0.0526
     11 C          -4.3564   -1.5772    0.2864 C.ar    1  UNL1       -0.0606
     12 C          -4.2510   -2.8866   -0.1155 C.ar    1  UNL1       -0.0501
     13 C          -3.0337   -3.4047   -0.5029 C.ar    1  UNL1        0.0554
     14 C          -2.9205   -4.8215   -0.9374 C.3     1  UNL1        0.4174
     15 F          -1.9712   -4.9340   -1.9502 F       1  UNL1       -0.1659
     16 F          -2.3841   -5.5138    0.1563 F       1  UNL1       -0.1659
     17 F          -4.1291   -5.3245   -1.3021 F       1  UNL1       -0.1659
     18 C          -1.9582   -2.5531   -0.4638 C.ar    1  UNL1       -0.0409
     19 N          -0.6501    0.8483   -0.5696 N.ar    1  UNL1       -0.2590
     20 C          -1.5705    1.6630   -1.2723 C.3     1  UNL1        0.0685
     21 C          -2.3434    2.6529   -0.5267 C.ar    1  UNL1       -0.0078
     22 C          -3.2491    3.4080   -1.2839 C.ar    1  UNL1       -0.0554
     23 C          -4.0498    4.3786   -0.7623 C.ar    1  UNL1       -0.0614
     24 C          -3.9797    4.6471    0.5813 C.ar    1  UNL1       -0.0604
     25 C          -3.1052    3.9317    1.3667 C.ar    1  UNL1       -0.0431
     26 C          -2.2898    2.9363    0.8087 C.ar    1  UNL1        0.0459
     27 CL         -1.1995    2.0468    1.8414 Cl      1  UNL1       -0.0832
     28 N           0.6196    1.1822   -0.3371 N.ar    1  UNL1       -0.1730
     29 C           5.1840   -1.3370    1.2242 C.2     1  UNL1        0.3365
     30 O           4.4029   -2.0649    1.8541 O.2     1  UNL1       -0.2478
     31 O           6.5465   -1.3961    1.5609 O.3     1  UNL1       -0.4786
     32 H           5.4051    1.1838    1.5330 H       1  UNL1        0.0263
     33 H           6.5322    0.8675    0.2008 H       1  UNL1        0.0263
     34 H           5.0364    1.7526   -0.1832 H       1  UNL1        0.0263
     35 H           5.4365   -1.9981   -1.2319 H       1  UNL1        0.0263
     36 H           6.6052   -0.5684   -1.0984 H       1  UNL1        0.0263
     37 H           5.0400   -0.4233   -1.9814 H       1  UNL1        0.0263
     38 H           2.7798   -0.4014    1.7050 H       1  UNL1        0.0626
     39 H           2.9494    1.2379    1.0587 H       1  UNL1        0.0626
     40 H           0.4702   -1.7338    1.0247 H       1  UNL1        0.0658
     41 H          -3.4121    0.3133    0.6624 H       1  UNL1        0.0624
     42 H          -5.3164   -1.1535    0.5964 H       1  UNL1        0.0618
     43 H          -5.1155   -3.5513   -0.1414 H       1  UNL1        0.0623
     44 H          -0.9767   -2.9029   -0.7563 H       1  UNL1        0.0630
     45 H          -1.0328    2.2402   -2.0949 H       1  UNL1        0.0559
     46 H          -2.3208    1.0623   -1.8611 H       1  UNL1        0.0559
     47 H          -3.3483    3.2368   -2.3643 H       1  UNL1        0.0621
     48 H          -4.7497    4.9611   -1.3509 H       1  UNL1        0.0618
     49 H          -4.6249    5.4274    0.9939 H       1  UNL1        0.0618
     50 H          -3.0478    4.1428    2.4324 H       1  UNL1        0.0632
     51 H           6.8948   -2.2171    2.0577 H       1  UNL1        0.2951
@<TRIPOS>BOND
     1     1     2    1
     2     2     3    1
     3     2     4    1
     4     4     5    1
     5     5     6    1
     6     6     7   ar
     7     7     8   ar
     8     8     9    1
     9     9    10   ar
    10    10    11   ar
    11    11    12   ar
    12    12    13   ar
    13    13    14    1
    14    14    15    1
    15    14    16    1
    16    14    17    1
    17    13    18   ar
    18     8    19   ar
    19    19    20    1
    20    20    21    1
    21    21    22   ar
    22    22    23   ar
    23    23    24   ar
    24    24    25   ar
    25    25    26   ar
    26    26    27    1
    27    19    28   ar
    28     2    29    1
    29    29    30    2
    30    29    31    1
    31    28     6   ar
    32    18     9   ar
    33    26    21   ar
    34     1    32    1
    35     1    33    1
    36     1    34    1
    37     3    35    1
    38     3    36    1
    39     3    37    1
    40     5    38    1
    41     5    39    1
    42     7    40    1
    43    10    41    1
    44    11    42    1
    45    12    43    1
    46    18    44    1
    47    20    45    1
    48    20    46    1
    49    22    47    1
    50    23    48    1
    51    24    49    1
    52    25    50    1
    53    31    51    1
