
     RDKit          3D

 57 59  0  0  0  0  0  0  0  0999 V2000
    5.8786    0.7454    0.0860 C   0  0  0  0  0  0  0  0  0  0  0  0
    5.9579    1.1840   -1.2724 N   0  0  0  0  0  0  0  0  0  0  0  0
    6.1542    0.1179   -2.2055 C   0  0  0  0  0  0  0  0  0  0  0  0
    4.9994    2.1661   -1.6598 C   0  0  0  0  0  0  0  0  0  0  0  0
    3.5845    1.6866   -1.7082 C   0  0  0  0  0  0  0  0  0  0  0  0
    3.0833    1.2058   -0.5010 O   0  0  0  0  0  0  0  0  0  0  0  0
    1.7978    0.7285   -0.3505 C   0  0  0  0  0  0  0  0  0  0  0  0
    0.9892    0.7344   -1.4466 C   0  0  0  0  0  0  0  0  0  0  0  0
   -0.3107    0.3022   -1.4817 C   0  0  0  0  0  0  0  0  0  0  0  0
   -0.8991   -0.1978   -0.3106 C   0  0  0  0  0  0  0  0  0  0  0  0
   -0.0643   -0.2033    0.8137 C   0  0  0  0  0  0  0  0  0  0  0  0
    1.2442    0.2484    0.7875 C   0  0  0  0  0  0  0  0  0  0  0  0
   -2.2001   -0.7907    0.0730 C   0  0  0  0  0  0  0  0  0  0  0  0
   -2.8738   -0.2146    1.1141 C   0  0  0  0  0  0  0  0  0  0  0  0
   -4.1762   -0.8331    1.4766 C   0  0  0  0  0  0  0  0  0  0  0  0
   -4.0942   -1.3556    2.8870 C   0  0  0  0  0  0  0  0  0  0  0  0
   -5.6238   -2.1586    3.3591 Cl  0  0  0  0  0  0  0  0  0  0  0  0
   -2.3033    0.9883    1.7044 C   0  0  0  0  0  0  0  0  0  0  0  0
   -2.1248    1.9243    0.6645 C   0  0  0  0  0  0  0  0  0  0  0  0
   -1.5723    3.1667    0.9635 C   0  0  0  0  0  0  0  0  0  0  0  0
   -1.1918    3.5211    2.2391 C   0  0  0  0  0  0  0  0  0  0  0  0
   -1.3627    2.6144    3.2615 C   0  0  0  0  0  0  0  0  0  0  0  0
   -1.9045    1.4075    2.9407 C   0  0  0  0  0  0  0  0  0  0  0  0
   -2.6134   -2.0006   -0.6408 C   0  0  0  0  0  0  0  0  0  0  0  0
   -2.7497   -2.1583   -2.0001 C   0  0  0  0  0  0  0  0  0  0  0  0
   -3.0982   -3.3258   -2.6230 C   0  0  0  0  0  0  0  0  0  0  0  0
   -3.3394   -4.4487   -1.8789 C   0  0  0  0  0  0  0  0  0  0  0  0
   -3.2284   -4.3954   -0.4800 C   0  0  0  0  0  0  0  0  0  0  0  0
   -2.8740   -3.1789    0.0342 C   0  0  0  0  0  0  0  0  0  0  0  0
    5.4270   -0.2874    0.0825 H   0  0  0  0  0  0  0  0  0  0  0  0
    5.2439    1.4809    0.6291 H   0  0  0  0  0  0  0  0  0  0  0  0
    6.8958    0.7167    0.5304 H   0  0  0  0  0  0  0  0  0  0  0  0
    7.2686    0.0539   -2.3595 H   0  0  0  0  0  0  0  0  0  0  0  0
    5.6484    0.3933   -3.1704 H   0  0  0  0  0  0  0  0  0  0  0  0
    5.7331   -0.8353   -1.8415 H   0  0  0  0  0  0  0  0  0  0  0  0
    5.2751    2.5228   -2.6762 H   0  0  0  0  0  0  0  0  0  0  0  0
    5.1249    3.0348   -0.9795 H   0  0  0  0  0  0  0  0  0  0  0  0
    2.9391    2.5269   -2.0309 H   0  0  0  0  0  0  0  0  0  0  0  0
    3.4910    0.8970   -2.4708 H   0  0  0  0  0  0  0  0  0  0  0  0
    1.2538    1.0830   -2.4569 H   0  0  0  0  0  0  0  0  0  0  0  0
   -1.0163    0.2766   -2.2715 H   0  0  0  0  0  0  0  0  0  0  0  0
   -0.2980   -0.5698    1.8278 H   0  0  0  0  0  0  0  0  0  0  0  0
    1.9141    0.2548    1.6489 H   0  0  0  0  0  0  0  0  0  0  0  0
   -4.4862   -1.6160    0.7989 H   0  0  0  0  0  0  0  0  0  0  0  0
   -4.9954   -0.0493    1.4125 H   0  0  0  0  0  0  0  0  0  0  0  0
   -3.2315   -2.0061    3.0870 H   0  0  0  0  0  0  0  0  0  0  0  0
   -3.9970   -0.4880    3.6118 H   0  0  0  0  0  0  0  0  0  0  0  0
   -2.3473    1.9076   -0.3940 H   0  0  0  0  0  0  0  0  0  0  0  0
   -1.3775    3.9842    0.2594 H   0  0  0  0  0  0  0  0  0  0  0  0
   -0.7566    4.4777    2.5185 H   0  0  0  0  0  0  0  0  0  0  0  0
   -1.1138    2.7480    4.3043 H   0  0  0  0  0  0  0  0  0  0  0  0
   -2.0491    0.6423    3.6840 H   0  0  0  0  0  0  0  0  0  0  0  0
   -2.5906   -1.3249   -2.6604 H   0  0  0  0  0  0  0  0  0  0  0  0
   -3.1905   -3.3940   -3.6938 H   0  0  0  0  0  0  0  0  0  0  0  0
   -3.6146   -5.3647   -2.3889 H   0  0  0  0  0  0  0  0  0  0  0  0
   -3.4286   -5.2953    0.0378 H   0  0  0  0  0  0  0  0  0  0  0  0
   -2.8064   -3.2502    1.1154 H   0  0  0  0  0  0  0  0  0  0  0  0
  1  2  1  0
  2  3  1  0
  2  4  1  0
  4  5  1  0
  5  6  1  0
  6  7  1  0
  7  8  2  0
  8  9  1  0
  9 10  2  0
 10 11  1  0
 11 12  2  0
 10 13  1  0
 13 14  2  0
 14 15  1  0
 15 16  1  0
 16 17  1  0
 14 18  1  0
 18 19  2  0
 19 20  1  0
 20 21  2  0
 21 22  1  0
 22 23  2  0
 13 24  1  0
 24 25  2  0
 25 26  1  0
 26 27  2  0
 27 28  1  0
 28 29  2  0
 12  7  1  0
 23 18  1  0
 29 24  1  0
  1 30  1  0
  1 31  1  0
  1 32  1  0
  3 33  1  0
  3 34  1  0
  3 35  1  0
  4 36  1  0
  4 37  1  0
  5 38  1  0
  5 39  1  0
  8 40  1  0
  9 41  1  0
 11 42  1  0
 12 43  1  0
 15 44  1  0
 15 45  1  0
 16 46  1  0
 16 47  1  0
 19 48  1  0
 20 49  1  0
 21 50  1  0
 22 51  1  0
 23 52  1  0
 25 53  1  0
 26 54  1  0
 27 55  1  0
 28 56  1  0
 29 57  1  0
M  END
$$$$
