@<TRIPOS>MOLECULE
*****
 32 34 0 0 0
SMALL
GASTEIGER

@<TRIPOS>ATOM
      1 O          -2.3183   -3.1110    0.2423 O.2     1  UNL1       -0.2675
      2 C          -1.8907   -1.9327    0.1003 C.ar    1  UNL1        0.2559
      3 N          -0.5533   -1.6616    0.1787 N.ar    1  UNL1       -0.3067
      4 C          -0.0648   -0.4369    0.0351 C.ar    1  UNL1        0.1411
      5 C           1.3679   -0.1614    0.1214 C.ar    1  UNL1        0.0174
      6 C           1.8565    1.1261   -0.0320 C.ar    1  UNL1       -0.0506
      7 C           3.2031    1.3951    0.0476 C.ar    1  UNL1       -0.0495
      8 C           4.1212    0.3803    0.2854 C.ar    1  UNL1        0.0548
      9 C           5.5804    0.6422    0.3761 C.3     1  UNL1        0.4174
     10 F           6.2239   -0.2679   -0.4571 F       1  UNL1       -0.1659
     11 F           5.8912    1.9237   -0.0106 F       1  UNL1       -0.1659
     12 F           6.0421    0.3716    1.6579 F       1  UNL1       -0.1659
     13 C           3.6579   -0.8884    0.4381 C.ar    1  UNL1       -0.0495
     14 C           2.3023   -1.1389    0.3549 C.ar    1  UNL1       -0.0506
     15 N          -0.9445    0.5599   -0.1965 N.ar    1  UNL1       -0.2335
     16 C          -2.2702    0.3500   -0.2833 C.ar    1  UNL1        0.0535
     17 C          -2.7859   -0.9130   -0.1362 C.ar    1  UNL1        0.0480
     18 C          -4.2171   -1.2445   -0.2139 C.3     1  UNL1        0.0257
     19 S          -5.2838    0.1246    0.3153 S.3     1  UNL1       -0.1555
     20 C          -4.1880    1.5430    0.6005 C.3     1  UNL1       -0.0006
     21 C          -3.1595    1.4989   -0.5389 C.3     1  UNL1       -0.0008
     22 H           0.0386   -2.4997    0.3602 H       1  UNL1        0.1704
     23 H           1.1410    1.9186   -0.2175 H       1  UNL1        0.0625
     24 H           3.6099    2.3981   -0.0695 H       1  UNL1        0.0623
     25 H           4.3152   -1.7193    0.6243 H       1  UNL1        0.0623
     26 H           1.9876   -2.1656    0.4839 H       1  UNL1        0.0625
     27 H          -4.4025   -2.0806    0.5230 H       1  UNL1        0.0427
     28 H          -4.5184   -1.6563   -1.1968 H       1  UNL1        0.0427
     29 H          -3.6283    1.3316    1.5487 H       1  UNL1        0.0380
     30 H          -4.7267    2.5011    0.6264 H       1  UNL1        0.0380
     31 H          -3.7678    1.3727   -1.4760 H       1  UNL1        0.0336
     32 H          -2.6190    2.4401   -0.4976 H       1  UNL1        0.0336
@<TRIPOS>BOND
     1     1     2    2
     2     2     3   ar
     3     3     4   ar
     4     4     5    1
     5     5     6   ar
     6     6     7   ar
     7     7     8   ar
     8     8     9    1
     9     9    10    1
    10     9    11    1
    11     9    12    1
    12     8    13   ar
    13    13    14   ar
    14     4    15   ar
    15    15    16   ar
    16    16    17   ar
    17    17    18    1
    18    18    19    1
    19    19    20    1
    20    20    21    1
    21    17     2   ar
    22    14     5   ar
    23    21    16    1
    24     3    22    1
    25     6    23    1
    26     7    24    1
    27    13    25    1
    28    14    26    1
    29    18    27    1
    30    18    28    1
    31    20    29    1
    32    20    30    1
    33    21    31    1
    34    21    32    1
