@<TRIPOS>MOLECULE
*****
 30 31 0 0 0
SMALL
GASTEIGER

@<TRIPOS>ATOM
      1 C           4.3942    1.2460    0.9722 C.3     1  UNL1       -0.0397
      2 C           3.2339    0.6944    0.2419 C.ar    1  UNL1       -0.0503
      3 C           3.0748   -0.6559    0.0219 C.ar    1  UNL1       -0.0570
      4 C           1.9932   -1.1731   -0.6592 C.ar    1  UNL1       -0.0348
      5 C           1.0098   -0.3265   -1.1544 C.ar    1  UNL1        0.1085
      6 S          -0.3448   -0.9424   -2.0475 S.O2    1  UNL1        0.0723
      7 O          -0.9879    0.2298   -2.7895 O.2     1  UNL1       -0.1500
      8 O           0.1544   -1.9417   -3.0630 O.2     1  UNL1       -0.1500
      9 N          -1.5891   -1.6259   -1.0934 N.pl3   1  UNL1       -0.2163
     10 C          -2.2901   -0.8594   -0.1487 C.ar    1  UNL1        0.0480
     11 C          -1.6871   -0.1119    0.8301 C.ar    1  UNL1       -0.0393
     12 C          -2.4593    0.5882    1.7239 C.ar    1  UNL1       -0.0600
     13 C          -3.8369    0.5665    1.6731 C.ar    1  UNL1       -0.0616
     14 C          -4.4554   -0.1827    0.6930 C.ar    1  UNL1       -0.0600
     15 C          -3.7003   -0.8893   -0.2100 C.ar    1  UNL1       -0.0393
     16 C           1.1535    1.0461   -0.9412 C.ar    1  UNL1       -0.0348
     17 C           2.2467    1.5126   -0.2582 C.ar    1  UNL1       -0.0570
     18 H           4.1241    2.1858    1.5058 H       1  UNL1        0.0278
     19 H           5.2245    1.5336    0.2665 H       1  UNL1        0.0278
     20 H           4.8321    0.5026    1.6845 H       1  UNL1        0.0278
     21 H           3.8282   -1.3595    0.3961 H       1  UNL1        0.0621
     22 H           1.8807   -2.2452   -0.8259 H       1  UNL1        0.0637
     23 H          -1.8713   -2.6392   -1.1805 H       1  UNL1        0.1737
     24 H          -0.6217   -0.0900    0.9000 H       1  UNL1        0.0636
     25 H          -1.9821    1.1795    2.4973 H       1  UNL1        0.0618
     26 H          -4.3724    1.1424    2.4100 H       1  UNL1        0.0618
     27 H          -5.5260   -0.2181    0.6301 H       1  UNL1        0.0618
     28 H          -4.1878   -1.4711   -0.9712 H       1  UNL1        0.0636
     29 H           0.3814    1.7203   -1.3291 H       1  UNL1        0.0637
     30 H           2.3806    2.5841   -0.0790 H       1  UNL1        0.0621
@<TRIPOS>BOND
     1     1     2    1
     2     2     3   ar
     3     3     4   ar
     4     4     5   ar
     5     5     6    1
     6     6     7    2
     7     6     8    2
     8     6     9    1
     9     9    10    1
    10    10    11   ar
    11    11    12   ar
    12    12    13   ar
    13    13    14   ar
    14    14    15   ar
    15     5    16   ar
    16    16    17   ar
    17    17     2   ar
    18    15    10   ar
    19     1    18    1
    20     1    19    1
    21     1    20    1
    22     3    21    1
    23     4    22    1
    24     9    23    1
    25    11    24    1
    26    12    25    1
    27    13    26    1
    28    14    27    1
    29    15    28    1
    30    16    29    1
    31    17    30    1
