
     RDKit          3D

 30 31  0  0  0  0  0  0  0  0999 V2000
    4.3942    1.2460    0.9722 C   0  0  0  0  0  0  0  0  0  0  0  0
    3.2339    0.6944    0.2419 C   0  0  0  0  0  0  0  0  0  0  0  0
    3.0748   -0.6559    0.0219 C   0  0  0  0  0  0  0  0  0  0  0  0
    1.9932   -1.1731   -0.6592 C   0  0  0  0  0  0  0  0  0  0  0  0
    1.0098   -0.3265   -1.1544 C   0  0  0  0  0  0  0  0  0  0  0  0
   -0.3448   -0.9424   -2.0475 S   0  0  0  0  0  6  0  0  0  0  0  0
   -0.9879    0.2298   -2.7895 O   0  0  0  0  0  0  0  0  0  0  0  0
    0.1544   -1.9417   -3.0630 O   0  0  0  0  0  0  0  0  0  0  0  0
   -1.5891   -1.6259   -1.0934 N   0  0  0  0  0  0  0  0  0  0  0  0
   -2.2901   -0.8594   -0.1487 C   0  0  0  0  0  0  0  0  0  0  0  0
   -1.6871   -0.1119    0.8301 C   0  0  0  0  0  0  0  0  0  0  0  0
   -2.4593    0.5882    1.7239 C   0  0  0  0  0  0  0  0  0  0  0  0
   -3.8369    0.5665    1.6731 C   0  0  0  0  0  0  0  0  0  0  0  0
   -4.4554   -0.1827    0.6930 C   0  0  0  0  0  0  0  0  0  0  0  0
   -3.7003   -0.8893   -0.2100 C   0  0  0  0  0  0  0  0  0  0  0  0
    1.1535    1.0461   -0.9412 C   0  0  0  0  0  0  0  0  0  0  0  0
    2.2467    1.5126   -0.2582 C   0  0  0  0  0  0  0  0  0  0  0  0
    4.1241    2.1858    1.5058 H   0  0  0  0  0  0  0  0  0  0  0  0
    5.2245    1.5336    0.2665 H   0  0  0  0  0  0  0  0  0  0  0  0
    4.8321    0.5026    1.6845 H   0  0  0  0  0  0  0  0  0  0  0  0
    3.8282   -1.3595    0.3961 H   0  0  0  0  0  0  0  0  0  0  0  0
    1.8807   -2.2452   -0.8259 H   0  0  0  0  0  0  0  0  0  0  0  0
   -1.8713   -2.6392   -1.1805 H   0  0  0  0  0  0  0  0  0  0  0  0
   -0.6217   -0.0900    0.9000 H   0  0  0  0  0  0  0  0  0  0  0  0
   -1.9821    1.1795    2.4973 H   0  0  0  0  0  0  0  0  0  0  0  0
   -4.3724    1.1424    2.4100 H   0  0  0  0  0  0  0  0  0  0  0  0
   -5.5260   -0.2181    0.6301 H   0  0  0  0  0  0  0  0  0  0  0  0
   -4.1878   -1.4711   -0.9712 H   0  0  0  0  0  0  0  0  0  0  0  0
    0.3814    1.7203   -1.3291 H   0  0  0  0  0  0  0  0  0  0  0  0
    2.3806    2.5841   -0.0790 H   0  0  0  0  0  0  0  0  0  0  0  0
  1  2  1  0
  2  3  2  0
  3  4  1  0
  4  5  2  0
  5  6  1  0
  6  7  2  0
  6  8  2  0
  6  9  1  0
  9 10  1  0
 10 11  2  0
 11 12  1  0
 12 13  2  0
 13 14  1  0
 14 15  2  0
  5 16  1  0
 16 17  2  0
 17  2  1  0
 15 10  1  0
  1 18  1  0
  1 19  1  0
  1 20  1  0
  3 21  1  0
  4 22  1  0
  9 23  1  0
 11 24  1  0
 12 25  1  0
 13 26  1  0
 14 27  1  0
 15 28  1  0
 16 29  1  0
 17 30  1  0
M  END
$$$$
