@<TRIPOS>MOLECULE
*****
 20 20 0 0 0
SMALL
GASTEIGER

@<TRIPOS>ATOM
      1 C           3.7310   -0.2446    0.0342 C.3     1  UNL1        0.0125
      2 C           2.3620   -0.3073   -0.5853 C.2     1  UNL1        0.2141
      3 O           2.1279   -0.6090   -1.7757 O.2     1  UNL1       -0.2758
      4 N           1.3581    0.0192    0.3485 N.am    1  UNL1       -0.2857
      5 C          -0.0509    0.0762    0.1638 C.ar    1  UNL1        0.0336
      6 C          -0.6749    1.2334   -0.2319 C.ar    1  UNL1       -0.0370
      7 C          -2.0420    1.3019   -0.4147 C.ar    1  UNL1       -0.0184
      8 C          -2.7624    0.1440   -0.1799 C.ar    1  UNL1        0.1170
      9 O          -4.1486    0.1048   -0.3352 O.3     1  UNL1       -0.5068
     10 C          -2.1580   -1.0526    0.2244 C.ar    1  UNL1       -0.0184
     11 C          -0.7771   -1.0760    0.3964 C.ar    1  UNL1       -0.0370
     12 H           3.7652   -1.0414    0.7915 H       1  UNL1        0.0323
     13 H           4.5166   -0.3482   -0.7321 H       1  UNL1        0.0323
     14 H           3.8190    0.7452    0.5549 H       1  UNL1        0.0323
     15 H           1.4826    0.2790    1.3518 H       1  UNL1        0.1548
     16 H          -0.1132    2.1476   -0.4181 H       1  UNL1        0.0637
     17 H          -2.6064    2.1637   -0.7214 H       1  UNL1        0.0655
     18 H          -4.7883    0.3850    0.4236 H       1  UNL1        0.2921
     19 H          -2.7519   -1.9318    0.3971 H       1  UNL1        0.0655
     20 H          -0.2886   -1.9890    0.7081 H       1  UNL1        0.0637
@<TRIPOS>BOND
     1     1     2    1
     2     2     3    2
     3     2     4   am
     4     4     5    1
     5     5     6   ar
     6     6     7   ar
     7     7     8   ar
     8     8     9    1
     9     8    10   ar
    10    10    11   ar
    11    11     5   ar
    12     1    12    1
    13     1    13    1
    14     1    14    1
    15     4    15    1
    16     6    16    1
    17     7    17    1
    18     9    18    1
    19    10    19    1
    20    11    20    1
