@<TRIPOS>MOLECULE
*****
 29 31 0 0 0
SMALL
GASTEIGER

@<TRIPOS>ATOM
      1 N           3.9439    2.2251    0.0372 N.pl3   1  UNL1       -0.3275
      2 C           3.5323    0.8729    0.0038 C.ar    1  UNL1        0.2130
      3 N           4.5078   -0.0727   -0.0132 N.ar    1  UNL1       -0.2231
      4 C           4.1747   -1.3752   -0.0449 C.ar    1  UNL1        0.0332
      5 C           2.8395   -1.7499   -0.0603 C.ar    1  UNL1       -0.0173
      6 C           1.8434   -0.7843   -0.0429 C.ar    1  UNL1        0.0780
      7 C           0.4396   -1.1690   -0.0588 C.ar    1  UNL1        0.0255
      8 C          -0.0631   -2.4519   -0.0910 C.ar    1  UNL1        0.0119
      9 N          -1.4239   -2.3916   -0.0964 N.ar    1  UNL1       -0.3600
     10 C          -1.7659   -1.0748   -0.0676 C.ar    1  UNL1        0.0476
     11 C          -2.9865   -0.4232   -0.0586 C.ar    1  UNL1       -0.0261
     12 C          -3.1207    0.9409   -0.0276 C.ar    1  UNL1        0.0568
     13 C          -4.4520    1.6232   -0.0184 C.3     1  UNL1        0.4175
     14 F          -4.7151    2.2448   -1.2252 F       1  UNL1       -0.1659
     15 F          -5.4215    0.6616    0.1729 F       1  UNL1       -0.1659
     16 F          -4.5409    2.5505    1.0038 F       1  UNL1       -0.1659
     17 C          -1.9750    1.7055   -0.0042 C.ar    1  UNL1       -0.0494
     18 C          -0.7282    1.0747   -0.0126 C.ar    1  UNL1       -0.0514
     19 C          -0.6198   -0.2966   -0.0439 C.ar    1  UNL1        0.0089
     20 N           2.2351    0.5014   -0.0112 N.ar    1  UNL1       -0.2146
     21 H           3.3860    2.9081    0.5758 H       1  UNL1        0.1452
     22 H           4.7915    2.5103   -0.4742 H       1  UNL1        0.1452
     23 H           4.8972   -2.1691   -0.0597 H       1  UNL1        0.0831
     24 H           2.5246   -2.7780   -0.0856 H       1  UNL1        0.0654
     25 H           0.5577   -3.3385   -0.1085 H       1  UNL1        0.0814
     26 H          -2.0681   -3.1896   -0.1181 H       1  UNL1        0.1654
     27 H          -3.9005   -1.0068   -0.0766 H       1  UNL1        0.0644
     28 H          -2.0603    2.7785    0.0202 H       1  UNL1        0.0623
     29 H           0.1681    1.6735    0.0057 H       1  UNL1        0.0624
@<TRIPOS>BOND
     1     1     2    1
     2     2     3   ar
     3     3     4   ar
     4     4     5   ar
     5     5     6   ar
     6     6     7    1
     7     7     8   ar
     8     8     9   ar
     9     9    10   ar
    10    10    11   ar
    11    11    12   ar
    12    12    13    1
    13    13    14    1
    14    13    15    1
    15    13    16    1
    16    12    17   ar
    17    17    18   ar
    18    18    19   ar
    19     6    20   ar
    20    20     2   ar
    21    19     7   ar
    22    19    10   ar
    23     1    21    1
    24     1    22    1
    25     4    23    1
    26     5    24    1
    27     8    25    1
    28     9    26    1
    29    11    27    1
    30    17    28    1
    31    18    29    1
