
     RDKit          3D

 34 35  0  0  0  0  0  0  0  0999 V2000
    5.4937    0.8495    2.1196 C   0  0  0  0  0  0  0  0  0  0  0  0
    4.1103    0.6111    2.2008 O   0  0  0  0  0  0  0  0  0  0  0  0
    3.4325    0.1324    1.0900 C   0  0  0  0  0  0  0  0  0  0  0  0
    4.1000   -0.1117   -0.0911 C   0  0  0  0  0  0  0  0  0  0  0  0
    3.4684   -0.5861   -1.2162 C   0  0  0  0  0  0  0  0  0  0  0  0
    2.1042   -0.8226   -1.1408 C   0  0  0  0  0  0  0  0  0  0  0  0
    1.3926   -0.5947    0.0155 C   0  0  0  0  0  0  0  0  0  0  0  0
   -0.0405   -0.8593    0.0431 C   0  0  0  0  0  0  0  0  0  0  0  0
   -0.6755   -0.6446    1.1108 O   0  0  0  0  0  0  0  0  0  0  0  0
   -0.7056   -1.3702   -1.1780 C   0  0  0  0  0  0  0  0  0  0  0  0
   -2.4289   -1.6381   -1.0110 S   0  0  0  0  0  6  0  0  0  0  0  0
   -2.9506   -2.1048   -2.3602 O   0  0  0  0  0  0  0  0  0  0  0  0
   -2.6316   -2.7296    0.0061 O   0  0  0  0  0  0  0  0  0  0  0  0
   -3.3381   -0.2101   -0.6012 C   0  0  0  0  0  0  0  0  0  0  0  0
   -3.6543    0.0858    0.7048 C   0  0  0  0  0  0  0  0  0  0  0  0
   -4.3717    1.2319    0.9926 C   0  0  0  0  0  0  0  0  0  0  0  0
   -4.7741    2.0794   -0.0033 C   0  0  0  0  0  0  0  0  0  0  0  0
   -4.4615    1.7883   -1.3052 C   0  0  0  0  0  0  0  0  0  0  0  0
   -3.7384    0.6364   -1.6117 C   0  0  0  0  0  0  0  0  0  0  0  0
    2.0741   -0.1188    1.1150 C   0  0  0  0  0  0  0  0  0  0  0  0
    5.9550    1.0959    3.0735 H   0  0  0  0  0  0  0  0  0  0  0  0
    5.9642   -0.1076    1.7569 H   0  0  0  0  0  0  0  0  0  0  0  0
    5.7220    1.5889    1.3036 H   0  0  0  0  0  0  0  0  0  0  0  0
    5.1760    0.0834   -0.1232 H   0  0  0  0  0  0  0  0  0  0  0  0
    3.9926   -0.7804   -2.1517 H   0  0  0  0  0  0  0  0  0  0  0  0
    1.5759   -1.1958   -2.0068 H   0  0  0  0  0  0  0  0  0  0  0  0
   -0.2417   -2.3819   -1.3688 H   0  0  0  0  0  0  0  0  0  0  0  0
   -0.4524   -0.7720   -2.0768 H   0  0  0  0  0  0  0  0  0  0  0  0
   -3.3598   -0.5628    1.5363 H   0  0  0  0  0  0  0  0  0  0  0  0
   -4.6025    1.4316    2.0395 H   0  0  0  0  0  0  0  0  0  0  0  0
   -5.3435    2.9847    0.2497 H   0  0  0  0  0  0  0  0  0  0  0  0
   -4.7848    2.4637   -2.0743 H   0  0  0  0  0  0  0  0  0  0  0  0
   -3.5284    0.4678   -2.6399 H   0  0  0  0  0  0  0  0  0  0  0  0
    1.5226    0.0603    2.0190 H   0  0  0  0  0  0  0  0  0  0  0  0
  1  2  1  0
  2  3  1  0
  3  4  2  0
  4  5  1  0
  5  6  2  0
  6  7  1  0
  7  8  1  0
  8  9  2  0
  8 10  1  0
 10 11  1  0
 11 12  2  0
 11 13  2  0
 11 14  1  0
 14 15  2  0
 15 16  1  0
 16 17  2  0
 17 18  1  0
 18 19  2  0
  7 20  2  0
 20  3  1  0
 19 14  1  0
  1 21  1  0
  1 22  1  0
  1 23  1  0
  4 24  1  0
  5 25  1  0
  6 26  1  0
 10 27  1  0
 10 28  1  0
 15 29  1  0
 16 30  1  0
 17 31  1  0
 18 32  1  0
 19 33  1  0
 20 34  1  0
M  END
$$$$
