@<TRIPOS>MOLECULE
*****
 34 35 0 0 0
SMALL
GASTEIGER

@<TRIPOS>ATOM
      1 C           5.4937    0.8495    2.1196 C.3     1  UNL1        0.0788
      2 O           4.1103    0.6111    2.2008 O.3     1  UNL1       -0.4951
      3 C           3.4325    0.1324    1.0900 C.ar    1  UNL1        0.1208
      4 C           4.1000   -0.1117   -0.0911 C.ar    1  UNL1       -0.0199
      5 C           3.4684   -0.5861   -1.2162 C.ar    1  UNL1       -0.0576
      6 C           2.1042   -0.8226   -1.1408 C.ar    1  UNL1       -0.0510
      7 C           1.3926   -0.5947    0.0155 C.ar    1  UNL1        0.0225
      8 C          -0.0405   -0.8593    0.0431 C.2     1  UNL1        0.1845
      9 O          -0.6755   -0.6446    1.1108 O.2     1  UNL1       -0.2903
     10 C          -0.7056   -1.3702   -1.1780 C.3     1  UNL1        0.1334
     11 S          -2.4289   -1.6381   -1.0110 S.O2    1  UNL1        0.0041
     12 O          -2.9506   -2.1048   -2.3602 O.2     1  UNL1       -0.1689
     13 O          -2.6316   -2.7296    0.0061 O.2     1  UNL1       -0.1689
     14 C          -3.3381   -0.2101   -0.6012 C.ar    1  UNL1        0.0887
     15 C          -3.6543    0.0858    0.7048 C.ar    1  UNL1       -0.0369
     16 C          -4.3717    1.2319    0.9926 C.ar    1  UNL1       -0.0600
     17 C          -4.7741    2.0794   -0.0033 C.ar    1  UNL1       -0.0616
     18 C          -4.4615    1.7883   -1.3052 C.ar    1  UNL1       -0.0600
     19 C          -3.7384    0.6364   -1.6117 C.ar    1  UNL1       -0.0369
     20 C           2.0741   -0.1188    1.1150 C.ar    1  UNL1       -0.0094
     21 H           5.9550    1.0959    3.0735 H       1  UNL1        0.0660
     22 H           5.9642   -0.1076    1.7569 H       1  UNL1        0.0660
     23 H           5.7220    1.5889    1.3036 H       1  UNL1        0.0660
     24 H           5.1760    0.0834   -0.1232 H       1  UNL1        0.0654
     25 H           3.9926   -0.7804   -2.1517 H       1  UNL1        0.0619
     26 H           1.5759   -1.1958   -2.0068 H       1  UNL1        0.0625
     27 H          -0.2417   -2.3819   -1.3688 H       1  UNL1        0.0587
     28 H          -0.4524   -0.7720   -2.0768 H       1  UNL1        0.0587
     29 H          -3.3598   -0.5628    1.5363 H       1  UNL1        0.0636
     30 H          -4.6025    1.4316    2.0395 H       1  UNL1        0.0618
     31 H          -5.3435    2.9847    0.2497 H       1  UNL1        0.0618
     32 H          -4.7848    2.4637   -2.0743 H       1  UNL1        0.0618
     33 H          -3.5284    0.4678   -2.6399 H       1  UNL1        0.0636
     34 H           1.5226    0.0603    2.0190 H       1  UNL1        0.0661
@<TRIPOS>BOND
     1     1     2    1
     2     2     3    1
     3     3     4   ar
     4     4     5   ar
     5     5     6   ar
     6     6     7   ar
     7     7     8    1
     8     8     9    2
     9     8    10    1
    10    10    11    1
    11    11    12    2
    12    11    13    2
    13    11    14    1
    14    14    15   ar
    15    15    16   ar
    16    16    17   ar
    17    17    18   ar
    18    18    19   ar
    19     7    20   ar
    20    20     3   ar
    21    19    14   ar
    22     1    21    1
    23     1    22    1
    24     1    23    1
    25     4    24    1
    26     5    25    1
    27     6    26    1
    28    10    27    1
    29    10    28    1
    30    15    29    1
    31    16    30    1
    32    17    31    1
    33    18    32    1
    34    19    33    1
    35    20    34    1
