
     RDKit          3D

 56 57  0  0  0  0  0  0  0  0999 V2000
    7.5120    0.0854   -0.2081 C   0  0  0  0  0  0  0  0  0  0  0  0
    6.2027    0.2418   -0.6639 O   0  0  0  0  0  0  0  0  0  0  0  0
    5.6769    1.4064   -0.1452 C   0  0  0  0  0  0  0  0  0  0  0  0
    4.2534    1.6799   -0.5750 C   0  0  0  0  0  0  0  0  0  0  0  0
    3.3767    0.6438   -0.1726 O   0  0  0  0  0  0  0  0  0  0  0  0
    2.0368    0.7095   -0.4710 C   0  0  0  0  0  0  0  0  0  0  0  0
    1.8993    1.8046   -1.1045 O   0  0  0  0  0  0  0  0  0  0  0  0
    1.0583   -0.3073   -0.0992 C   0  0  0  0  0  0  0  0  0  0  0  0
    1.4505   -1.3891    0.5767 C   0  0  0  0  0  0  0  0  0  0  0  0
    2.8460   -1.5986    0.9658 C   0  0  0  0  0  0  0  0  0  0  0  0
    0.4098   -2.3098    0.8832 N   0  0  0  0  0  0  0  0  0  0  0  0
   -0.9618   -2.1493    0.5260 C   0  0  0  0  0  0  0  0  0  0  0  0
   -2.0027   -3.1379    0.8699 C   0  0  0  0  0  0  0  0  0  0  0  0
   -1.2506   -1.0422   -0.1438 C   0  0  0  0  0  0  0  0  0  0  0  0
   -0.3112    0.0313   -0.5547 C   0  0  0  0  0  0  0  0  0  0  0  0
   -0.6463    1.3514   -0.0070 C   0  0  0  0  0  0  0  0  0  0  0  0
   -0.6241    1.4351    1.3885 C   0  0  0  0  0  0  0  0  0  0  0  0
   -0.9246    2.6321    1.9903 C   0  0  0  0  0  0  0  0  0  0  0  0
   -1.2428    3.7326    1.2321 C   0  0  0  0  0  0  0  0  0  0  0  0
   -1.2763    3.6932   -0.1488 C   0  0  0  0  0  0  0  0  0  0  0  0
   -0.9729    2.4894   -0.7186 C   0  0  0  0  0  0  0  0  0  0  0  0
   -0.9178    2.7730    3.3863 N   0  0  0  0  0  4  0  0  0  0  0  0
   -1.2193    3.9732    3.9800 O   0  0  0  0  0  1  0  0  0  0  0  0
   -0.6524    1.8772    4.2038 O   0  0  0  0  0  0  0  0  0  0  0  0
   -2.6159   -0.7523   -0.5714 C   0  0  0  0  0  0  0  0  0  0  0  0
   -3.1007    0.2025   -1.1952 O   0  0  0  0  0  0  0  0  0  0  0  0
   -3.7025   -1.5836   -0.3235 O   0  0  0  0  0  0  0  0  0  0  0  0
   -5.0152   -1.3395   -0.7155 C   0  0  0  0  0  0  0  0  0  0  0  0
   -5.3924   -2.4943   -1.6536 C   0  0  0  0  0  0  0  0  0  0  0  0
   -6.0275   -1.3884    0.4039 C   0  0  0  0  0  0  0  0  0  0  0  0
    8.1344    0.9628   -0.5436 H   0  0  0  0  0  0  0  0  0  0  0  0
    7.8952   -0.8451   -0.7073 H   0  0  0  0  0  0  0  0  0  0  0  0
    7.5862   -0.0969    0.8707 H   0  0  0  0  0  0  0  0  0  0  0  0
    6.3106    2.2484   -0.4909 H   0  0  0  0  0  0  0  0  0  0  0  0
    5.7410    1.3547    0.9595 H   0  0  0  0  0  0  0  0  0  0  0  0
    3.9549    2.6243   -0.0764 H   0  0  0  0  0  0  0  0  0  0  0  0
    4.1612    1.8643   -1.6508 H   0  0  0  0  0  0  0  0  0  0  0  0
    3.5306   -1.6723    0.1080 H   0  0  0  0  0  0  0  0  0  0  0  0
    3.1939   -0.9005    1.7685 H   0  0  0  0  0  0  0  0  0  0  0  0
    2.9016   -2.6129    1.4585 H   0  0  0  0  0  0  0  0  0  0  0  0
    0.6875   -3.1677    1.4128 H   0  0  0  0  0  0  0  0  0  0  0  0
   -2.8186   -2.7455    1.5037 H   0  0  0  0  0  0  0  0  0  0  0  0
   -1.4813   -4.0009    1.3343 H   0  0  0  0  0  0  0  0  0  0  0  0
   -2.4585   -3.5452   -0.0578 H   0  0  0  0  0  0  0  0  0  0  0  0
   -0.3600    0.0819   -1.6638 H   0  0  0  0  0  0  0  0  0  0  0  0
   -0.3802    0.5996    2.0389 H   0  0  0  0  0  0  0  0  0  0  0  0
   -1.4795    4.6778    1.7250 H   0  0  0  0  0  0  0  0  0  0  0  0
   -1.5253    4.5514   -0.7710 H   0  0  0  0  0  0  0  0  0  0  0  0
   -0.9660    2.3344   -1.8007 H   0  0  0  0  0  0  0  0  0  0  0  0
   -5.1624   -0.4079   -1.2603 H   0  0  0  0  0  0  0  0  0  0  0  0
   -4.6294   -2.6051   -2.4587 H   0  0  0  0  0  0  0  0  0  0  0  0
   -6.3780   -2.3070   -2.1194 H   0  0  0  0  0  0  0  0  0  0  0  0
   -5.3358   -3.4077   -1.0458 H   0  0  0  0  0  0  0  0  0  0  0  0
   -7.0073   -1.5975   -0.0787 H   0  0  0  0  0  0  0  0  0  0  0  0
   -6.1372   -0.4133    0.9167 H   0  0  0  0  0  0  0  0  0  0  0  0
   -5.8428   -2.2438    1.0953 H   0  0  0  0  0  0  0  0  0  0  0  0
  1  2  1  0
  2  3  1  0
  3  4  1  0
  4  5  1  0
  5  6  1  0
  6  7  2  0
  6  8  1  0
  8  9  2  0
  9 10  1  0
  9 11  1  0
 11 12  1  0
 12 13  1  0
 12 14  2  0
 14 15  1  0
 15 16  1  0
 16 17  2  0
 17 18  1  0
 18 19  2  0
 19 20  1  0
 20 21  2  0
 18 22  1  0
 22 23  1  0
 22 24  2  0
 14 25  1  0
 25 26  2  0
 25 27  1  0
 27 28  1  0
 28 29  1  0
 28 30  1  0
 15  8  1  0
 21 16  1  0
  1 31  1  0
  1 32  1  0
  1 33  1  0
  3 34  1  0
  3 35  1  0
  4 36  1  0
  4 37  1  0
 10 38  1  0
 10 39  1  0
 10 40  1  0
 11 41  1  0
 13 42  1  0
 13 43  1  0
 13 44  1  0
 15 45  1  0
 17 46  1  0
 19 47  1  0
 20 48  1  0
 21 49  1  0
 28 50  1  0
 29 51  1  0
 29 52  1  0
 29 53  1  0
 30 54  1  0
 30 55  1  0
 30 56  1  0
M  CHG  2  22   1  23  -1
M  END
$$$$
