@<TRIPOS>MOLECULE
*****
 46 50 0 0 0
SMALL
GASTEIGER

@<TRIPOS>ATOM
      1 C           7.4656    1.4461   -0.8685 C.3     1  UNL1        0.0789
      2 O           6.9101    1.0595    0.3678 O.3     1  UNL1       -0.4935
      3 C           5.5418    0.9077    0.5417 C.ar    1  UNL1        0.1402
      4 C           5.0663    0.5274    1.7769 C.ar    1  UNL1        0.0701
      5 N           3.7385    0.3861    1.9239 N.ar    1  UNL1       -0.2480
      6 C           2.8728    0.6016    0.9165 C.ar    1  UNL1        0.1101
      7 C           1.5085    0.4238    1.1840 C.ar    1  UNL1        0.0567
      8 N           1.0820    0.0539    2.4640 N.pl3   1  UNL1       -0.3349
      9 C          -0.2166   -0.1995    2.9693 C.3     1  UNL1        0.0710
     10 C          -0.8965   -1.4102    2.5250 C.ar    1  UNL1        0.1719
     11 N          -0.6152   -2.6289    3.0857 N.ar    1  UNL1       -0.1306
     12 N          -1.3539   -3.5637    2.5664 N.ar    1  UNL1       -0.1279
     13 C          -2.1575   -3.0058    1.6392 C.ar    1  UNL1        0.1780
     14 C          -3.1304   -3.5013    0.8000 C.ar    1  UNL1       -0.0136
     15 C          -3.8001   -2.6315   -0.0507 C.ar    1  UNL1       -0.0305
     16 C          -3.4676   -1.3041   -0.0249 C.ar    1  UNL1        0.0920
     17 C          -4.1258   -0.3426   -0.8843 C.ar    1  UNL1        0.0049
     18 C          -5.1182   -0.6666   -1.7805 C.ar    1  UNL1       -0.0496
     19 C          -5.7369    0.2758   -2.5970 C.ar    1  UNL1       -0.0230
     20 C          -5.3566    1.5986   -2.5234 C.ar    1  UNL1        0.1584
     21 F          -5.9517    2.5185   -3.3117 F       1  UNL1       -0.2025
     22 C          -4.3581    1.9365   -1.6243 C.ar    1  UNL1        0.1590
     23 F          -4.0040    3.2559   -1.5755 F       1  UNL1       -0.2025
     24 C          -3.7489    1.0056   -0.8197 C.ar    1  UNL1       -0.0144
     25 N          -2.5146   -0.8952    0.8137 N.ar    1  UNL1       -0.1633
     26 N          -1.8564   -1.6824    1.6340 N.ar    1  UNL1       -0.1949
     27 C           0.6870    0.6629    0.1048 C.ar    1  UNL1       -0.0206
     28 C           1.1826    1.0483   -1.1443 C.ar    1  UNL1        0.0301
     29 N           2.4975    1.2027   -1.3423 N.ar    1  UNL1       -0.2532
     30 C           3.3429    0.9822   -0.3214 C.ar    1  UNL1        0.0944
     31 C           4.7141    1.1443   -0.5313 C.ar    1  UNL1        0.0091
     32 H           7.1886    2.5123   -1.0750 H       1  UNL1        0.0660
     33 H           8.5640    1.3669   -0.8144 H       1  UNL1        0.0660
     34 H           7.0594    0.8549   -1.7168 H       1  UNL1        0.0660
     35 H           5.7844    0.3613    2.5672 H       1  UNL1        0.0867
     36 H           1.8718   -0.0587    3.1889 H       1  UNL1        0.1466
     37 H          -0.2468   -0.0776    4.0937 H       1  UNL1        0.0543
     38 H          -0.8650    0.6743    2.6299 H       1  UNL1        0.0543
     39 H          -3.3439   -4.5595    0.8297 H       1  UNL1        0.0656
     40 H          -4.5416   -3.0554   -0.6799 H       1  UNL1        0.0641
     41 H          -5.4357   -1.7140   -1.8546 H       1  UNL1        0.0625
     42 H          -6.5189   -0.0457   -3.2883 H       1  UNL1        0.0647
     43 H          -2.9587    1.2949   -0.1131 H       1  UNL1        0.0654
     44 H          -0.3646    0.5638    0.2182 H       1  UNL1        0.0652
     45 H           0.5262    1.2325   -1.9835 H       1  UNL1        0.0830
     46 H           5.0805    1.4444   -1.5086 H       1  UNL1        0.0677
@<TRIPOS>BOND
     1     1     2    1
     2     2     3    1
     3     3     4   ar
     4     4     5   ar
     5     5     6   ar
     6     6     7   ar
     7     7     8    1
     8     8     9    1
     9     9    10    1
    10    10    11   ar
    11    11    12   ar
    12    12    13   ar
    13    13    14   ar
    14    14    15   ar
    15    15    16   ar
    16    16    17    1
    17    17    18   ar
    18    18    19   ar
    19    19    20   ar
    20    20    21    1
    21    20    22   ar
    22    22    23    1
    23    22    24   ar
    24    16    25   ar
    25    25    26   ar
    26     7    27   ar
    27    27    28   ar
    28    28    29   ar
    29    29    30   ar
    30    30    31   ar
    31    31     3   ar
    32    30     6   ar
    33    26    10   ar
    34    26    13   ar
    35    24    17   ar
    36     1    32    1
    37     1    33    1
    38     1    34    1
    39     4    35    1
    40     8    36    1
    41     9    37    1
    42     9    38    1
    43    14    39    1
    44    15    40    1
    45    18    41    1
    46    19    42    1
    47    24    43    1
    48    27    44    1
    49    28    45    1
    50    31    46    1
