@<TRIPOS>MOLECULE
*****
 63 66 0 0 0
SMALL
GASTEIGER

@<TRIPOS>ATOM
      1 C           1.7838    5.1646   -0.1566 C.3     1  UNL1        0.0788
      2 O           0.4838    5.5053   -0.6285 O.3     1  UNL1       -0.4951
      3 C          -0.6146    4.6897   -0.3875 C.ar    1  UNL1        0.1204
      4 C          -1.8548    5.0345   -0.8488 C.ar    1  UNL1       -0.0199
      5 C          -2.9279    4.2068   -0.5952 C.ar    1  UNL1       -0.0580
      6 C          -2.7888    3.0359    0.1128 C.ar    1  UNL1       -0.0568
      7 C          -1.5471    2.6670    0.5884 C.ar    1  UNL1       -0.0266
      8 C          -1.3303    1.4258    1.3653 C.3     1  UNL1        0.0413
      9 N          -1.0495    0.2617    0.6170 N.am    1  UNL1       -0.2798
     10 C          -2.1755   -0.5204    0.0790 C.3     1  UNL1        0.0293
     11 C          -2.5847   -1.5498    1.0980 C.3     1  UNL1        0.0148
     12 N          -3.6567   -2.3355    0.6252 N.3     1  UNL1       -0.3008
     13 C          -3.3135   -3.1826   -0.4665 C.3     1  UNL1       -0.0011
     14 C          -4.4211   -4.1364   -0.8379 C.3     1  UNL1       -0.0402
     15 C          -5.6875   -3.3692   -1.1203 C.3     1  UNL1       -0.0507
     16 C          -5.5212   -1.9013   -0.8706 C.3     1  UNL1       -0.0402
     17 C          -4.8722   -1.6255    0.4877 C.3     1  UNL1       -0.0011
     18 C           0.2390   -0.2079    0.3578 C.2     1  UNL1        0.3068
     19 O           0.4549   -1.2455   -0.3619 O.2     1  UNL1       -0.2523
     20 N           1.3720    0.4355    0.8781 N.am    1  UNL1       -0.2693
     21 C           2.7060   -0.0148    0.6318 C.ar    1  UNL1        0.0348
     22 C           3.3861    0.4683   -0.4603 C.ar    1  UNL1       -0.0399
     23 C           4.6881    0.0599   -0.7510 C.ar    1  UNL1       -0.0522
     24 C           5.3394   -0.8472    0.0523 C.ar    1  UNL1       -0.0148
     25 C           6.6845   -1.3035   -0.2098 C.ar    1  UNL1        0.0193
     26 C           7.6823   -0.5602   -0.8029 C.ar    1  UNL1        0.0568
     27 N           8.7660   -1.3809   -0.8478 N.ar    1  UNL1       -0.1817
     28 N           8.4656   -2.5557   -0.3192 N.ar    1  UNL1       -0.2841
     29 C           7.1664   -2.5560    0.0970 C.ar    1  UNL1        0.0300
     30 C           4.6638   -1.3311    1.1428 C.ar    1  UNL1       -0.0522
     31 C           3.3796   -0.9213    1.4200 C.ar    1  UNL1       -0.0399
     32 C          -0.4941    3.4995    0.3278 C.ar    1  UNL1       -0.0153
     33 H           2.1640    4.2372   -0.6069 H       1  UNL1        0.0660
     34 H           2.4710    5.9976   -0.3633 H       1  UNL1        0.0660
     35 H           1.7858    5.0139    0.9541 H       1  UNL1        0.0660
     36 H          -2.0135    5.9541   -1.4151 H       1  UNL1        0.0654
     37 H          -3.8898    4.5130   -0.9750 H       1  UNL1        0.0619
     38 H          -3.6239    2.3800    0.3174 H       1  UNL1        0.0621
     39 H          -2.2633    1.3266    2.0016 H       1  UNL1        0.0514
     40 H          -0.5515    1.6952    2.1399 H       1  UNL1        0.0514
     41 H          -2.9865    0.1204   -0.2519 H       1  UNL1        0.0478
     42 H          -1.8009   -1.0571   -0.8132 H       1  UNL1        0.0478
     43 H          -2.9130   -1.0711    2.0614 H       1  UNL1        0.0442
     44 H          -1.6988   -2.1721    1.4144 H       1  UNL1        0.0442
     45 H          -3.0732   -2.5452   -1.3650 H       1  UNL1        0.0426
     46 H          -2.3958   -3.7779   -0.2886 H       1  UNL1        0.0426
     47 H          -4.5376   -4.8308    0.0217 H       1  UNL1        0.0278
     48 H          -4.1134   -4.7067   -1.7303 H       1  UNL1        0.0278
     49 H          -5.9204   -3.4925   -2.2052 H       1  UNL1        0.0266
     50 H          -6.5261   -3.7755   -0.4983 H       1  UNL1        0.0266
     51 H          -4.9368   -1.4278   -1.6753 H       1  UNL1        0.0278
     52 H          -6.5406   -1.4389   -0.8443 H       1  UNL1        0.0278
     53 H          -4.7005   -0.5467    0.5488 H       1  UNL1        0.0426
     54 H          -5.6159   -1.8537    1.2966 H       1  UNL1        0.0426
     55 H           1.3060    1.2785    1.4871 H       1  UNL1        0.1564
     56 H           2.9375    1.1697   -1.1170 H       1  UNL1        0.0636
     57 H           5.2231    0.4393   -1.6094 H       1  UNL1        0.0624
     58 H           7.6041    0.4656   -1.1558 H       1  UNL1        0.0854
     59 H           9.0690   -3.3978   -0.2027 H       1  UNL1        0.1882
     60 H           6.6408   -3.3671    0.5635 H       1  UNL1        0.0830
     61 H           5.1435   -2.0375    1.7861 H       1  UNL1        0.0624
     62 H           2.8267   -1.2968    2.2849 H       1  UNL1        0.0636
     63 H           0.5081    3.2942    0.6623 H       1  UNL1        0.0657
@<TRIPOS>BOND
     1     1     2    1
     2     2     3    1
     3     3     4   ar
     4     4     5   ar
     5     5     6   ar
     6     6     7   ar
     7     7     8    1
     8     8     9    1
     9     9    10    1
    10    10    11    1
    11    11    12    1
    12    12    13    1
    13    13    14    1
    14    14    15    1
    15    15    16    1
    16    16    17    1
    17     9    18   am
    18    18    19    2
    19    18    20   am
    20    20    21    1
    21    21    22   ar
    22    22    23   ar
    23    23    24   ar
    24    24    25    1
    25    25    26   ar
    26    26    27   ar
    27    27    28   ar
    28    28    29   ar
    29    24    30   ar
    30    30    31   ar
    31     7    32   ar
    32    32     3   ar
    33    17    12    1
    34    31    21   ar
    35    29    25   ar
    36     1    33    1
    37     1    34    1
    38     1    35    1
    39     4    36    1
    40     5    37    1
    41     6    38    1
    42     8    39    1
    43     8    40    1
    44    10    41    1
    45    10    42    1
    46    11    43    1
    47    11    44    1
    48    13    45    1
    49    13    46    1
    50    14    47    1
    51    14    48    1
    52    15    49    1
    53    15    50    1
    54    16    51    1
    55    16    52    1
    56    17    53    1
    57    17    54    1
    58    20    55    1
    59    22    56    1
    60    23    57    1
    61    26    58    1
    62    28    59    1
    63    29    60    1
    64    30    61    1
    65    31    62    1
    66    32    63    1
