
     RDKit          3D

 63 66  0  0  0  0  0  0  0  0999 V2000
    1.7838    5.1646   -0.1566 C   0  0  0  0  0  0  0  0  0  0  0  0
    0.4838    5.5053   -0.6285 O   0  0  0  0  0  0  0  0  0  0  0  0
   -0.6146    4.6897   -0.3875 C   0  0  0  0  0  0  0  0  0  0  0  0
   -1.8548    5.0345   -0.8488 C   0  0  0  0  0  0  0  0  0  0  0  0
   -2.9279    4.2068   -0.5952 C   0  0  0  0  0  0  0  0  0  0  0  0
   -2.7888    3.0359    0.1128 C   0  0  0  0  0  0  0  0  0  0  0  0
   -1.5471    2.6670    0.5884 C   0  0  0  0  0  0  0  0  0  0  0  0
   -1.3303    1.4258    1.3653 C   0  0  0  0  0  0  0  0  0  0  0  0
   -1.0495    0.2617    0.6170 N   0  0  0  0  0  0  0  0  0  0  0  0
   -2.1755   -0.5204    0.0790 C   0  0  0  0  0  0  0  0  0  0  0  0
   -2.5847   -1.5498    1.0980 C   0  0  0  0  0  0  0  0  0  0  0  0
   -3.6567   -2.3355    0.6252 N   0  0  0  0  0  0  0  0  0  0  0  0
   -3.3135   -3.1826   -0.4665 C   0  0  0  0  0  0  0  0  0  0  0  0
   -4.4211   -4.1364   -0.8379 C   0  0  0  0  0  0  0  0  0  0  0  0
   -5.6875   -3.3692   -1.1203 C   0  0  0  0  0  0  0  0  0  0  0  0
   -5.5212   -1.9013   -0.8706 C   0  0  0  0  0  0  0  0  0  0  0  0
   -4.8722   -1.6255    0.4877 C   0  0  0  0  0  0  0  0  0  0  0  0
    0.2390   -0.2079    0.3578 C   0  0  0  0  0  0  0  0  0  0  0  0
    0.4549   -1.2455   -0.3619 O   0  0  0  0  0  0  0  0  0  0  0  0
    1.3720    0.4355    0.8781 N   0  0  0  0  0  0  0  0  0  0  0  0
    2.7060   -0.0148    0.6318 C   0  0  0  0  0  0  0  0  0  0  0  0
    3.3861    0.4683   -0.4603 C   0  0  0  0  0  0  0  0  0  0  0  0
    4.6881    0.0599   -0.7510 C   0  0  0  0  0  0  0  0  0  0  0  0
    5.3394   -0.8472    0.0523 C   0  0  0  0  0  0  0  0  0  0  0  0
    6.6845   -1.3035   -0.2098 C   0  0  0  0  0  0  0  0  0  0  0  0
    7.6823   -0.5602   -0.8029 C   0  0  0  0  0  0  0  0  0  0  0  0
    8.7660   -1.3809   -0.8478 N   0  0  0  0  0  0  0  0  0  0  0  0
    8.4656   -2.5557   -0.3192 N   0  0  0  0  0  0  0  0  0  0  0  0
    7.1664   -2.5560    0.0970 C   0  0  0  0  0  0  0  0  0  0  0  0
    4.6638   -1.3311    1.1428 C   0  0  0  0  0  0  0  0  0  0  0  0
    3.3796   -0.9213    1.4200 C   0  0  0  0  0  0  0  0  0  0  0  0
   -0.4941    3.4995    0.3278 C   0  0  0  0  0  0  0  0  0  0  0  0
    2.1640    4.2372   -0.6069 H   0  0  0  0  0  0  0  0  0  0  0  0
    2.4710    5.9976   -0.3633 H   0  0  0  0  0  0  0  0  0  0  0  0
    1.7858    5.0139    0.9541 H   0  0  0  0  0  0  0  0  0  0  0  0
   -2.0135    5.9541   -1.4151 H   0  0  0  0  0  0  0  0  0  0  0  0
   -3.8898    4.5130   -0.9750 H   0  0  0  0  0  0  0  0  0  0  0  0
   -3.6239    2.3800    0.3174 H   0  0  0  0  0  0  0  0  0  0  0  0
   -2.2633    1.3266    2.0016 H   0  0  0  0  0  0  0  0  0  0  0  0
   -0.5515    1.6952    2.1399 H   0  0  0  0  0  0  0  0  0  0  0  0
   -2.9865    0.1204   -0.2519 H   0  0  0  0  0  0  0  0  0  0  0  0
   -1.8009   -1.0571   -0.8132 H   0  0  0  0  0  0  0  0  0  0  0  0
   -2.9130   -1.0711    2.0614 H   0  0  0  0  0  0  0  0  0  0  0  0
   -1.6988   -2.1721    1.4144 H   0  0  0  0  0  0  0  0  0  0  0  0
   -3.0732   -2.5452   -1.3650 H   0  0  0  0  0  0  0  0  0  0  0  0
   -2.3958   -3.7779   -0.2886 H   0  0  0  0  0  0  0  0  0  0  0  0
   -4.5376   -4.8308    0.0217 H   0  0  0  0  0  0  0  0  0  0  0  0
   -4.1134   -4.7067   -1.7303 H   0  0  0  0  0  0  0  0  0  0  0  0
   -5.9204   -3.4925   -2.2052 H   0  0  0  0  0  0  0  0  0  0  0  0
   -6.5261   -3.7755   -0.4983 H   0  0  0  0  0  0  0  0  0  0  0  0
   -4.9368   -1.4278   -1.6753 H   0  0  0  0  0  0  0  0  0  0  0  0
   -6.5406   -1.4389   -0.8443 H   0  0  0  0  0  0  0  0  0  0  0  0
   -4.7005   -0.5467    0.5488 H   0  0  0  0  0  0  0  0  0  0  0  0
   -5.6159   -1.8537    1.2966 H   0  0  0  0  0  0  0  0  0  0  0  0
    1.3060    1.2785    1.4871 H   0  0  0  0  0  0  0  0  0  0  0  0
    2.9375    1.1697   -1.1170 H   0  0  0  0  0  0  0  0  0  0  0  0
    5.2231    0.4393   -1.6094 H   0  0  0  0  0  0  0  0  0  0  0  0
    7.6041    0.4656   -1.1558 H   0  0  0  0  0  0  0  0  0  0  0  0
    9.0690   -3.3978   -0.2027 H   0  0  0  0  0  0  0  0  0  0  0  0
    6.6408   -3.3671    0.5635 H   0  0  0  0  0  0  0  0  0  0  0  0
    5.1435   -2.0375    1.7861 H   0  0  0  0  0  0  0  0  0  0  0  0
    2.8267   -1.2968    2.2849 H   0  0  0  0  0  0  0  0  0  0  0  0
    0.5081    3.2942    0.6623 H   0  0  0  0  0  0  0  0  0  0  0  0
  1  2  1  0
  2  3  1  0
  3  4  2  0
  4  5  1  0
  5  6  2  0
  6  7  1  0
  7  8  1  0
  8  9  1  0
  9 10  1  0
 10 11  1  0
 11 12  1  0
 12 13  1  0
 13 14  1  0
 14 15  1  0
 15 16  1  0
 16 17  1  0
  9 18  1  0
 18 19  2  0
 18 20  1  0
 20 21  1  0
 21 22  2  0
 22 23  1  0
 23 24  2  0
 24 25  1  0
 25 26  1  0
 26 27  2  0
 27 28  1  0
 28 29  1  0
 24 30  1  0
 30 31  2  0
  7 32  2  0
 32  3  1  0
 17 12  1  0
 31 21  1  0
 29 25  2  0
  1 33  1  0
  1 34  1  0
  1 35  1  0
  4 36  1  0
  5 37  1  0
  6 38  1  0
  8 39  1  0
  8 40  1  0
 10 41  1  0
 10 42  1  0
 11 43  1  0
 11 44  1  0
 13 45  1  0
 13 46  1  0
 14 47  1  0
 14 48  1  0
 15 49  1  0
 15 50  1  0
 16 51  1  0
 16 52  1  0
 17 53  1  0
 17 54  1  0
 20 55  1  0
 22 56  1  0
 23 57  1  0
 26 58  1  0
 28 59  1  0
 29 60  1  0
 30 61  1  0
 31 62  1  0
 32 63  1  0
M  END
$$$$
