
     RDKit          3D

 22 21  0  0  0  0  0  0  0  0999 V2000
   -1.9150   -1.0734   -0.8506 N   0  0  0  0  0  0  0  0  0  0  0  0
   -2.2621   -0.3661    0.3591 C   0  0  1  0  0  0  0  0  0  0  0  0
   -1.0410   -0.0993    1.1865 C   0  0  0  0  0  0  0  0  0  0  0  0
    0.2133    0.8874    0.3853 S   0  0  0  0  0  0  0  0  0  0  0  0
    1.0970   -0.1009   -1.2549 S   0  0  0  0  0  0  0  0  0  0  0  0
    2.5466   -1.0732   -0.7592 C   0  0  0  0  0  0  0  0  0  0  0  0
    3.6087   -0.0920   -0.2899 C   0  0  0  0  0  0  0  0  0  0  0  0
    3.0888    0.6338    0.7976 O   0  0  0  0  0  0  0  0  0  0  0  0
   -3.0274    0.8380    0.0248 C   0  0  0  0  0  0  0  0  0  0  0  0
   -3.6647    1.9445    0.4960 O   0  0  0  0  0  0  0  0  0  0  0  0
   -3.3228    1.1554   -1.1750 O   0  0  0  0  0  0  0  0  0  0  0  0
   -2.7572   -1.5932   -1.2363 H   0  0  0  0  0  0  0  0  0  0  0  0
   -1.5521   -0.4023   -1.5553 H   0  0  0  0  0  0  0  0  0  0  0  0
   -2.9448   -1.0311    0.9353 H   0  0  0  0  0  0  0  0  0  0  0  0
   -0.5743   -1.0900    1.4447 H   0  0  0  0  0  0  0  0  0  0  0  0
   -1.2775    0.3579    2.1653 H   0  0  0  0  0  0  0  0  0  0  0  0
    2.9476   -1.6022   -1.6437 H   0  0  0  0  0  0  0  0  0  0  0  0
    2.2929   -1.7703    0.0506 H   0  0  0  0  0  0  0  0  0  0  0  0
    4.5399   -0.6066    0.0236 H   0  0  0  0  0  0  0  0  0  0  0  0
    3.8374    0.6450   -1.0689 H   0  0  0  0  0  0  0  0  0  0  0  0
    3.3831    1.5734    0.7516 H   0  0  0  0  0  0  0  0  0  0  0  0
   -3.2164    2.8651    0.6093 H   0  0  0  0  0  0  0  0  0  0  0  0
  1  2  1  0
  2  3  1  0
  3  4  1  0
  4  5  1  0
  5  6  1  0
  6  7  1  0
  7  8  1  0
  2  9  1  0
  9 10  1  0
  9 11  2  0
  1 12  1  0
  1 13  1  0
  2 14  1  1
  3 15  1  0
  3 16  1  0
  6 17  1  0
  6 18  1  0
  7 19  1  0
  7 20  1  0
  8 21  1  0
 10 22  1  0
M  END
$$$$
