@<TRIPOS>MOLECULE
*****
 22 21 0 0 0
SMALL
GASTEIGER

@<TRIPOS>ATOM
      1 N1         -1.9150   -1.0734   -0.8506 N.3     1  <1>        -0.3177
      2 C1         -2.2621   -0.3661    0.3591 C.3     1  <1>         0.1131
      3 C2         -1.0410   -0.0993    1.1865 C.3     1  <1>         0.0295
      4 S1          0.2133    0.8874    0.3853 S.3     1  <1>        -0.0910
      5 S2          1.0970   -0.1009   -1.2549 S.3     1  <1>        -0.0908
      6 C3          2.5466   -1.0732   -0.7592 C.3     1  <1>         0.0271
      7 C4          3.6087   -0.0920   -0.2899 C.3     1  <1>         0.0540
      8 O1          3.0888    0.6338    0.7976 O.3     1  <1>        -0.3942
      9 C5         -3.0274    0.8380    0.0248 C.2     1  <1>         0.3226
     10 O2         -3.6647    1.9445    0.4960 O.3     1  <1>        -0.4795
     11 O3         -3.3228    1.1554   -1.1750 O.2     1  <1>        -0.2492
     12 H1         -2.7572   -1.5932   -1.2363 H       1  <1>         0.1190
     13 H2         -1.5521   -0.4023   -1.5553 H       1  <1>         0.1190
     14 H3         -2.9448   -1.0311    0.9353 H       1  <1>         0.0582
     15 H4         -0.5743   -1.0900    1.4447 H       1  <1>         0.0405
     16 H5         -1.2775    0.3579    2.1653 H       1  <1>         0.0405
     17 H6          2.9476   -1.6022   -1.6437 H       1  <1>         0.0407
     18 H7          2.2929   -1.7703    0.0506 H       1  <1>         0.0407
     19 H8          4.5399   -0.6066    0.0236 H       1  <1>         0.0565
     20 H9          3.8374    0.6450   -1.0689 H       1  <1>         0.0565
     21 H10         3.3831    1.5734    0.7516 H       1  <1>         0.2094
     22 H11        -3.2164    2.8651    0.6093 H       1  <1>         0.2951
@<TRIPOS>BOND
     1     1     2    1
     2     2     3    1
     3     3     4    1
     4     4     5    1
     5     5     6    1
     6     6     7    1
     7     7     8    1
     8     2     9    1
     9     9    10    1
    10     9    11    2
    11     1    12    1
    12     1    13    1
    13     2    14    1
    14     3    15    1
    15     3    16    1
    16     6    17    1
    17     6    18    1
    18     7    19    1
    19     7    20    1
    20     8    21    1
    21    10    22    1
