@<TRIPOS>MOLECULE
*****
 56 60 0 0 0
SMALL
GASTEIGER

@<TRIPOS>ATOM
      1 C          -8.5378    2.3662    1.7731 C.3     1  UNL1        0.0790
      2 O          -7.9960    1.2959    1.0208 O.3     1  UNL1       -0.4914
      3 C          -6.6011    1.0880    0.9597 C.ar    1  UNL1        0.1635
      4 C          -5.7262    1.9091    1.6253 C.ar    1  UNL1        0.0098
      5 C          -4.3476    1.6765    1.5454 C.ar    1  UNL1        0.0782
      6 N          -3.4866    2.4761    2.2108 N.ar    1  UNL1       -0.2546
      7 C          -2.1628    2.2882    2.1762 C.ar    1  UNL1        0.0318
      8 C          -1.6225    1.2383    1.4355 C.ar    1  UNL1       -0.0006
      9 C          -2.4661    0.3979    0.7406 C.ar    1  UNL1        0.1391
     10 O          -1.9602   -0.6758   -0.0185 O.3     1  UNL1       -0.4553
     11 C          -0.5868   -0.9233   -0.0415 C.ar    1  UNL1        0.1291
     12 C           0.2720   -0.3337   -0.9344 C.ar    1  UNL1       -0.0187
     13 C           1.6418   -0.6374   -0.8897 C.ar    1  UNL1       -0.0498
     14 C           2.1736   -1.5155    0.0247 C.ar    1  UNL1       -0.0055
     15 C           3.5201   -1.7848    0.0356 C.ar    1  UNL1        0.0447
     16 C           4.4159   -1.1255   -0.9388 C.2     1  UNL1        0.2488
     17 O           4.2486   -1.3009   -2.1594 O.2     1  UNL1       -0.2698
     18 N           5.4484   -0.3050   -0.4337 N.am    1  UNL1       -0.2815
     19 C           6.3873    0.3945   -1.2342 C.ar    1  UNL1        0.0338
     20 C           7.3673    1.1744   -0.5922 C.ar    1  UNL1       -0.0391
     21 C           8.2962    1.8706   -1.2914 C.ar    1  UNL1       -0.0416
     22 C           8.3509    1.8674   -2.6673 C.ar    1  UNL1        0.0411
     23 CL          9.5563    2.7746   -3.5496 Cl      1  UNL1       -0.0835
     24 C           7.3999    1.1096   -3.3123 C.ar    1  UNL1       -0.0416
     25 C           6.4358    0.3870   -2.5970 C.ar    1  UNL1       -0.0391
     26 C           4.0312   -2.6724    0.9667 C.ar    1  UNL1       -0.0490
     27 C           3.1690   -3.2651    1.8636 C.ar    1  UNL1       -0.0605
     28 C           1.8070   -2.9920    1.8519 C.ar    1  UNL1       -0.0539
     29 C           1.2990   -2.1088    0.9250 C.ar    1  UNL1       -0.0137
     30 C          -0.0679   -1.8107    0.8868 C.ar    1  UNL1       -0.0116
     31 C          -3.8200    0.6329    0.8081 C.ar    1  UNL1        0.0463
     32 C          -4.7338   -0.1796    0.1451 C.ar    1  UNL1       -0.0036
     33 C          -6.0900    0.0433    0.2202 C.ar    1  UNL1        0.1623
     34 O          -7.0086   -0.7580   -0.4345 O.3     1  UNL1       -0.4914
     35 C          -6.7046   -1.8573   -1.2501 C.3     1  UNL1        0.0790
     36 H          -9.5970    2.1842    1.9843 H       1  UNL1        0.0660
     37 H          -7.9992    2.4017    2.7392 H       1  UNL1        0.0660
     38 H          -8.3670    3.3470    1.2479 H       1  UNL1        0.0660
     39 H          -6.0694    2.7360    2.2138 H       1  UNL1        0.0677
     40 H          -1.4397    2.9160    2.7016 H       1  UNL1        0.0831
     41 H          -0.5707    1.0439    1.3760 H       1  UNL1        0.0670
     42 H          -0.1045    0.3568   -1.6637 H       1  UNL1        0.0654
     43 H           2.3033   -0.1591   -1.6020 H       1  UNL1        0.0625
     44 H           5.5164   -0.2134    0.6390 H       1  UNL1        0.1551
     45 H           7.3441    1.1917    0.5100 H       1  UNL1        0.0636
     46 H           9.0427    2.4668   -0.7436 H       1  UNL1        0.0633
     47 H           7.3800    1.0577   -4.3884 H       1  UNL1        0.0633
     48 H           5.7423   -0.1682   -3.1687 H       1  UNL1        0.0636
     49 H           5.0914   -2.8801    0.9691 H       1  UNL1        0.0625
     50 H           3.5181   -3.9643    2.6095 H       1  UNL1        0.0618
     51 H           1.1180   -3.4475    2.5479 H       1  UNL1        0.0624
     52 H          -0.7217   -2.2783    1.5873 H       1  UNL1        0.0660
     53 H          -4.3111   -0.9973   -0.4325 H       1  UNL1        0.0663
     54 H          -7.5965   -2.4830   -1.3824 H       1  UNL1        0.0660
     55 H          -5.8682   -2.4061   -0.7479 H       1  UNL1        0.0660
     56 H          -6.3127   -1.4489   -2.2111 H       1  UNL1        0.0660
@<TRIPOS>BOND
     1     1     2    1
     2     2     3    1
     3     3     4   ar
     4     4     5   ar
     5     5     6   ar
     6     6     7   ar
     7     7     8   ar
     8     8     9   ar
     9     9    10    1
    10    10    11    1
    11    11    12   ar
    12    12    13   ar
    13    13    14   ar
    14    14    15   ar
    15    15    16    1
    16    16    17    2
    17    16    18   am
    18    18    19    1
    19    19    20   ar
    20    20    21   ar
    21    21    22   ar
    22    22    23    1
    23    22    24   ar
    24    24    25   ar
    25    15    26   ar
    26    26    27   ar
    27    27    28   ar
    28    28    29   ar
    29    29    30   ar
    30     9    31   ar
    31    31    32   ar
    32    32    33   ar
    33    33    34    1
    34    34    35    1
    35    33     3   ar
    36    31     5   ar
    37    30    11   ar
    38    29    14   ar
    39    25    19   ar
    40     1    36    1
    41     1    37    1
    42     1    38    1
    43     4    39    1
    44     7    40    1
    45     8    41    1
    46    12    42    1
    47    13    43    1
    48    18    44    1
    49    20    45    1
    50    21    46    1
    51    24    47    1
    52    25    48    1
    53    26    49    1
    54    27    50    1
    55    28    51    1
    56    30    52    1
    57    32    53    1
    58    35    54    1
    59    35    55    1
    60    35    56    1
