
     RDKit          3D

 56 60  0  0  0  0  0  0  0  0999 V2000
   -8.5378    2.3662    1.7731 C   0  0  0  0  0  0  0  0  0  0  0  0
   -7.9960    1.2959    1.0208 O   0  0  0  0  0  0  0  0  0  0  0  0
   -6.6011    1.0880    0.9597 C   0  0  0  0  0  0  0  0  0  0  0  0
   -5.7262    1.9091    1.6253 C   0  0  0  0  0  0  0  0  0  0  0  0
   -4.3476    1.6765    1.5454 C   0  0  0  0  0  0  0  0  0  0  0  0
   -3.4866    2.4761    2.2108 N   0  0  0  0  0  0  0  0  0  0  0  0
   -2.1628    2.2882    2.1762 C   0  0  0  0  0  0  0  0  0  0  0  0
   -1.6225    1.2383    1.4355 C   0  0  0  0  0  0  0  0  0  0  0  0
   -2.4661    0.3979    0.7406 C   0  0  0  0  0  0  0  0  0  0  0  0
   -1.9602   -0.6758   -0.0185 O   0  0  0  0  0  0  0  0  0  0  0  0
   -0.5868   -0.9233   -0.0415 C   0  0  0  0  0  0  0  0  0  0  0  0
    0.2720   -0.3337   -0.9344 C   0  0  0  0  0  0  0  0  0  0  0  0
    1.6418   -0.6374   -0.8897 C   0  0  0  0  0  0  0  0  0  0  0  0
    2.1736   -1.5155    0.0247 C   0  0  0  0  0  0  0  0  0  0  0  0
    3.5201   -1.7848    0.0356 C   0  0  0  0  0  0  0  0  0  0  0  0
    4.4159   -1.1255   -0.9388 C   0  0  0  0  0  0  0  0  0  0  0  0
    4.2486   -1.3009   -2.1594 O   0  0  0  0  0  0  0  0  0  0  0  0
    5.4484   -0.3050   -0.4337 N   0  0  0  0  0  0  0  0  0  0  0  0
    6.3873    0.3945   -1.2342 C   0  0  0  0  0  0  0  0  0  0  0  0
    7.3673    1.1744   -0.5922 C   0  0  0  0  0  0  0  0  0  0  0  0
    8.2962    1.8706   -1.2914 C   0  0  0  0  0  0  0  0  0  0  0  0
    8.3509    1.8674   -2.6673 C   0  0  0  0  0  0  0  0  0  0  0  0
    9.5563    2.7746   -3.5496 Cl  0  0  0  0  0  0  0  0  0  0  0  0
    7.3999    1.1096   -3.3123 C   0  0  0  0  0  0  0  0  0  0  0  0
    6.4358    0.3870   -2.5970 C   0  0  0  0  0  0  0  0  0  0  0  0
    4.0312   -2.6724    0.9667 C   0  0  0  0  0  0  0  0  0  0  0  0
    3.1690   -3.2651    1.8636 C   0  0  0  0  0  0  0  0  0  0  0  0
    1.8070   -2.9920    1.8519 C   0  0  0  0  0  0  0  0  0  0  0  0
    1.2990   -2.1088    0.9250 C   0  0  0  0  0  0  0  0  0  0  0  0
   -0.0679   -1.8107    0.8868 C   0  0  0  0  0  0  0  0  0  0  0  0
   -3.8200    0.6329    0.8081 C   0  0  0  0  0  0  0  0  0  0  0  0
   -4.7338   -0.1796    0.1451 C   0  0  0  0  0  0  0  0  0  0  0  0
   -6.0900    0.0433    0.2202 C   0  0  0  0  0  0  0  0  0  0  0  0
   -7.0086   -0.7580   -0.4345 O   0  0  0  0  0  0  0  0  0  0  0  0
   -6.7046   -1.8573   -1.2501 C   0  0  0  0  0  0  0  0  0  0  0  0
   -9.5970    2.1842    1.9843 H   0  0  0  0  0  0  0  0  0  0  0  0
   -7.9992    2.4017    2.7392 H   0  0  0  0  0  0  0  0  0  0  0  0
   -8.3670    3.3470    1.2479 H   0  0  0  0  0  0  0  0  0  0  0  0
   -6.0694    2.7360    2.2138 H   0  0  0  0  0  0  0  0  0  0  0  0
   -1.4397    2.9160    2.7016 H   0  0  0  0  0  0  0  0  0  0  0  0
   -0.5707    1.0439    1.3760 H   0  0  0  0  0  0  0  0  0  0  0  0
   -0.1045    0.3568   -1.6637 H   0  0  0  0  0  0  0  0  0  0  0  0
    2.3033   -0.1591   -1.6020 H   0  0  0  0  0  0  0  0  0  0  0  0
    5.5164   -0.2134    0.6390 H   0  0  0  0  0  0  0  0  0  0  0  0
    7.3441    1.1917    0.5100 H   0  0  0  0  0  0  0  0  0  0  0  0
    9.0427    2.4668   -0.7436 H   0  0  0  0  0  0  0  0  0  0  0  0
    7.3800    1.0577   -4.3884 H   0  0  0  0  0  0  0  0  0  0  0  0
    5.7423   -0.1682   -3.1687 H   0  0  0  0  0  0  0  0  0  0  0  0
    5.0914   -2.8801    0.9691 H   0  0  0  0  0  0  0  0  0  0  0  0
    3.5181   -3.9643    2.6095 H   0  0  0  0  0  0  0  0  0  0  0  0
    1.1180   -3.4475    2.5479 H   0  0  0  0  0  0  0  0  0  0  0  0
   -0.7217   -2.2783    1.5873 H   0  0  0  0  0  0  0  0  0  0  0  0
   -4.3111   -0.9973   -0.4325 H   0  0  0  0  0  0  0  0  0  0  0  0
   -7.5965   -2.4830   -1.3824 H   0  0  0  0  0  0  0  0  0  0  0  0
   -5.8682   -2.4061   -0.7479 H   0  0  0  0  0  0  0  0  0  0  0  0
   -6.3127   -1.4489   -2.2111 H   0  0  0  0  0  0  0  0  0  0  0  0
  1  2  1  0
  2  3  1  0
  3  4  2  0
  4  5  1  0
  5  6  2  0
  6  7  1  0
  7  8  2  0
  8  9  1  0
  9 10  1  0
 10 11  1  0
 11 12  2  0
 12 13  1  0
 13 14  2  0
 14 15  1  0
 15 16  1  0
 16 17  2  0
 16 18  1  0
 18 19  1  0
 19 20  2  0
 20 21  1  0
 21 22  2  0
 22 23  1  0
 22 24  1  0
 24 25  2  0
 15 26  2  0
 26 27  1  0
 27 28  2  0
 28 29  1  0
 29 30  2  0
  9 31  2  0
 31 32  1  0
 32 33  2  0
 33 34  1  0
 34 35  1  0
 33  3  1  0
 31  5  1  0
 30 11  1  0
 29 14  1  0
 25 19  1  0
  1 36  1  0
  1 37  1  0
  1 38  1  0
  4 39  1  0
  7 40  1  0
  8 41  1  0
 12 42  1  0
 13 43  1  0
 18 44  1  0
 20 45  1  0
 21 46  1  0
 24 47  1  0
 25 48  1  0
 26 49  1  0
 27 50  1  0
 28 51  1  0
 30 52  1  0
 32 53  1  0
 35 54  1  0
 35 55  1  0
 35 56  1  0
M  END
$$$$
