@<TRIPOS>MOLECULE
*****
 50 51 0 0 0
SMALL
GASTEIGER

@<TRIPOS>ATOM
      1 C           6.6804    0.1100   -3.2982 C.3     1  UNL1        0.0005
      2 N           5.6076   -0.5788   -2.5731 N.am    1  UNL1       -0.3118
      3 C           4.7909    0.0995   -1.6307 C.2     1  UNL1        0.2844
      4 O           4.9727    1.3183   -1.3959 O.2     1  UNL1       -0.2667
      5 C           3.7223   -0.5791   -0.9061 C.ar    1  UNL1        0.2570
      6 N           3.4224   -1.8751   -1.0613 N.ar    1  UNL1       -0.0512
      7 O           2.4474   -2.1559   -0.2903 O.2     1  UNL1       -0.3373
      8 C           2.0477   -1.0944    0.4073 C.ar    1  UNL1        0.2313
      9 C           0.9424   -1.0473    1.3993 C.3     1  UNL1        0.0464
     10 C          -0.1505   -0.1232    0.9021 C.3     1  UNL1       -0.0413
     11 C          -0.6349   -0.6915   -0.4131 C.3     1  UNL1       -0.0521
     12 C          -1.7275    0.1280   -1.0271 C.3     1  UNL1       -0.0502
     13 C          -2.9495    0.2424   -0.1595 C.3     1  UNL1       -0.0410
     14 C          -3.5883   -1.0570    0.1661 C.3     1  UNL1       -0.0502
     15 C          -5.1064   -0.8597    0.1484 C.3     1  UNL1       -0.0528
     16 C          -5.6189   -0.5446   -1.2224 C.3     1  UNL1       -0.0530
     17 C          -4.6963    0.4293   -1.9051 C.3     1  UNL1       -0.0528
     18 C          -3.9387    1.1780   -0.8134 C.3     1  UNL1       -0.0502
     19 C           1.3669   -0.7609    2.7906 C.3     1  UNL1        0.0372
     20 C           2.0403    0.5080    3.0277 C.2     1  UNL1        0.2362
     21 O           2.2160    1.3274    2.1053 O.2     1  UNL1       -0.2737
     22 N           2.5060    0.8221    4.3276 N.am    1  UNL1       -0.1975
     23 O           3.1352    1.9615    4.6428 O.3     1  UNL1       -0.2952
     24 N           2.8714   -0.1159   -0.0035 N.ar    1  UNL1       -0.1872
     25 H           7.6274   -0.1897   -2.8234 H       1  UNL1        0.0426
     26 H           6.6903   -0.3554   -4.3274 H       1  UNL1        0.0426
     27 H           6.5063    1.1875   -3.3490 H       1  UNL1        0.0426
     28 H           5.4142   -1.5892   -2.7300 H       1  UNL1        0.1488
     29 H           0.4711   -2.0749    1.4167 H       1  UNL1        0.0401
     30 H          -0.9557   -0.1151    1.6727 H       1  UNL1        0.0273
     31 H           0.1872    0.9225    0.8017 H       1  UNL1        0.0273
     32 H           0.2341   -0.6747   -1.1029 H       1  UNL1        0.0266
     33 H          -0.8984   -1.7368   -0.2430 H       1  UNL1        0.0266
     34 H          -1.3236    1.1306   -1.2713 H       1  UNL1        0.0268
     35 H          -2.0025   -0.3524   -1.9887 H       1  UNL1        0.0268
     36 H          -2.6116    0.7148    0.8051 H       1  UNL1        0.0301
     37 H          -3.3500   -1.3760    1.2138 H       1  UNL1        0.0268
     38 H          -3.3798   -1.8709   -0.5335 H       1  UNL1        0.0268
     39 H          -5.3695   -0.1044    0.8968 H       1  UNL1        0.0265
     40 H          -5.5673   -1.8269    0.4721 H       1  UNL1        0.0265
     41 H          -6.6085   -0.0321   -1.1027 H       1  UNL1        0.0265
     42 H          -5.8102   -1.4522   -1.8321 H       1  UNL1        0.0265
     43 H          -3.9984   -0.0894   -2.5920 H       1  UNL1        0.0265
     44 H          -5.2720    1.1714   -2.4645 H       1  UNL1        0.0265
     45 H          -3.4150    2.0144   -1.3100 H       1  UNL1        0.0268
     46 H          -4.7083    1.5506   -0.0957 H       1  UNL1        0.0268
     47 H           2.0952   -1.5716    3.0950 H       1  UNL1        0.0366
     48 H           0.5098   -0.9030    3.5103 H       1  UNL1        0.0366
     49 H           2.3649    0.1351    5.1272 H       1  UNL1        0.1822
     50 H           2.8120    2.2563    5.5374 H       1  UNL1        0.2414
@<TRIPOS>BOND
     1     1     2    1
     2     2     3   am
     3     3     4    2
     4     3     5    1
     5     5     6   ar
     6     6     7   ar
     7     7     8   ar
     8     8     9    1
     9     9    10    1
    10    10    11    1
    11    11    12    1
    12    12    13    1
    13    13    14    1
    14    14    15    1
    15    15    16    1
    16    16    17    1
    17    17    18    1
    18     9    19    1
    19    19    20    1
    20    20    21    2
    21    20    22   am
    22    22    23    1
    23     8    24   ar
    24    24     5   ar
    25    18    13    1
    26     1    25    1
    27     1    26    1
    28     1    27    1
    29     2    28    1
    30     9    29    1
    31    10    30    1
    32    10    31    1
    33    11    32    1
    34    11    33    1
    35    12    34    1
    36    12    35    1
    37    13    36    1
    38    14    37    1
    39    14    38    1
    40    15    39    1
    41    15    40    1
    42    16    41    1
    43    16    42    1
    44    17    43    1
    45    17    44    1
    46    18    45    1
    47    18    46    1
    48    19    47    1
    49    19    48    1
    50    22    49    1
    51    23    50    1
