
     RDKit          3D

 36 38  0  0  0  0  0  0  0  0999 V2000
   -1.2893   -2.6335    2.7529 C   0  0  0  0  0  0  0  0  0  0  0  0
   -1.1624   -1.8387    1.4880 C   0  0  0  0  0  0  0  0  0  0  0  0
   -2.2672   -1.6335    0.6886 C   0  0  0  0  0  0  0  0  0  0  0  0
   -2.1958   -0.9107   -0.4800 C   0  0  0  0  0  0  0  0  0  0  0  0
   -3.3160   -0.7065   -1.2842 O   0  0  0  0  0  0  0  0  0  0  0  0
   -4.1010    0.4295   -1.0327 C   0  0  0  0  0  0  0  0  0  0  0  0
   -5.2213    0.6821   -1.7972 C   0  0  0  0  0  0  0  0  0  0  0  0
   -5.9711    1.7877   -1.5401 N   0  0  0  0  0  0  0  0  0  0  0  0
   -5.6639    2.6546   -0.5619 C   0  0  0  0  0  0  0  0  0  0  0  0
   -4.5735    2.4067    0.1806 N   0  0  0  0  0  0  0  0  0  0  0  0
   -3.7956    1.3271   -0.0308 C   0  0  0  0  0  0  0  0  0  0  0  0
   -0.9754   -0.3858   -0.8429 C   0  0  0  0  0  0  0  0  0  0  0  0
    0.1436   -0.5954   -0.0302 C   0  0  0  0  0  0  0  0  0  0  0  0
    1.4404   -0.0489   -0.3970 C   0  0  0  0  0  0  0  0  0  0  0  0
    1.5446    0.6101   -1.4462 O   0  0  0  0  0  0  0  0  0  0  0  0
    2.5585   -0.2758    0.4440 N   0  0  0  0  0  0  0  0  0  0  0  0
    3.8626    0.2425    0.1269 C   0  0  0  0  0  0  0  0  0  0  0  0
    4.7327   -0.5188   -0.6304 C   0  0  0  0  0  0  0  0  0  0  0  0
    5.9868   -0.0319   -0.9410 C   0  0  0  0  0  0  0  0  0  0  0  0
    6.4002    1.2122   -0.5090 C   0  0  0  0  0  0  0  0  0  0  0  0
    5.4830    1.9336    0.2493 C   0  0  0  0  0  0  0  0  0  0  0  0
    5.8851    3.1644    0.6797 F   0  0  0  0  0  0  0  0  0  0  0  0
    4.2650    1.4439    0.5426 N   0  0  0  0  0  0  0  0  0  0  0  0
    0.0027   -1.3129    1.1008 N   0  0  0  0  0  0  0  0  0  0  0  0
   -1.3728   -3.7158    2.5418 H   0  0  0  0  0  0  0  0  0  0  0  0
   -0.4011   -2.4199    3.3703 H   0  0  0  0  0  0  0  0  0  0  0  0
   -2.1798   -2.2796    3.3386 H   0  0  0  0  0  0  0  0  0  0  0  0
   -3.1988   -2.0613    1.0105 H   0  0  0  0  0  0  0  0  0  0  0  0
   -5.4800   -0.0154   -2.5943 H   0  0  0  0  0  0  0  0  0  0  0  0
   -6.2897    3.5209   -0.3936 H   0  0  0  0  0  0  0  0  0  0  0  0
   -2.9128    1.1082    0.5554 H   0  0  0  0  0  0  0  0  0  0  0  0
   -0.8545    0.1937   -1.7532 H   0  0  0  0  0  0  0  0  0  0  0  0
    2.4149   -0.8363    1.3136 H   0  0  0  0  0  0  0  0  0  0  0  0
    4.4204   -1.5054   -0.9798 H   0  0  0  0  0  0  0  0  0  0  0  0
    6.6992   -0.6051   -1.5363 H   0  0  0  0  0  0  0  0  0  0  0  0
    7.3825    1.6139   -0.7422 H   0  0  0  0  0  0  0  0  0  0  0  0
  1  2  1  0
  2  3  2  0
  3  4  1  0
  4  5  1  0
  5  6  1  0
  6  7  2  0
  7  8  1  0
  8  9  2  0
  9 10  1  0
 10 11  2  0
  4 12  2  0
 12 13  1  0
 13 14  1  0
 14 15  2  0
 14 16  1  0
 16 17  1  0
 17 18  2  0
 18 19  1  0
 19 20  2  0
 20 21  1  0
 21 22  1  0
 21 23  2  0
 13 24  2  0
 24  2  1  0
 11  6  1  0
 23 17  1  0
  1 25  1  0
  1 26  1  0
  1 27  1  0
  3 28  1  0
  7 29  1  0
  9 30  1  0
 11 31  1  0
 12 32  1  0
 16 33  1  0
 18 34  1  0
 19 35  1  0
 20 36  1  0
M  END
$$$$
