@<TRIPOS>MOLECULE
*****
 36 38 0 0 0
SMALL
GASTEIGER

@<TRIPOS>ATOM
      1 C          -1.2893   -2.6335    2.7529 C.3     1  UNL1       -0.0222
      2 C          -1.1624   -1.8387    1.4880 C.ar    1  UNL1        0.0426
      3 C          -2.2672   -1.6335    0.6886 C.ar    1  UNL1        0.0018
      4 C          -2.1958   -0.9107   -0.4800 C.ar    1  UNL1        0.1324
      5 O          -3.3160   -0.7065   -1.2842 O.3     1  UNL1       -0.4529
      6 C          -4.1010    0.4295   -1.0327 C.ar    1  UNL1        0.1644
      7 C          -5.2213    0.6821   -1.7972 C.ar    1  UNL1        0.0730
      8 N          -5.9711    1.7877   -1.5401 N.ar    1  UNL1       -0.2401
      9 C          -5.6639    2.6546   -0.5619 C.ar    1  UNL1        0.1161
     10 N          -4.5735    2.4067    0.1806 N.ar    1  UNL1       -0.2401
     11 C          -3.7956    1.3271   -0.0308 C.ar    1  UNL1        0.0730
     12 C          -0.9754   -0.3858   -0.8429 C.ar    1  UNL1        0.0112
     13 C           0.1436   -0.5954   -0.0302 C.ar    1  UNL1        0.1295
     14 C           1.4404   -0.0489   -0.3970 C.2     1  UNL1        0.2678
     15 O           1.5446    0.6101   -1.4462 O.2     1  UNL1       -0.2681
     16 N           2.5585   -0.2758    0.4440 N.am    1  UNL1       -0.2650
     17 C           3.8626    0.2425    0.1269 C.ar    1  UNL1        0.1282
     18 C           4.7327   -0.5188   -0.6304 C.ar    1  UNL1       -0.0213
     19 C           5.9868   -0.0319   -0.9410 C.ar    1  UNL1       -0.0543
     20 C           6.4002    1.2122   -0.5090 C.ar    1  UNL1       -0.0071
     21 C           5.4830    1.9336    0.2493 C.ar    1  UNL1        0.2149
     22 F           5.8851    3.1644    0.6797 F       1  UNL1       -0.1838
     23 N           4.2650    1.4439    0.5426 N.ar    1  UNL1       -0.2040
     24 N           0.0027   -1.3129    1.1008 N.ar    1  UNL1       -0.2470
     25 H          -1.3728   -3.7158    2.5418 H       1  UNL1        0.0293
     26 H          -0.4011   -2.4199    3.3703 H       1  UNL1        0.0293
     27 H          -2.1798   -2.2796    3.3386 H       1  UNL1        0.0293
     28 H          -3.1988   -2.0613    1.0105 H       1  UNL1        0.0672
     29 H          -5.4800   -0.0154   -2.5943 H       1  UNL1        0.0868
     30 H          -6.2897    3.5209   -0.3936 H       1  UNL1        0.1047
     31 H          -2.9128    1.1082    0.5554 H       1  UNL1        0.0868
     32 H          -0.8545    0.1937   -1.7532 H       1  UNL1        0.0677
     33 H           2.4149   -0.8363    1.3136 H       1  UNL1        0.1566
     34 H           4.4204   -1.5054   -0.9798 H       1  UNL1        0.0652
     35 H           6.6992   -0.6051   -1.5363 H       1  UNL1        0.0620
     36 H           7.3825    1.6139   -0.7422 H       1  UNL1        0.0662
@<TRIPOS>BOND
     1     1     2    1
     2     2     3   ar
     3     3     4   ar
     4     4     5    1
     5     5     6    1
     6     6     7   ar
     7     7     8   ar
     8     8     9   ar
     9     9    10   ar
    10    10    11   ar
    11     4    12   ar
    12    12    13   ar
    13    13    14    1
    14    14    15    2
    15    14    16   am
    16    16    17    1
    17    17    18   ar
    18    18    19   ar
    19    19    20   ar
    20    20    21   ar
    21    21    22    1
    22    21    23   ar
    23    13    24   ar
    24    24     2   ar
    25    11     6   ar
    26    23    17   ar
    27     1    25    1
    28     1    26    1
    29     1    27    1
    30     3    28    1
    31     7    29    1
    32     9    30    1
    33    11    31    1
    34    12    32    1
    35    16    33    1
    36    18    34    1
    37    19    35    1
    38    20    36    1
