@<TRIPOS>MOLECULE
*****
 70 72 0 0 0
SMALL
GASTEIGER

@<TRIPOS>ATOM
      1 C           1.9151   -0.9067    0.0876 C.3     1  UNL1        0.1328
      2 C           1.0784   -0.6598   -1.1461 C.3     1  UNL1        0.0041
      3 C          -0.3653   -0.5247   -0.8599 C.ar    1  UNL1       -0.0371
      4 C          -1.1697   -1.6701   -0.9275 C.ar    1  UNL1       -0.0561
      5 C          -2.5228   -1.5786   -0.5973 C.ar    1  UNL1       -0.0390
      6 C          -3.1588   -0.3910   -0.1911 C.ar    1  UNL1        0.0495
      7 N          -4.5545   -0.6090    0.0684 N.am    1  UNL1       -0.2296
      8 C          -4.4490   -1.0778    1.4041 C.2     1  UNL1        0.3323
      9 O          -3.2265   -1.0727    1.7434 O.2     1  UNL1       -0.2621
     10 C          -5.6633   -1.4577    2.1077 C.2     1  UNL1        0.3932
     11 O          -6.3981   -1.9134    3.1663 O.3     1  UNL1       -0.4739
     12 O          -6.9252   -1.5218    1.9112 O.2     1  UNL1       -0.2399
     13 C          -5.6623   -0.4649   -0.8063 C.ar    1  UNL1        0.0558
     14 C          -5.6469   -1.3746   -1.8709 C.ar    1  UNL1       -0.0391
     15 C          -6.6199   -1.4405   -2.8573 C.ar    1  UNL1       -0.0599
     16 C          -7.6715   -0.5792   -2.8171 C.ar    1  UNL1       -0.0609
     17 C          -7.7276    0.3234   -1.7962 C.ar    1  UNL1       -0.0460
     18 C          -6.7512    0.3625   -0.8359 C.ar    1  UNL1        0.0805
     19 C          -6.9034    1.2704    0.2752 C.2     1  UNL1        0.3386
     20 O          -7.7183    2.2815    0.7270 O.3     1  UNL1       -0.4771
     21 O          -6.3921    1.5927    1.3570 O.2     1  UNL1       -0.2451
     22 C          -2.3266    0.6954   -0.1449 C.ar    1  UNL1        0.0042
     23 C          -2.9624    1.8502    0.2279 C.ar    1  UNL1       -0.0522
     24 C          -2.2558    3.0275    0.2943 C.ar    1  UNL1       -0.0611
     25 C          -0.8962    2.9688   -0.0329 C.ar    1  UNL1       -0.0612
     26 C          -0.2984    1.7916   -0.4013 C.ar    1  UNL1       -0.0537
     27 C          -0.9987    0.6241   -0.4650 C.ar    1  UNL1       -0.0128
     28 N           1.8871    0.0665    1.0971 N.2     1  UNL1       -0.2418
     29 C           2.6069    1.0885    1.3228 C.2     1  UNL1        0.1799
     30 C           3.7893    1.8524    0.7721 C.3     1  UNL1        0.0112
     31 O           2.0043    1.5700    2.4805 O.2     1  UNL1       -0.4958
     32 C           3.2642   -1.4259   -0.2762 C.2     1  UNL1        0.2082
     33 O           3.1693   -2.6003   -1.0551 O.2     1  UNL1       -0.4942
     34 N           4.4295   -0.9984   -0.0076 N.2     1  UNL1       -0.2530
     35 C           5.6078   -1.6703   -0.4707 C.3     1  UNL1        0.0431
     36 C           6.8210   -0.8510   -0.1068 C.3     1  UNL1       -0.0333
     37 C           6.8793   -0.7022    1.3874 C.3     1  UNL1       -0.0516
     38 C           8.1051    0.1203    1.7348 C.3     1  UNL1       -0.0559
     39 C           8.0375    1.4724    1.1008 C.3     1  UNL1       -0.0653
     40 H           1.4058   -1.8235    0.5592 H       1  UNL1        0.0646
     41 H           1.4728    0.1708   -1.7645 H       1  UNL1        0.0339
     42 H           1.1968   -1.5670   -1.8045 H       1  UNL1        0.0339
     43 H          -0.6965   -2.5744   -1.2349 H       1  UNL1        0.0621
     44 H          -3.0081   -2.5519   -0.6909 H       1  UNL1        0.0636
     45 H          -5.9968   -2.2349    4.0584 H       1  UNL1        0.2956
     46 H          -4.8829   -2.1184   -2.0403 H       1  UNL1        0.0636
     47 H          -6.6114   -2.1411   -3.6809 H       1  UNL1        0.0618
     48 H          -8.4690   -0.5574   -3.5387 H       1  UNL1        0.0618
     49 H          -8.5369    1.0179   -1.7283 H       1  UNL1        0.0626
     50 H          -7.7447    3.2488    0.4263 H       1  UNL1        0.2954
     51 H          -4.0023    1.8749    0.4676 H       1  UNL1        0.0624
     52 H          -2.6633    3.9857    0.5768 H       1  UNL1        0.0618
     53 H          -0.3284    3.8898    0.0146 H       1  UNL1        0.0618
     54 H           0.7311    1.8160   -0.6601 H       1  UNL1        0.0624
     55 H           4.6838    1.7432    1.3813 H       1  UNL1        0.0324
     56 H           3.9141    1.7194   -0.3031 H       1  UNL1        0.0324
     57 H           3.4752    2.9319    0.9054 H       1  UNL1        0.0324
     58 H           1.8701    1.0463    3.3348 H       1  UNL1        0.2934
     59 H           3.9675   -3.0596   -1.4592 H       1  UNL1        0.2935
     60 H           5.6552   -2.6428    0.0863 H       1  UNL1        0.0509
     61 H           5.6082   -1.8517   -1.5696 H       1  UNL1        0.0509
     62 H           7.7485   -1.2814   -0.5278 H       1  UNL1        0.0283
     63 H           6.6297    0.1710   -0.5505 H       1  UNL1        0.0283
     64 H           5.9640   -0.2324    1.7738 H       1  UNL1        0.0266
     65 H           6.9369   -1.7047    1.8787 H       1  UNL1        0.0266
     66 H           8.1786    0.2139    2.8351 H       1  UNL1        0.0263
     67 H           9.0087   -0.4185    1.4030 H       1  UNL1        0.0263
     68 H           8.4713    2.2282    1.7898 H       1  UNL1        0.0230
     69 H           7.0217    1.7901    0.8709 H       1  UNL1        0.0230
     70 H           8.6699    1.4443    0.1661 H       1  UNL1        0.0230
@<TRIPOS>BOND
     1     1     2    1
     2     2     3    1
     3     3     4   ar
     4     4     5   ar
     5     5     6   ar
     6     6     7    1
     7     7     8   am
     8     8     9    2
     9     8    10    1
    10    10    11    1
    11    10    12    2
    12     7    13    1
    13    13    14   ar
    14    14    15   ar
    15    15    16   ar
    16    16    17   ar
    17    17    18   ar
    18    18    19    1
    19    19    20    1
    20    19    21    2
    21     6    22   ar
    22    22    23   ar
    23    23    24   ar
    24    24    25   ar
    25    25    26   ar
    26    26    27   ar
    27     1    28    1
    28    28    29    2
    29    29    30    1
    30    29    31    1
    31     1    32    1
    32    32    33    1
    33    32    34    2
    34    34    35    1
    35    35    36    1
    36    36    37    1
    37    37    38    1
    38    38    39    1
    39    27     3   ar
    40    18    13   ar
    41    27    22   ar
    42     1    40    1
    43     2    41    1
    44     2    42    1
    45     4    43    1
    46     5    44    1
    47    11    45    1
    48    14    46    1
    49    15    47    1
    50    16    48    1
    51    17    49    1
    52    20    50    1
    53    23    51    1
    54    24    52    1
    55    25    53    1
    56    26    54    1
    57    30    55    1
    58    30    56    1
    59    30    57    1
    60    31    58    1
    61    33    59    1
    62    35    60    1
    63    35    61    1
    64    36    62    1
    65    36    63    1
    66    37    64    1
    67    37    65    1
    68    38    66    1
    69    38    67    1
    70    39    68    1
    71    39    69    1
    72    39    70    1
