@<TRIPOS>MOLECULE
*****
 52 55 0 0 0
SMALL
GASTEIGER

@<TRIPOS>ATOM
      1 C          -4.1234   -1.0019    1.3753 C.3     1  UNL1       -0.0612
      2 C          -3.3879   -0.6744    0.0959 C.3     1  UNL1       -0.0293
      3 C          -1.9585   -0.9010    0.0432 C.2     1  UNL1       -0.0308
      4 C          -1.1410    0.1363   -0.0719 C.2     1  UNL1       -0.0070
      5 C           0.3256    0.0225   -0.1230 C.ar    1  UNL1       -0.0170
      6 C           0.9844    0.7252   -1.1065 C.ar    1  UNL1       -0.0534
      7 C           2.3541    0.7255   -1.2448 C.ar    1  UNL1       -0.0540
      8 C           3.1065   -0.0308   -0.3341 C.ar    1  UNL1       -0.0248
      9 C           4.5422   -0.0225   -0.4926 C.2     1  UNL1       -0.0478
     10 C           5.3667   -0.6848    0.2949 C.2     1  UNL1        0.0229
     11 C           6.8224   -0.6410    0.0872 C.2     1  UNL1        0.3296
     12 O           7.3293    0.0297   -0.8498 O.2     1  UNL1       -0.2458
     13 O           7.6328   -1.3540    0.9445 O.3     1  UNL1       -0.4775
     14 C           2.4377   -0.7342    0.6515 C.ar    1  UNL1       -0.0540
     15 C           1.0579   -0.7107    0.7611 C.ar    1  UNL1       -0.0534
     16 C          -1.6718    1.4870   -0.2315 C.ar    1  UNL1       -0.0163
     17 C          -2.4400    1.9078   -1.2907 C.ar    1  UNL1       -0.0520
     18 C          -2.9102    3.1800   -1.3571 C.ar    1  UNL1       -0.0357
     19 C          -2.6267    4.0799   -0.3636 C.ar    1  UNL1        0.0658
     20 N          -2.9426    5.3836   -0.1567 N.ar    1  UNL1       -0.2770
     21 N          -2.4114    5.8043    0.9787 N.ar    1  UNL1       -0.1812
     22 C          -1.7262    4.8143    1.5734 C.ar    1  UNL1        0.0569
     23 C          -1.8523    3.7224    0.7409 C.ar    1  UNL1        0.0200
     24 C          -1.4081    2.4174    0.7460 C.ar    1  UNL1       -0.0433
     25 C          -1.2773   -2.1780   -0.0565 C.ar    1  UNL1       -0.0028
     26 C          -0.5474   -2.3481   -1.2393 C.ar    1  UNL1       -0.0502
     27 C           0.1725   -3.4807   -1.5132 C.ar    1  UNL1       -0.0258
     28 C           0.2018   -4.5144   -0.6111 C.ar    1  UNL1        0.1248
     29 F           0.9067   -5.6638   -0.8431 F       1  UNL1       -0.2054
     30 C          -0.4953   -4.3801    0.5472 C.ar    1  UNL1       -0.0075
     31 C          -1.2175   -3.2246    0.8064 C.ar    1  UNL1        0.0511
     32 CL         -2.0253   -3.1235    2.3676 Cl      1  UNL1       -0.0828
     33 H          -3.5004   -0.6689    2.2140 H       1  UNL1        0.0233
     34 H          -4.4774   -2.0196    1.4762 H       1  UNL1        0.0233
     35 H          -5.0403   -0.2996    1.4487 H       1  UNL1        0.0233
     36 H          -3.7771    0.2523   -0.3533 H       1  UNL1        0.0311
     37 H          -3.8329   -1.4565   -0.6275 H       1  UNL1        0.0311
     38 H           0.4660    1.3380   -1.8539 H       1  UNL1        0.0624
     39 H           2.8522    1.2894   -2.0304 H       1  UNL1        0.0624
     40 H           4.9794    0.5525   -1.2936 H       1  UNL1        0.0626
     41 H           4.9928   -1.2718    1.1067 H       1  UNL1        0.0689
     42 H           8.6453   -1.2163    1.0069 H       1  UNL1        0.2954
     43 H           3.0335   -1.3224    1.3572 H       1  UNL1        0.0624
     44 H           0.6153   -1.2700    1.5659 H       1  UNL1        0.0624
     45 H          -2.6550    1.1792   -2.1184 H       1  UNL1        0.0624
     46 H          -3.5180    3.4754   -2.2152 H       1  UNL1        0.0639
     47 H          -3.5317    5.9203   -0.8470 H       1  UNL1        0.1889
     48 H          -1.1840    4.8481    2.5072 H       1  UNL1        0.0854
     49 H          -0.7991    2.1805    1.6412 H       1  UNL1        0.0631
     50 H          -0.5610   -1.5549   -1.9562 H       1  UNL1        0.0625
     51 H           0.7153   -3.5529   -2.4447 H       1  UNL1        0.0646
     52 H          -0.5009   -5.1699    1.2882 H       1  UNL1        0.0661
@<TRIPOS>BOND
     1     1     2    1
     2     2     3    1
     3     3     4    2
     4     4     5    1
     5     5     6   ar
     6     6     7   ar
     7     7     8   ar
     8     8     9    1
     9     9    10    2
    10    10    11    1
    11    11    12    2
    12    11    13    1
    13     8    14   ar
    14    14    15   ar
    15     4    16    1
    16    16    17   ar
    17    17    18   ar
    18    18    19   ar
    19    19    20   ar
    20    20    21   ar
    21    21    22   ar
    22    22    23   ar
    23    23    24   ar
    24     3    25    1
    25    25    26   ar
    26    26    27   ar
    27    27    28   ar
    28    28    29    1
    29    28    30   ar
    30    30    31   ar
    31    31    32    1
    32    15     5   ar
    33    24    16   ar
    34    31    25   ar
    35    23    19   ar
    36     1    33    1
    37     1    34    1
    38     1    35    1
    39     2    36    1
    40     2    37    1
    41     6    38    1
    42     7    39    1
    43     9    40    1
    44    10    41    1
    45    13    42    1
    46    14    43    1
    47    15    44    1
    48    17    45    1
    49    18    46    1
    50    20    47    1
    51    22    48    1
    52    24    49    1
    53    26    50    1
    54    27    51    1
    55    30    52    1
