@<TRIPOS>MOLECULE
*****
 59 60 0 0 0
SMALL
GASTEIGER

@<TRIPOS>ATOM
      1 C          -1.1231    0.8044    1.1034 C.3     1  UNL1        0.0278
      2 C          -0.0265    0.1564    1.8807 C.3     1  UNL1       -0.0092
      3 C           1.1259   -0.2902    1.0690 C.ar    1  UNL1       -0.0456
      4 C           2.0958    0.7119    0.9295 C.ar    1  UNL1       -0.0579
      5 C           3.2644    0.5320    0.2176 C.ar    1  UNL1       -0.0538
      6 C           3.5138   -0.6812   -0.3948 C.ar    1  UNL1       -0.0179
      7 C           2.5599   -1.6697   -0.2587 C.ar    1  UNL1       -0.0538
      8 C           1.3917   -1.4912    0.4524 C.ar    1  UNL1       -0.0579
      9 C           4.7211   -0.9635   -1.1676 C.ar    1  UNL1       -0.0179
     10 C           5.8679   -0.3178   -0.7531 C.ar    1  UNL1       -0.0540
     11 C           7.0630   -0.4955   -1.3900 C.ar    1  UNL1       -0.0612
     12 C           7.0948   -1.3491   -2.4738 C.ar    1  UNL1       -0.0617
     13 C           5.9348   -1.9916   -2.8798 C.ar    1  UNL1       -0.0612
     14 C           4.7163   -1.8251   -2.2488 C.ar    1  UNL1       -0.0540
     15 C          -1.7587   -0.0540    0.0556 C.3     1  UNL1       -0.0215
     16 C          -2.3927   -1.2983    0.6469 C.3     1  UNL1        0.0553
     17 C          -3.4662   -0.8861    1.6413 C.3     1  UNL1       -0.0522
     18 C          -2.9210   -2.1962   -0.3933 C.2     1  UNL1        0.3100
     19 O          -2.8537   -1.9527   -1.6428 O.2     1  UNL1       -0.2505
     20 O          -3.5222   -3.3680    0.0318 O.3     1  UNL1       -0.4647
     21 C          -4.0550   -4.2842   -0.9019 C.3     1  UNL1        0.0897
     22 C          -4.6601   -5.4946   -0.2052 C.3     1  UNL1       -0.0306
     23 N          -0.6431    2.0454    0.5008 N.am    1  UNL1       -0.3121
     24 C          -1.1702    3.3104    0.8753 C.2     1  UNL1        0.2138
     25 O          -2.0807    3.2363    1.7694 O.2     1  UNL1       -0.2758
     26 C          -0.6373    4.5368    0.2228 C.3     1  UNL1        0.0340
     27 C          -1.3107    5.7773    0.7451 C.3     1  UNL1        0.0530
     28 C          -2.7678    5.7491    0.5027 C.2     1  UNL1        0.3052
     29 O          -3.7111    4.8962   -0.0797 O.3     1  UNL1       -0.4806
     30 O          -3.2985    6.8131    0.9622 O.2     1  UNL1       -0.2510
     31 H          -1.9306    1.0314    1.8598 H       1  UNL1        0.0501
     32 H           0.2636    0.8487    2.6892 H       1  UNL1        0.0331
     33 H          -0.5022   -0.7141    2.4223 H       1  UNL1        0.0331
     34 H           2.0186    1.7169    1.3654 H       1  UNL1        0.0620
     35 H           4.0151    1.2954    0.1051 H       1  UNL1        0.0624
     36 H           2.6492   -2.6737   -0.7012 H       1  UNL1        0.0624
     37 H           0.6086   -2.2163    0.5994 H       1  UNL1        0.0620
     38 H           5.8502    0.3643    0.1109 H       1  UNL1        0.0624
     39 H           7.9419    0.0183   -1.0482 H       1  UNL1        0.0618
     40 H           8.0064   -1.5327   -3.0205 H       1  UNL1        0.0618
     41 H           5.9592   -2.6614   -3.7295 H       1  UNL1        0.0618
     42 H           3.8080   -2.3204   -2.5572 H       1  UNL1        0.0624
     43 H          -2.6004    0.5198   -0.3955 H       1  UNL1        0.0291
     44 H          -1.0717   -0.2932   -0.7718 H       1  UNL1        0.0291
     45 H          -1.6579   -1.8876    1.2294 H       1  UNL1        0.0411
     46 H          -3.0060   -0.6845    2.6277 H       1  UNL1        0.0238
     47 H          -4.1418   -1.7543    1.7721 H       1  UNL1        0.0238
     48 H          -3.9947    0.0068    1.2414 H       1  UNL1        0.0238
     49 H          -3.2619   -4.6892   -1.5893 H       1  UNL1        0.0694
     50 H          -4.8045   -3.7549   -1.5268 H       1  UNL1        0.0694
     51 H          -5.3414   -6.0124   -0.9082 H       1  UNL1        0.0262
     52 H          -3.8308   -6.1710    0.0945 H       1  UNL1        0.0262
     53 H          -5.1803   -5.1459    0.7088 H       1  UNL1        0.0262
     54 H           0.1135    1.9064   -0.2203 H       1  UNL1        0.1490
     55 H          -0.8578    4.4451   -0.8803 H       1  UNL1        0.0364
     56 H           0.4452    4.6002    0.3810 H       1  UNL1        0.0364
     57 H          -0.8878    6.6339    0.1879 H       1  UNL1        0.0382
     58 H          -1.1466    5.8458    1.8327 H       1  UNL1        0.0382
     59 H          -4.4140    5.3183   -0.6955 H       1  UNL1        0.2951
@<TRIPOS>BOND
     1     1     2    1
     2     2     3    1
     3     3     4   ar
     4     4     5   ar
     5     5     6   ar
     6     6     7   ar
     7     7     8   ar
     8     6     9    1
     9     9    10   ar
    10    10    11   ar
    11    11    12   ar
    12    12    13   ar
    13    13    14   ar
    14     1    15    1
    15    15    16    1
    16    16    17    1
    17    16    18    1
    18    18    19    2
    19    18    20    1
    20    20    21    1
    21    21    22    1
    22     1    23    1
    23    23    24   am
    24    24    25    2
    25    24    26    1
    26    26    27    1
    27    27    28    1
    28    28    29    1
    29    28    30    2
    30     8     3   ar
    31    14     9   ar
    32     1    31    1
    33     2    32    1
    34     2    33    1
    35     4    34    1
    36     5    35    1
    37     7    36    1
    38     8    37    1
    39    10    38    1
    40    11    39    1
    41    12    40    1
    42    13    41    1
    43    14    42    1
    44    15    43    1
    45    15    44    1
    46    16    45    1
    47    17    46    1
    48    17    47    1
    49    17    48    1
    50    21    49    1
    51    21    50    1
    52    22    51    1
    53    22    52    1
    54    22    53    1
    55    23    54    1
    56    26    55    1
    57    26    56    1
    58    27    57    1
    59    27    58    1
    60    29    59    1
