@<TRIPOS>MOLECULE
*****
 32 34 0 0 0
SMALL
GASTEIGER

@<TRIPOS>ATOM
      1 N6         -5.3574   -0.4991    0.2379 N.pl3   1    A1       -0.3413
      2 C6         -4.0283   -0.9575    0.0107 C.ar    1    A1        0.1472
      3 N1         -3.7240   -2.2500   -0.1451 N.ar    1    A1       -0.2188
      4 C2         -2.4534   -2.6607   -0.3599 C.ar    1    A1        0.1205
      5 N3         -1.4374   -1.7749   -0.4257 N.ar    1    A1       -0.2159
      6 C4         -1.6860   -0.4513   -0.2750 C.ar    1    A1        0.1674
      7 C5         -2.9826   -0.0405   -0.0565 C.ar    1    A1        0.1473
      8 N7         -2.9374    1.2889    0.0532 N.ar    1    A1       -0.2306
      9 C8         -1.6703    1.6914   -0.0901 C.ar    1    A1        0.1004
     10 N9         -0.8879    0.6228   -0.2936 N.ar    1    A1       -0.2855
     11 C1*         0.5301    0.6886   -0.4876 C.3     1    A1        0.1667
     12 O4*         1.1661   -0.5370   -0.3307 O.3     1    A1       -0.3457
     13 C4*         2.5058   -0.2620   -0.2545 C.3     1    A1        0.1126
     14 C5*         3.2866   -1.2233    0.6004 C.3     1    A1        0.0730
     15 O5*         3.2233   -2.5272    0.1639 O.3     1    A1       -0.3924
     16 C3*         2.6738    1.1166    0.3288 C.3     1    A1        0.1135
     17 O3*         3.1394    2.0093   -0.6558 O.3     1    A1       -0.3864
     18 C2*         1.2205    1.5029    0.6152 C.3     1    A1        0.1285
     19 O2*         1.0022    2.8493    0.4814 O.3     1    A1       -0.3847
     20 H61        -5.4975    0.3903    0.7668 H       1    A1        0.1438
     21 H62        -6.2051   -0.9929   -0.0891 H       1    A1        0.1438
     22 H2         -2.3146   -3.7285   -0.4727 H       1    A1        0.1048
     23 H8         -1.3249    2.7456   -0.0466 H       1    A1        0.1030
     24 H1*         0.8471    1.1205   -1.4395 H       1    A1        0.0866
     25 H4*         2.9236   -0.3261   -1.2915 H       1    A1        0.0647
     26 H5*1        2.9902   -1.0973    1.6715 H       1    A1        0.0584
     27 H5*2        4.3523   -0.9058    0.5546 H       1    A1        0.0584
     28 H5*         4.0735   -2.8265   -0.2892 H       1    A1        0.2095
     29 H3*         3.2953    1.1421    1.2286 H       1    A1        0.0647
     30 H3*         3.6703    1.5647   -1.3381 H       1    A1        0.2100
     31 H2*         0.9959    1.0937    1.6174 H       1    A1        0.0665
     32 H2*         0.6107    3.2339    1.3166 H       1    A1        0.2101
@<TRIPOS>BOND
     1     1     2    1
     2     2     3   ar
     3     3     4   ar
     4     4     5   ar
     5     5     6   ar
     6     6     7   ar
     7     7     8   ar
     8     8     9   ar
     9     9    10   ar
    10    10    11    1
    11    11    12    1
    12    12    13    1
    13    13    14    1
    14    14    15    1
    15    13    16    1
    16    16    17    1
    17    16    18    1
    18    18    19    1
    19     7     2   ar
    20    18    11    1
    21    10     6   ar
    22     1    20    1
    23     1    21    1
    24     4    22    1
    25     9    23    1
    26    11    24    1
    27    13    25    1
    28    14    26    1
    29    14    27    1
    30    15    28    1
    31    16    29    1
    32    17    30    1
    33    18    31    1
    34    19    32    1
