
     RDKit          3D

 32 34  0  0  0  0  0  0  0  0999 V2000
   -5.3574   -0.4991    0.2379 N   0  0  0  0  0  0  0  0  0  0  0  0
   -4.0283   -0.9575    0.0107 C   0  0  0  0  0  0  0  0  0  0  0  0
   -3.7240   -2.2500   -0.1451 N   0  0  0  0  0  0  0  0  0  0  0  0
   -2.4534   -2.6607   -0.3599 C   0  0  0  0  0  0  0  0  0  0  0  0
   -1.4374   -1.7749   -0.4257 N   0  0  0  0  0  0  0  0  0  0  0  0
   -1.6860   -0.4513   -0.2750 C   0  0  0  0  0  0  0  0  0  0  0  0
   -2.9826   -0.0405   -0.0565 C   0  0  0  0  0  0  0  0  0  0  0  0
   -2.9374    1.2889    0.0532 N   0  0  0  0  0  0  0  0  0  0  0  0
   -1.6703    1.6914   -0.0901 C   0  0  0  0  0  0  0  0  0  0  0  0
   -0.8879    0.6228   -0.2936 N   0  0  0  0  0  0  0  0  0  0  0  0
    0.5301    0.6886   -0.4876 C   0  0  2  0  0  0  0  0  0  0  0  0
    1.1661   -0.5370   -0.3307 O   0  0  0  0  0  0  0  0  0  0  0  0
    2.5058   -0.2620   -0.2545 C   0  0  2  0  0  0  0  0  0  0  0  0
    3.2866   -1.2233    0.6004 C   0  0  0  0  0  0  0  0  0  0  0  0
    3.2233   -2.5272    0.1639 O   0  0  0  0  0  0  0  0  0  0  0  0
    2.6738    1.1166    0.3288 C   0  0  1  0  0  0  0  0  0  0  0  0
    3.1394    2.0093   -0.6558 O   0  0  0  0  0  0  0  0  0  0  0  0
    1.2205    1.5029    0.6152 C   0  0  1  0  0  0  0  0  0  0  0  0
    1.0022    2.8493    0.4814 O   0  0  0  0  0  0  0  0  0  0  0  0
   -5.4975    0.3903    0.7668 H   0  0  0  0  0  0  0  0  0  0  0  0
   -6.2051   -0.9929   -0.0891 H   0  0  0  0  0  0  0  0  0  0  0  0
   -2.3146   -3.7285   -0.4727 H   0  0  0  0  0  0  0  0  0  0  0  0
   -1.3249    2.7456   -0.0466 H   0  0  0  0  0  0  0  0  0  0  0  0
    0.8471    1.1205   -1.4395 H   0  0  0  0  0  0  0  0  0  0  0  0
    2.9236   -0.3261   -1.2915 H   0  0  0  0  0  0  0  0  0  0  0  0
    2.9902   -1.0973    1.6715 H   0  0  0  0  0  0  0  0  0  0  0  0
    4.3523   -0.9058    0.5546 H   0  0  0  0  0  0  0  0  0  0  0  0
    4.0735   -2.8265   -0.2892 H   0  0  0  0  0  0  0  0  0  0  0  0
    3.2953    1.1421    1.2286 H   0  0  0  0  0  0  0  0  0  0  0  0
    3.6703    1.5647   -1.3381 H   0  0  0  0  0  0  0  0  0  0  0  0
    0.9959    1.0937    1.6174 H   0  0  0  0  0  0  0  0  0  0  0  0
    0.6107    3.2339    1.3166 H   0  0  0  0  0  0  0  0  0  0  0  0
  1  2  1  0
  2  3  2  0
  3  4  1  0
  4  5  2  0
  5  6  1  0
  6  7  2  0
  7  8  1  0
  8  9  2  0
  9 10  1  0
 10 11  1  0
 11 12  1  0
 12 13  1  0
 13 14  1  0
 14 15  1  0
 13 16  1  0
 16 17  1  0
 16 18  1  0
 18 19  1  0
  7  2  1  0
 18 11  1  0
 10  6  1  0
  1 20  1  0
  1 21  1  0
  4 22  1  0
  9 23  1  0
 11 24  1  6
 13 25  1  6
 14 26  1  0
 14 27  1  0
 15 28  1  0
 16 29  1  1
 17 30  1  0
 18 31  1  1
 19 32  1  0
M  END
$$$$
