@<TRIPOS>MOLECULE
*****
 40 41 0 0 0
SMALL
GASTEIGER

@<TRIPOS>ATOM
      1 C           4.6231   -0.1056    1.0990 C.3     1  UNL1        0.1037
      2 O           5.4238    1.0394    0.8915 O.3     1  UNL1       -0.3872
      3 C           5.5325   -1.2895    0.8546 C.3     1  UNL1        0.0724
      4 O           6.6131   -1.2786    1.7344 O.3     1  UNL1       -0.3924
      5 C           3.5072   -0.0165    0.1147 C.3     1  UNL1        0.1013
      6 O           2.6070   -1.0748    0.1748 O.3     1  UNL1       -0.2769
      7 N           1.6276   -0.9237   -0.7458 N.am    1  UNL1       -0.1904
      8 C           0.3858   -0.2555   -0.5711 C.2     1  UNL1        0.2686
      9 O           0.3037    0.1971    0.5905 O.2     1  UNL1       -0.2680
     10 C          -0.5916   -0.1587   -1.6420 C.ar    1  UNL1        0.0628
     11 C          -1.7712    0.4841   -1.3425 C.ar    1  UNL1        0.0822
     12 N          -2.1876    1.0231   -0.1205 N.pl3   1  UNL1       -0.3094
     13 C          -3.0531    0.6342    0.9287 C.ar    1  UNL1        0.0671
     14 C          -4.0394    1.6236    1.0496 C.ar    1  UNL1       -0.0368
     15 C          -5.0564    1.5232    2.0069 C.ar    1  UNL1       -0.0467
     16 C          -5.0807    0.4296    2.8406 C.ar    1  UNL1        0.0162
     17 I          -6.5772    0.1842    4.3221 I       1  UNL1       -0.0437
     18 C          -4.1139   -0.5410    2.7224 C.ar    1  UNL1       -0.0115
     19 C          -3.1143   -0.4420    1.7811 C.ar    1  UNL1        0.1454
     20 F          -2.1098   -1.3164    1.5482 F       1  UNL1       -0.2035
     21 C          -2.7248    0.6265   -2.3325 C.ar    1  UNL1        0.1801
     22 F          -3.9412    1.2425   -2.1797 F       1  UNL1       -0.2005
     23 C          -2.5084    0.1292   -3.6226 C.ar    1  UNL1        0.1603
     24 F          -3.4340    0.2570   -4.6176 F       1  UNL1       -0.2024
     25 C          -1.3010   -0.5112   -3.8688 C.ar    1  UNL1       -0.0228
     26 C          -0.3253   -0.6662   -2.8878 C.ar    1  UNL1       -0.0449
     27 H           4.3107   -0.1040    2.1408 H       1  UNL1        0.0640
     28 H           6.3088    0.9248    1.3138 H       1  UNL1        0.2100
     29 H           5.8996   -1.3300   -0.1724 H       1  UNL1        0.0584
     30 H           4.9811   -2.2424    1.0901 H       1  UNL1        0.0584
     31 H           7.3649   -0.8387    1.2462 H       1  UNL1        0.2095
     32 H           2.9345    0.9081    0.3561 H       1  UNL1        0.0610
     33 H           3.9143    0.0063   -0.9086 H       1  UNL1        0.0610
     34 H           1.9070   -1.3815   -1.6499 H       1  UNL1        0.1828
     35 H          -1.6639    1.9392   -0.0825 H       1  UNL1        0.1523
     36 H          -4.1733    2.5534    0.4750 H       1  UNL1        0.0637
     37 H          -5.8467    2.2432    2.1579 H       1  UNL1        0.0628
     38 H          -4.0629   -1.4281    3.3373 H       1  UNL1        0.0657
     39 H          -1.1396   -0.8973   -4.8795 H       1  UNL1        0.0647
     40 H           0.5718   -1.1670   -3.1524 H       1  UNL1        0.0627
@<TRIPOS>BOND
     1     1     2    1
     2     1     3    1
     3     3     4    1
     4     1     5    1
     5     5     6    1
     6     6     7    1
     7     7     8   am
     8     8     9    2
     9     8    10    1
    10    10    11   ar
    11    11    12    1
    12    12    13    1
    13    13    14   ar
    14    14    15   ar
    15    15    16   ar
    16    16    17    1
    17    16    18   ar
    18    18    19   ar
    19    19    20    1
    20    11    21   ar
    21    21    22    1
    22    21    23   ar
    23    23    24    1
    24    23    25   ar
    25    25    26   ar
    26    26    10   ar
    27    19    13   ar
    28     1    27    1
    29     2    28    1
    30     3    29    1
    31     3    30    1
    32     4    31    1
    33     5    32    1
    34     5    33    1
    35     7    34    1
    36    12    35    1
    37    14    36    1
    38    15    37    1
    39    18    38    1
    40    25    39    1
    41    26    40    1
