
     RDKit          3D

 40 41  0  0  0  0  0  0  0  0999 V2000
    4.6231   -0.1056    1.0990 C   0  0  2  0  0  0  0  0  0  0  0  0
    5.4238    1.0394    0.8915 O   0  0  0  0  0  0  0  0  0  0  0  0
    5.5325   -1.2895    0.8546 C   0  0  0  0  0  0  0  0  0  0  0  0
    6.6131   -1.2786    1.7344 O   0  0  0  0  0  0  0  0  0  0  0  0
    3.5072   -0.0165    0.1147 C   0  0  0  0  0  0  0  0  0  0  0  0
    2.6070   -1.0748    0.1748 O   0  0  0  0  0  0  0  0  0  0  0  0
    1.6276   -0.9237   -0.7458 N   0  0  0  0  0  0  0  0  0  0  0  0
    0.3858   -0.2555   -0.5711 C   0  0  0  0  0  0  0  0  0  0  0  0
    0.3037    0.1971    0.5905 O   0  0  0  0  0  0  0  0  0  0  0  0
   -0.5916   -0.1587   -1.6420 C   0  0  0  0  0  0  0  0  0  0  0  0
   -1.7712    0.4841   -1.3425 C   0  0  0  0  0  0  0  0  0  0  0  0
   -2.1876    1.0231   -0.1205 N   0  0  0  0  0  0  0  0  0  0  0  0
   -3.0531    0.6342    0.9287 C   0  0  0  0  0  0  0  0  0  0  0  0
   -4.0394    1.6236    1.0496 C   0  0  0  0  0  0  0  0  0  0  0  0
   -5.0564    1.5232    2.0069 C   0  0  0  0  0  0  0  0  0  0  0  0
   -5.0807    0.4296    2.8406 C   0  0  0  0  0  0  0  0  0  0  0  0
   -6.5772    0.1842    4.3221 I   0  0  0  0  0  0  0  0  0  0  0  0
   -4.1139   -0.5410    2.7224 C   0  0  0  0  0  0  0  0  0  0  0  0
   -3.1143   -0.4420    1.7811 C   0  0  0  0  0  0  0  0  0  0  0  0
   -2.1098   -1.3164    1.5482 F   0  0  0  0  0  0  0  0  0  0  0  0
   -2.7248    0.6265   -2.3325 C   0  0  0  0  0  0  0  0  0  0  0  0
   -3.9412    1.2425   -2.1797 F   0  0  0  0  0  0  0  0  0  0  0  0
   -2.5084    0.1292   -3.6226 C   0  0  0  0  0  0  0  0  0  0  0  0
   -3.4340    0.2570   -4.6176 F   0  0  0  0  0  0  0  0  0  0  0  0
   -1.3010   -0.5112   -3.8688 C   0  0  0  0  0  0  0  0  0  0  0  0
   -0.3253   -0.6662   -2.8878 C   0  0  0  0  0  0  0  0  0  0  0  0
    4.3107   -0.1040    2.1408 H   0  0  0  0  0  0  0  0  0  0  0  0
    6.3088    0.9248    1.3138 H   0  0  0  0  0  0  0  0  0  0  0  0
    5.8996   -1.3300   -0.1724 H   0  0  0  0  0  0  0  0  0  0  0  0
    4.9811   -2.2424    1.0901 H   0  0  0  0  0  0  0  0  0  0  0  0
    7.3649   -0.8387    1.2462 H   0  0  0  0  0  0  0  0  0  0  0  0
    2.9345    0.9081    0.3561 H   0  0  0  0  0  0  0  0  0  0  0  0
    3.9143    0.0063   -0.9086 H   0  0  0  0  0  0  0  0  0  0  0  0
    1.9070   -1.3815   -1.6499 H   0  0  0  0  0  0  0  0  0  0  0  0
   -1.6639    1.9392   -0.0825 H   0  0  0  0  0  0  0  0  0  0  0  0
   -4.1733    2.5534    0.4750 H   0  0  0  0  0  0  0  0  0  0  0  0
   -5.8467    2.2432    2.1579 H   0  0  0  0  0  0  0  0  0  0  0  0
   -4.0629   -1.4281    3.3373 H   0  0  0  0  0  0  0  0  0  0  0  0
   -1.1396   -0.8973   -4.8795 H   0  0  0  0  0  0  0  0  0  0  0  0
    0.5718   -1.1670   -3.1524 H   0  0  0  0  0  0  0  0  0  0  0  0
  1  2  1  0
  1  3  1  0
  3  4  1  0
  1  5  1  0
  5  6  1  0
  6  7  1  0
  7  8  1  0
  8  9  2  0
  8 10  1  0
 10 11  2  0
 11 12  1  0
 12 13  1  0
 13 14  2  0
 14 15  1  0
 15 16  2  0
 16 17  1  0
 16 18  1  0
 18 19  2  0
 19 20  1  0
 11 21  1  0
 21 22  1  0
 21 23  2  0
 23 24  1  0
 23 25  1  0
 25 26  2  0
 26 10  1  0
 19 13  1  0
  1 27  1  1
  2 28  1  0
  3 29  1  0
  3 30  1  0
  4 31  1  0
  5 32  1  0
  5 33  1  0
  7 34  1  0
 12 35  1  0
 14 36  1  0
 15 37  1  0
 18 38  1  0
 25 39  1  0
 26 40  1  0
M  END
$$$$
