@<TRIPOS>MOLECULE
*****
 51 54 0 0 0
SMALL
GASTEIGER

@<TRIPOS>ATOM
      1 C           0.7413    0.7435   -1.1011 C.3     1  UNL1        0.0242
      2 C          -0.5637   -0.0060   -0.9516 C.3     1  UNL1        0.0329
      3 N          -1.4647    0.3934   -1.9798 N.3     1  UNL1       -0.1885
      4 S          -2.9467   -0.4495   -1.8095 S.O2    1  UNL1        0.0590
      5 O          -2.5636   -1.9321   -1.8459 O.2     1  UNL1       -0.1530
      6 O          -3.8196   -0.1379   -3.0095 O.2     1  UNL1       -0.1530
      7 C          -3.7274   -0.0669   -0.3261 C.ar    1  UNL1        0.1130
      8 C          -3.4490    0.8570    0.6296 C.ar    1  UNL1       -0.0347
      9 C          -4.1757    1.0817    1.7717 C.ar    1  UNL1       -0.0593
     10 C          -5.2985    0.3316    2.0202 C.ar    1  UNL1       -0.0525
     11 C          -5.6469   -0.6265    1.0945 C.ar    1  UNL1        0.0021
     12 C          -6.7802   -1.3505    1.3838 C.ar    1  UNL1        0.0353
     13 N          -7.1764   -2.2946    0.5255 N.ar    1  UNL1       -0.2626
     14 C          -6.4947   -2.5493   -0.6071 C.ar    1  UNL1        0.0282
     15 C          -5.3653   -1.8022   -0.8598 C.ar    1  UNL1       -0.0340
     16 C          -4.8795   -0.8118   -0.0388 C.ar    1  UNL1        0.0113
     17 C           1.7153    0.3267   -0.0082 C.3     1  UNL1       -0.0087
     18 C           2.7752    1.4256   -0.2160 C.3     1  UNL1        0.0730
     19 C           1.9295    2.6113   -0.7139 C.3     1  UNL1        0.0226
     20 N           0.5575    2.1419   -0.7471 N.3     1  UNL1       -0.3095
     21 O           3.5358    1.0124   -1.2672 O.3     1  UNL1       -0.3707
     22 C           4.8725    0.9315   -1.0104 C.3     1  UNL1        0.0731
     23 C           5.1327   -0.0382    0.0624 C.ar    1  UNL1       -0.0218
     24 C           5.3154    0.1044    1.4181 C.ar    1  UNL1       -0.0550
     25 C           5.5302   -0.9803    2.2349 C.ar    1  UNL1       -0.0431
     26 C           5.5756   -2.2680    1.7472 C.ar    1  UNL1        0.0410
     27 CL          5.8550   -3.5829    2.8702 Cl      1  UNL1       -0.0835
     28 C           5.3984   -2.4564    0.3971 C.ar    1  UNL1       -0.0431
     29 C           5.1820   -1.3500   -0.4153 C.ar    1  UNL1       -0.0550
     30 H           1.2243    0.6078   -2.0720 H       1  UNL1        0.0474
     31 H          -0.8935    0.0806    0.0849 H       1  UNL1        0.0457
     32 H          -0.3396   -1.0943   -1.1250 H       1  UNL1        0.0457
     33 H          -1.5570    1.4045   -2.1174 H       1  UNL1        0.1481
     34 H          -2.6073    1.4827    0.4784 H       1  UNL1        0.0637
     35 H          -3.8775    1.8374    2.4746 H       1  UNL1        0.0618
     36 H          -5.8646    0.5078    2.9121 H       1  UNL1        0.0624
     37 H          -7.3539   -1.1755    2.2822 H       1  UNL1        0.0836
     38 H          -6.8400   -3.3195   -1.2825 H       1  UNL1        0.0830
     39 H          -4.8648   -2.0490   -1.7817 H       1  UNL1        0.0639
     40 H           1.2761    0.4083    0.9955 H       1  UNL1        0.0306
     41 H           2.1535   -0.6761   -0.2217 H       1  UNL1        0.0306
     42 H           3.2757    1.6616    0.7177 H       1  UNL1        0.0609
     43 H           2.1803    2.8851   -1.7594 H       1  UNL1        0.0449
     44 H           2.0332    3.4609   -0.0071 H       1  UNL1        0.0449
     45 H           0.1293    2.1989    0.1860 H       1  UNL1        0.1223
     46 H           5.4224    0.6532   -1.9550 H       1  UNL1        0.0610
     47 H           5.3013    1.9244   -0.6682 H       1  UNL1        0.0610
     48 H           5.2842    1.1288    1.7558 H       1  UNL1        0.0621
     49 H           5.6571   -0.7343    3.2716 H       1  UNL1        0.0632
     50 H           5.4389   -3.4619    0.0493 H       1  UNL1        0.0632
     51 H           5.0573   -1.6442   -1.4661 H       1  UNL1        0.0621
@<TRIPOS>BOND
     1     1     2    1
     2     2     3    1
     3     3     4    1
     4     4     5    2
     5     4     6    2
     6     4     7    1
     7     7     8   ar
     8     8     9   ar
     9     9    10   ar
    10    10    11   ar
    11    11    12   ar
    12    12    13   ar
    13    13    14   ar
    14    14    15   ar
    15    15    16   ar
    16     1    17    1
    17    17    18    1
    18    18    19    1
    19    19    20    1
    20    18    21    1
    21    21    22    1
    22    22    23    1
    23    23    24   ar
    24    24    25   ar
    25    25    26   ar
    26    26    27    1
    27    26    28   ar
    28    28    29   ar
    29    20     1    1
    30    29    23   ar
    31    16     7   ar
    32    16    11   ar
    33     1    30    1
    34     2    31    1
    35     2    32    1
    36     3    33    1
    37     8    34    1
    38     9    35    1
    39    10    36    1
    40    12    37    1
    41    14    38    1
    42    15    39    1
    43    17    40    1
    44    17    41    1
    45    18    42    1
    46    19    43    1
    47    19    44    1
    48    20    45    1
    49    22    46    1
    50    22    47    1
    51    24    48    1
    52    25    49    1
    53    28    50    1
    54    29    51    1
