
     RDKit          3D

 58 61  0  0  0  0  0  0  0  0999 V2000
   -0.5264    2.9785   -0.2749 C   0  0  0  0  0  0  0  0  0  0  0  0
   -1.9172    2.7198    0.1133 C   0  0  0  0  0  0  0  0  0  0  0  0
   -2.8516    3.6539   -0.3742 C   0  0  0  0  0  0  0  0  0  0  0  0
   -4.1898    3.5511   -0.0741 C   0  0  0  0  0  0  0  0  0  0  0  0
   -4.5993    2.5048    0.7217 C   0  0  0  0  0  0  0  0  0  0  0  0
   -5.9130    2.3733    1.0360 F   0  0  0  0  0  0  0  0  0  0  0  0
   -3.6676    1.6240    1.1729 C   0  0  0  0  0  0  0  0  0  0  0  0
   -2.3054    1.6739    0.9031 C   0  0  0  0  0  0  0  0  0  0  0  0
   -1.4394    0.6799    1.4777 C   0  0  0  0  0  0  0  0  0  0  0  0
   -0.8202   -0.3269    0.6798 N   0  0  0  0  0  0  0  0  0  0  0  0
    0.4231   -0.3270    0.1901 C   0  0  0  0  0  0  0  0  0  0  0  0
    1.5196    0.5536    0.3807 N   0  0  0  0  0  0  0  0  0  0  0  0
    2.0049    0.8352    1.7421 C   0  0  0  0  0  0  0  0  0  0  0  0
    3.4813    0.4459    1.8246 C   0  0  0  0  0  0  0  0  0  0  0  0
    3.9700   -0.1638    0.5225 C   0  0  0  0  0  0  0  0  0  0  0  0
    3.7009    0.7436   -0.6497 C   0  0  1  0  0  0  0  0  0  0  0  0
    4.6786    1.8998   -0.5883 C   0  0  0  0  0  0  0  0  0  0  0  0
    3.9535   -0.0029   -1.8652 N   0  0  0  0  0  0  0  0  0  0  0  0
    2.2584    1.2059   -0.6758 C   0  0  0  0  0  0  0  0  0  0  0  0
    0.6305   -1.4768   -0.5847 C   0  0  0  0  0  0  0  0  0  0  0  0
   -0.5116   -2.1926   -0.5610 C   0  0  0  0  0  0  0  0  0  0  0  0
   -1.4051   -1.4756    0.2245 C   0  0  0  0  0  0  0  0  0  0  0  0
   -2.6371   -2.0830    0.3700 C   0  0  0  0  0  0  0  0  0  0  0  0
   -3.5141   -1.5591    1.0408 O   0  0  0  0  0  0  0  0  0  0  0  0
   -2.9230   -3.2703   -0.2142 N   0  0  0  0  0  0  0  0  0  0  0  0
   -4.2541   -3.8629   -0.0179 C   0  0  0  0  0  0  0  0  0  0  0  0
   -2.0171   -3.9076   -0.9601 C   0  0  0  0  0  0  0  0  0  0  0  0
   -2.2915   -5.0132   -1.5014 O   0  0  0  0  0  0  0  0  0  0  0  0
   -0.8077   -3.3726   -1.1373 N   0  0  0  0  0  0  0  0  0  0  0  0
    0.1724   -4.0896   -1.9577 C   0  0  0  0  0  0  0  0  0  0  0  0
    0.1743    2.8997    0.5578 H   0  0  0  0  0  0  0  0  0  0  0  0
   -0.2926    2.3381   -1.1434 H   0  0  0  0  0  0  0  0  0  0  0  0
   -0.4064    4.0303   -0.6569 H   0  0  0  0  0  0  0  0  0  0  0  0
   -2.5440    4.4818   -1.0004 H   0  0  0  0  0  0  0  0  0  0  0  0
   -4.9297    4.2626   -0.4420 H   0  0  0  0  0  0  0  0  0  0  0  0
   -4.0507    0.8335    1.8257 H   0  0  0  0  0  0  0  0  0  0  0  0
   -0.6105    1.2726    2.0019 H   0  0  0  0  0  0  0  0  0  0  0  0
   -1.9423    0.2091    2.3961 H   0  0  0  0  0  0  0  0  0  0  0  0
    1.9320    1.9313    1.8751 H   0  0  0  0  0  0  0  0  0  0  0  0
    1.4375    0.2525    2.4977 H   0  0  0  0  0  0  0  0  0  0  0  0
    4.1301    1.2731    2.1402 H   0  0  0  0  0  0  0  0  0  0  0  0
    3.5794   -0.3628    2.5925 H   0  0  0  0  0  0  0  0  0  0  0  0
    3.4921   -1.1413    0.3469 H   0  0  0  0  0  0  0  0  0  0  0  0
    5.0572   -0.3051    0.6073 H   0  0  0  0  0  0  0  0  0  0  0  0
    4.1361    2.8289   -0.8016 H   0  0  0  0  0  0  0  0  0  0  0  0
    5.5306    1.7518   -1.3111 H   0  0  0  0  0  0  0  0  0  0  0  0
    5.1359    1.9620    0.4245 H   0  0  0  0  0  0  0  0  0  0  0  0
    3.7490    0.6001   -2.6973 H   0  0  0  0  0  0  0  0  0  0  0  0
    4.9639   -0.2922   -1.9279 H   0  0  0  0  0  0  0  0  0  0  0  0
    2.2912    2.3068   -0.4156 H   0  0  0  0  0  0  0  0  0  0  0  0
    1.7900    1.1299   -1.6701 H   0  0  0  0  0  0  0  0  0  0  0  0
    1.5483   -1.7490   -1.1151 H   0  0  0  0  0  0  0  0  0  0  0  0
   -4.0861   -4.8159    0.5237 H   0  0  0  0  0  0  0  0  0  0  0  0
   -4.8461   -3.2055    0.6251 H   0  0  0  0  0  0  0  0  0  0  0  0
   -4.7157   -4.0137   -1.0175 H   0  0  0  0  0  0  0  0  0  0  0  0
    1.1844   -3.9185   -1.5619 H   0  0  0  0  0  0  0  0  0  0  0  0
    0.1396   -3.7096   -2.9935 H   0  0  0  0  0  0  0  0  0  0  0  0
   -0.0497   -5.1698   -1.9589 H   0  0  0  0  0  0  0  0  0  0  0  0
  1  2  1  0
  2  3  2  0
  3  4  1  0
  4  5  2  0
  5  6  1  0
  5  7  1  0
  7  8  2  0
  8  9  1  0
  9 10  1  0
 10 11  1  0
 11 12  1  0
 12 13  1  0
 13 14  1  0
 14 15  1  0
 15 16  1  0
 16 17  1  0
 16 18  1  6
 16 19  1  0
 11 20  2  0
 20 21  1  0
 21 22  2  0
 22 23  1  0
 23 24  2  0
 23 25  1  0
 25 26  1  0
 25 27  1  0
 27 28  2  0
 27 29  1  0
 29 30  1  0
  8  2  1  0
 22 10  1  0
 19 12  1  0
 29 21  1  0
  1 31  1  0
  1 32  1  0
  1 33  1  0
  3 34  1  0
  4 35  1  0
  7 36  1  0
  9 37  1  0
  9 38  1  0
 13 39  1  0
 13 40  1  0
 14 41  1  0
 14 42  1  0
 15 43  1  0
 15 44  1  0
 17 45  1  0
 17 46  1  0
 17 47  1  0
 18 48  1  0
 18 49  1  0
 19 50  1  0
 19 51  1  0
 20 52  1  0
 26 53  1  0
 26 54  1  0
 26 55  1  0
 30 56  1  0
 30 57  1  0
 30 58  1  0
M  END
$$$$
