@<TRIPOS>MOLECULE
*****
 58 61 0 0 0
SMALL
GASTEIGER

@<TRIPOS>ATOM
      1 C          -0.5264    2.9785   -0.2749 C.3     1  UNL1       -0.0394
      2 C          -1.9172    2.7198    0.1133 C.ar    1  UNL1       -0.0454
      3 C          -2.8516    3.6539   -0.3742 C.ar    1  UNL1       -0.0558
      4 C          -4.1898    3.5511   -0.0741 C.ar    1  UNL1       -0.0262
      5 C          -4.5993    2.5048    0.7217 C.ar    1  UNL1        0.1237
      6 F          -5.9130    2.3733    1.0360 F       1  UNL1       -0.2055
      7 C          -3.6676    1.6240    1.1729 C.ar    1  UNL1       -0.0213
      8 C          -2.3054    1.6739    0.9031 C.ar    1  UNL1       -0.0221
      9 C          -1.4394    0.6799    1.4777 C.3     1  UNL1        0.0505
     10 N          -0.8202   -0.3269    0.6798 N.ar    1  UNL1       -0.3188
     11 C           0.4231   -0.3270    0.1901 C.ar    1  UNL1        0.1043
     12 N           1.5196    0.5536    0.3807 N.pl3   1  UNL1       -0.3147
     13 C           2.0049    0.8352    1.7421 C.3     1  UNL1        0.0136
     14 C           3.4813    0.4459    1.8246 C.3     1  UNL1       -0.0355
     15 C           3.9700   -0.1638    0.5225 C.3     1  UNL1       -0.0322
     16 C           3.7009    0.7436   -0.6497 C.3     1  UNL1        0.0296
     17 C           4.6786    1.8998   -0.5883 C.3     1  UNL1       -0.0455
     18 N           3.9535   -0.0029   -1.8652 N.3     1  UNL1       -0.3236
     19 C           2.2584    1.2059   -0.6758 C.3     1  UNL1        0.0313
     20 C           0.6305   -1.4768   -0.5847 C.ar    1  UNL1        0.0025
     21 C          -0.5116   -2.1926   -0.5610 C.ar    1  UNL1        0.0780
     22 C          -1.4051   -1.4756    0.2245 C.ar    1  UNL1        0.1329
     23 C          -2.6371   -2.0830    0.3700 C.ar    1  UNL1        0.2806
     24 O          -3.5141   -1.5591    1.0408 O.2     1  UNL1       -0.2652
     25 N          -2.9230   -3.2703   -0.2142 N.ar    1  UNL1       -0.2623
     26 C          -4.2541   -3.8629   -0.0179 C.3     1  UNL1        0.0196
     27 C          -2.0171   -3.9076   -0.9601 C.ar    1  UNL1        0.3320
     28 O          -2.2915   -5.0132   -1.5014 O.2     1  UNL1       -0.2463
     29 N          -0.8077   -3.3726   -1.1373 N.ar    1  UNL1       -0.2947
     30 C           0.1724   -4.0896   -1.9577 C.3     1  UNL1        0.0167
     31 H           0.1743    2.8997    0.5578 H       1  UNL1        0.0278
     32 H          -0.2926    2.3381   -1.1434 H       1  UNL1        0.0278
     33 H          -0.4064    4.0303   -0.6569 H       1  UNL1        0.0278
     34 H          -2.5440    4.4818   -1.0004 H       1  UNL1        0.0621
     35 H          -4.9297    4.2626   -0.4420 H       1  UNL1        0.0646
     36 H          -4.0507    0.8335    1.8257 H       1  UNL1        0.0649
     37 H          -0.6105    1.2726    2.0019 H       1  UNL1        0.0542
     38 H          -1.9423    0.2091    2.3961 H       1  UNL1        0.0542
     39 H           1.9320    1.9313    1.8751 H       1  UNL1        0.0464
     40 H           1.4375    0.2525    2.4977 H       1  UNL1        0.0464
     41 H           4.1301    1.2731    2.1402 H       1  UNL1        0.0281
     42 H           3.5794   -0.3628    2.5925 H       1  UNL1        0.0281
     43 H           3.4921   -1.1413    0.3469 H       1  UNL1        0.0284
     44 H           5.0572   -0.3051    0.6073 H       1  UNL1        0.0284
     45 H           4.1361    2.8289   -0.8016 H       1  UNL1        0.0248
     46 H           5.5306    1.7518   -1.3111 H       1  UNL1        0.0248
     47 H           5.1359    1.9620    0.4245 H       1  UNL1        0.0248
     48 H           3.7490    0.6001   -2.6973 H       1  UNL1        0.1188
     49 H           4.9639   -0.2922   -1.9279 H       1  UNL1        0.1188
     50 H           2.2912    2.3068   -0.4156 H       1  UNL1        0.0482
     51 H           1.7900    1.1299   -1.6701 H       1  UNL1        0.0482
     52 H           1.5483   -1.7490   -1.1151 H       1  UNL1        0.0673
     53 H          -4.0861   -4.8159    0.5237 H       1  UNL1        0.0458
     54 H          -4.8461   -3.2055    0.6251 H       1  UNL1        0.0458
     55 H          -4.7157   -4.0137   -1.0175 H       1  UNL1        0.0458
     56 H           1.1844   -3.9185   -1.5619 H       1  UNL1        0.0457
     57 H           0.1396   -3.7096   -2.9935 H       1  UNL1        0.0457
     58 H          -0.0497   -5.1698   -1.9589 H       1  UNL1        0.0457
@<TRIPOS>BOND
     1     1     2    1
     2     2     3   ar
     3     3     4   ar
     4     4     5   ar
     5     5     6    1
     6     5     7   ar
     7     7     8   ar
     8     8     9    1
     9     9    10    1
    10    10    11   ar
    11    11    12    1
    12    12    13    1
    13    13    14    1
    14    14    15    1
    15    15    16    1
    16    16    17    1
    17    16    18    1
    18    16    19    1
    19    11    20   ar
    20    20    21   ar
    21    21    22   ar
    22    22    23   ar
    23    23    24    2
    24    23    25   ar
    25    25    26    1
    26    25    27   ar
    27    27    28    2
    28    27    29   ar
    29    29    30    1
    30     8     2   ar
    31    22    10   ar
    32    19    12    1
    33    29    21   ar
    34     1    31    1
    35     1    32    1
    36     1    33    1
    37     3    34    1
    38     4    35    1
    39     7    36    1
    40     9    37    1
    41     9    38    1
    42    13    39    1
    43    13    40    1
    44    14    41    1
    45    14    42    1
    46    15    43    1
    47    15    44    1
    48    17    45    1
    49    17    46    1
    50    17    47    1
    51    18    48    1
    52    18    49    1
    53    19    50    1
    54    19    51    1
    55    20    52    1
    56    26    53    1
    57    26    54    1
    58    26    55    1
    59    30    56    1
    60    30    57    1
    61    30    58    1
