@<TRIPOS>MOLECULE
*****
 60 62 0 0 0
SMALL
GASTEIGER

@<TRIPOS>ATOM
      1 C          -4.0528    3.0844    3.1249 C.3     1  UNL1       -0.0653
      2 C          -4.6828    3.3286    1.7795 C.3     1  UNL1       -0.0555
      3 C          -4.5141    2.1478    0.8514 C.3     1  UNL1       -0.0464
      4 C          -5.1232    0.8800    1.3572 C.3     1  UNL1        0.0062
      5 C          -4.8647   -0.1856    0.3220 C.ar    1  UNL1        0.1171
      6 C          -3.7348   -0.9133    0.0204 C.ar    1  UNL1        0.0708
      7 C          -2.5018   -0.7911    0.7161 C.2     1  UNL1        0.1971
      8 O          -2.5672   -0.2324    1.8627 O.2     1  UNL1       -0.2865
      9 C          -1.1091   -1.1186    0.5218 C.ar    1  UNL1        0.0246
     10 C          -0.2443   -1.4380    1.5384 C.ar    1  UNL1       -0.0342
     11 C           1.0970   -1.7105    1.2585 C.ar    1  UNL1        0.0567
     12 I           2.2240   -2.1792    3.0028 I       1  UNL1       -0.0400
     13 C           1.6216   -1.6755   -0.0315 C.ar    1  UNL1        0.1467
     14 O           2.9497   -1.9833    0.0021 O.3     1  UNL1       -0.4886
     15 C           4.0397   -1.1427    0.1903 C.3     1  UNL1        0.1023
     16 C           4.2537   -0.0579   -0.7987 C.3     1  UNL1        0.0331
     17 N           5.4021    0.7690   -0.5154 N.3     1  UNL1       -0.2996
     18 C           5.3208    1.5846    0.6352 C.3     1  UNL1       -0.0038
     19 C           6.5979    2.3827    0.7751 C.3     1  UNL1       -0.0524
     20 C           6.6587    0.2304   -0.8766 C.3     1  UNL1       -0.0038
     21 C           6.6935    0.1904   -2.4123 C.3     1  UNL1       -0.0524
     22 C           0.7560   -1.3564   -1.0483 C.ar    1  UNL1        0.0567
     23 I           1.5809   -1.3395   -2.9767 I       1  UNL1       -0.0400
     24 C          -0.5521   -1.0961   -0.7249 C.ar    1  UNL1       -0.0342
     25 C          -4.1229   -1.7239   -1.0171 C.ar    1  UNL1        0.0313
     26 C          -5.4418   -1.4908   -1.3295 C.ar    1  UNL1        0.1359
     27 O          -5.8110   -0.5638   -0.4894 O.2     1  UNL1       -0.4590
     28 C          -6.1566   -2.1399   -2.3308 C.ar    1  UNL1       -0.0187
     29 C          -5.4541   -3.0909   -3.0490 C.ar    1  UNL1       -0.0582
     30 C          -4.1315   -3.3620   -2.7729 C.ar    1  UNL1       -0.0610
     31 C          -3.4867   -2.6818   -1.7687 C.ar    1  UNL1       -0.0503
     32 H          -4.1520    4.0224    3.7156 H       1  UNL1        0.0230
     33 H          -4.5978    2.3126    3.7118 H       1  UNL1        0.0230
     34 H          -2.9931    2.8429    3.0389 H       1  UNL1        0.0230
     35 H          -4.1208    4.1666    1.3032 H       1  UNL1        0.0263
     36 H          -5.7243    3.6522    1.8737 H       1  UNL1        0.0263
     37 H          -3.4643    2.0130    0.6129 H       1  UNL1        0.0269
     38 H          -5.0369    2.4009   -0.0955 H       1  UNL1        0.0269
     39 H          -4.7026    0.5321    2.3252 H       1  UNL1        0.0344
     40 H          -6.2070    0.9594    1.5272 H       1  UNL1        0.0344
     41 H          -0.6651   -1.4635    2.5448 H       1  UNL1        0.0636
     42 H           3.9725   -0.6418    1.2045 H       1  UNL1        0.0709
     43 H           4.9590   -1.7712    0.2846 H       1  UNL1        0.0709
     44 H           3.3815    0.6047   -0.9235 H       1  UNL1        0.0460
     45 H           4.4680   -0.5074   -1.8022 H       1  UNL1        0.0460
     46 H           4.4824    2.3122    0.6284 H       1  UNL1        0.0424
     47 H           5.1929    0.9840    1.5712 H       1  UNL1        0.0424
     48 H           6.8920    2.8347   -0.2024 H       1  UNL1        0.0242
     49 H           7.4222    1.8267    1.2546 H       1  UNL1        0.0242
     50 H           6.3557    3.2596    1.4453 H       1  UNL1        0.0242
     51 H           6.8494   -0.7952   -0.5004 H       1  UNL1        0.0424
     52 H           7.4613    0.9214   -0.5645 H       1  UNL1        0.0424
     53 H           6.2630   -0.7645   -2.7552 H       1  UNL1        0.0242
     54 H           7.7030    0.3803   -2.8128 H       1  UNL1        0.0242
     55 H           6.0230    0.9941   -2.8110 H       1  UNL1        0.0242
     56 H          -1.2126   -0.8438   -1.5699 H       1  UNL1        0.0636
     57 H          -7.1782   -1.8993   -2.5097 H       1  UNL1        0.0654
     58 H          -5.9312   -3.6349   -3.8370 H       1  UNL1        0.0619
     59 H          -3.6194   -4.1144   -3.3594 H       1  UNL1        0.0618
     60 H          -2.4646   -2.9084   -1.5521 H       1  UNL1        0.0625
@<TRIPOS>BOND
     1     1     2    1
     2     2     3    1
     3     3     4    1
     4     4     5    1
     5     5     6   ar
     6     6     7    1
     7     7     8    2
     8     7     9    1
     9     9    10   ar
    10    10    11   ar
    11    11    12    1
    12    11    13   ar
    13    13    14    1
    14    14    15    1
    15    15    16    1
    16    16    17    1
    17    17    18    1
    18    18    19    1
    19    17    20    1
    20    20    21    1
    21    13    22   ar
    22    22    23    1
    23    22    24   ar
    24     6    25   ar
    25    25    26   ar
    26    26    27   ar
    27    26    28   ar
    28    28    29   ar
    29    29    30   ar
    30    30    31   ar
    31    27     5   ar
    32    24     9   ar
    33    31    25   ar
    34     1    32    1
    35     1    33    1
    36     1    34    1
    37     2    35    1
    38     2    36    1
    39     3    37    1
    40     3    38    1
    41     4    39    1
    42     4    40    1
    43    10    41    1
    44    15    42    1
    45    15    43    1
    46    16    44    1
    47    16    45    1
    48    18    46    1
    49    18    47    1
    50    19    48    1
    51    19    49    1
    52    19    50    1
    53    20    51    1
    54    20    52    1
    55    21    53    1
    56    21    54    1
    57    21    55    1
    58    24    56    1
    59    28    57    1
    60    29    58    1
    61    30    59    1
    62    31    60    1
