@<TRIPOS>MOLECULE
*****
 64 67 0 0 0
SMALL
GASTEIGER

@<TRIPOS>ATOM
      1 C           5.0760    3.3972   -2.6330 C.3     1  UNL1        0.0820
      2 O           5.7003    2.1857   -2.3336 O.3     1  UNL1       -0.4644
      3 C           5.4017    1.4118   -1.2317 C.2     1  UNL1        0.3407
      4 O           4.5029    1.8477   -0.4591 O.2     1  UNL1       -0.2449
      5 C           6.0837    0.1527   -0.9641 C.ar    1  UNL1        0.0801
      6 C           7.0588   -0.2566   -1.8625 C.ar    1  UNL1       -0.0460
      7 C           7.7318   -1.4429   -1.6526 C.ar    1  UNL1       -0.0609
      8 C           7.4127   -2.1932   -0.5466 C.ar    1  UNL1       -0.0600
      9 C           6.4382   -1.7728    0.3407 C.ar    1  UNL1       -0.0397
     10 C           5.7592   -0.5947    0.1464 C.ar    1  UNL1        0.0475
     11 N           4.7508   -0.1018    1.0108 N.am    1  UNL1       -0.2835
     12 C           3.3676   -0.3911    0.8645 C.2     1  UNL1        0.2346
     13 O           3.0347   -1.1311   -0.0970 O.2     1  UNL1       -0.2737
     14 C           2.3969    0.1795    1.8309 C.3     1  UNL1        0.0910
     15 N           1.0343   -0.2227    1.5206 N.am    1  UNL1       -0.2944
     16 C           0.2636    0.6187    0.6330 C.3     1  UNL1        0.0037
     17 C           0.4470   -1.3955    2.0473 C.2     1  UNL1        0.2347
     18 O           1.2320   -2.0749    2.8144 O.2     1  UNL1       -0.2738
     19 C          -0.9249   -1.8798    1.8004 C.3     1  UNL1        0.1090
     20 C          -0.7563   -3.1902    1.0206 C.3     1  UNL1       -0.0143
     21 C          -2.0534   -3.2829    0.2727 C.3     1  UNL1        0.0186
     22 S          -3.2916   -4.0149    1.3437 S.3     1  UNL1       -0.1735
     23 C          -2.3197   -1.8220   -0.0534 C.3     1  UNL1        0.0330
     24 N          -1.7615   -1.0425    1.0266 N.3     1  UNL1       -0.1637
     25 S          -3.1069   -0.4178    1.9438 S.O2    1  UNL1        0.0616
     26 O          -3.9106   -1.5230    2.5522 O.2     1  UNL1       -0.1528
     27 O          -2.6186    0.4345    3.0821 O.2     1  UNL1       -0.1528
     28 C          -4.0889    0.6165    0.9335 C.ar    1  UNL1        0.1061
     29 C          -3.7232    1.9640    0.8158 C.ar    1  UNL1       -0.0348
     30 C          -4.4542    2.8417    0.0425 C.ar    1  UNL1       -0.0522
     31 C          -5.5739    2.4080   -0.6398 C.ar    1  UNL1       -0.0178
     32 C          -6.3345    3.2456   -1.4233 C.ar    1  UNL1       -0.0540
     33 C          -7.4474    2.8072   -2.0996 C.ar    1  UNL1       -0.0612
     34 C          -7.8026    1.4839   -1.9811 C.ar    1  UNL1       -0.0612
     35 C          -7.0449    0.6390   -1.1977 C.ar    1  UNL1       -0.0540
     36 C          -5.9211    1.0763   -0.5132 C.ar    1  UNL1       -0.0160
     37 C          -5.1958    0.2031    0.2549 C.ar    1  UNL1       -0.0276
     38 H           5.0670    4.0542   -1.7479 H       1  UNL1        0.0661
     39 H           5.6559    3.8864   -3.4476 H       1  UNL1        0.0661
     40 H           4.0135    3.2501   -2.9650 H       1  UNL1        0.0661
     41 H           7.3151    0.3221   -2.7283 H       1  UNL1        0.0626
     42 H           8.4973   -1.7534   -2.3686 H       1  UNL1        0.0618
     43 H           7.9375   -3.1313   -0.3708 H       1  UNL1        0.0618
     44 H           6.1724   -2.3540    1.2225 H       1  UNL1        0.0636
     45 H           5.0141    0.5252    1.8278 H       1  UNL1        0.1549
     46 H           2.4513    1.2700    1.7978 H       1  UNL1        0.0560
     47 H           2.7056   -0.1391    2.8434 H       1  UNL1        0.0560
     48 H          -0.1460    0.0843   -0.2473 H       1  UNL1        0.0429
     49 H          -0.5995    1.0070    1.2096 H       1  UNL1        0.0429
     50 H           0.8520    1.5123    0.3060 H       1  UNL1        0.0429
     51 H          -1.4479   -2.1572    2.7498 H       1  UNL1        0.0576
     52 H          -0.5578   -4.0361    1.6916 H       1  UNL1        0.0296
     53 H           0.0525   -3.0152    0.2776 H       1  UNL1        0.0296
     54 H          -1.9513   -3.8535   -0.6809 H       1  UNL1        0.0423
     55 H          -2.7242   -4.8356    2.3375 H       1  UNL1        0.1020
     56 H          -3.3648   -1.6240   -0.2773 H       1  UNL1        0.0455
     57 H          -1.6711   -1.6200   -0.9574 H       1  UNL1        0.0455
     58 H          -2.8442    2.3434    1.3404 H       1  UNL1        0.0637
     59 H          -4.1807    3.8958   -0.0586 H       1  UNL1        0.0624
     60 H          -6.0542    4.2831   -1.5145 H       1  UNL1        0.0624
     61 H          -8.0542    3.4777   -2.7255 H       1  UNL1        0.0618
     62 H          -8.6835    1.0844   -2.5017 H       1  UNL1        0.0618
     63 H          -7.3061   -0.4219   -1.0860 H       1  UNL1        0.0624
     64 H          -5.5108   -0.8174    0.3228 H       1  UNL1        0.0643
@<TRIPOS>BOND
     1     1     2    1
     2     2     3    1
     3     3     4    2
     4     3     5    1
     5     5     6   ar
     6     6     7   ar
     7     7     8   ar
     8     8     9   ar
     9     9    10   ar
    10    10    11    1
    11    11    12   am
    12    12    13    2
    13    12    14    1
    14    14    15    1
    15    15    16    1
    16    15    17   am
    17    17    18    2
    18    17    19    1
    19    19    20    1
    20    20    21    1
    21    21    22    1
    22    21    23    1
    23    23    24    1
    24    24    25    1
    25    25    26    2
    26    25    27    2
    27    25    28    1
    28    28    29   ar
    29    29    30   ar
    30    30    31   ar
    31    31    32   ar
    32    32    33   ar
    33    33    34   ar
    34    34    35   ar
    35    35    36   ar
    36    36    37   ar
    37    10     5   ar
    38    24    19    1
    39    37    28   ar
    40    36    31   ar
    41     1    38    1
    42     1    39    1
    43     1    40    1
    44     6    41    1
    45     7    42    1
    46     8    43    1
    47     9    44    1
    48    11    45    1
    49    14    46    1
    50    14    47    1
    51    16    48    1
    52    16    49    1
    53    16    50    1
    54    19    51    1
    55    20    52    1
    56    20    53    1
    57    21    54    1
    58    22    55    1
    59    23    56    1
    60    23    57    1
    61    29    58    1
    62    30    59    1
    63    32    60    1
    64    33    61    1
    65    34    62    1
    66    35    63    1
    67    37    64    1
