
     RDKit          3D

 64 67  0  0  0  0  0  0  0  0999 V2000
    5.0760    3.3972   -2.6330 C   0  0  0  0  0  0  0  0  0  0  0  0
    5.7003    2.1857   -2.3336 O   0  0  0  0  0  0  0  0  0  0  0  0
    5.4017    1.4118   -1.2317 C   0  0  0  0  0  0  0  0  0  0  0  0
    4.5029    1.8477   -0.4591 O   0  0  0  0  0  0  0  0  0  0  0  0
    6.0837    0.1527   -0.9641 C   0  0  0  0  0  0  0  0  0  0  0  0
    7.0588   -0.2566   -1.8625 C   0  0  0  0  0  0  0  0  0  0  0  0
    7.7318   -1.4429   -1.6526 C   0  0  0  0  0  0  0  0  0  0  0  0
    7.4127   -2.1932   -0.5466 C   0  0  0  0  0  0  0  0  0  0  0  0
    6.4382   -1.7728    0.3407 C   0  0  0  0  0  0  0  0  0  0  0  0
    5.7592   -0.5947    0.1464 C   0  0  0  0  0  0  0  0  0  0  0  0
    4.7508   -0.1018    1.0108 N   0  0  0  0  0  0  0  0  0  0  0  0
    3.3676   -0.3911    0.8645 C   0  0  0  0  0  0  0  0  0  0  0  0
    3.0347   -1.1311   -0.0970 O   0  0  0  0  0  0  0  0  0  0  0  0
    2.3969    0.1795    1.8309 C   0  0  0  0  0  0  0  0  0  0  0  0
    1.0343   -0.2227    1.5206 N   0  0  0  0  0  0  0  0  0  0  0  0
    0.2636    0.6187    0.6330 C   0  0  0  0  0  0  0  0  0  0  0  0
    0.4470   -1.3955    2.0473 C   0  0  0  0  0  0  0  0  0  0  0  0
    1.2320   -2.0749    2.8144 O   0  0  0  0  0  0  0  0  0  0  0  0
   -0.9249   -1.8798    1.8004 C   0  0  0  0  0  0  0  0  0  0  0  0
   -0.7563   -3.1902    1.0206 C   0  0  0  0  0  0  0  0  0  0  0  0
   -2.0534   -3.2829    0.2727 C   0  0  1  0  0  0  0  0  0  0  0  0
   -3.2916   -4.0149    1.3437 S   0  0  0  0  0  0  0  0  0  0  0  0
   -2.3197   -1.8220   -0.0534 C   0  0  0  0  0  0  0  0  0  0  0  0
   -1.7615   -1.0425    1.0266 N   0  0  0  0  0  0  0  0  0  0  0  0
   -3.1069   -0.4178    1.9438 S   0  0  0  0  0  6  0  0  0  0  0  0
   -3.9106   -1.5230    2.5522 O   0  0  0  0  0  0  0  0  0  0  0  0
   -2.6186    0.4345    3.0821 O   0  0  0  0  0  0  0  0  0  0  0  0
   -4.0889    0.6165    0.9335 C   0  0  0  0  0  0  0  0  0  0  0  0
   -3.7232    1.9640    0.8158 C   0  0  0  0  0  0  0  0  0  0  0  0
   -4.4542    2.8417    0.0425 C   0  0  0  0  0  0  0  0  0  0  0  0
   -5.5739    2.4080   -0.6398 C   0  0  0  0  0  0  0  0  0  0  0  0
   -6.3345    3.2456   -1.4233 C   0  0  0  0  0  0  0  0  0  0  0  0
   -7.4474    2.8072   -2.0996 C   0  0  0  0  0  0  0  0  0  0  0  0
   -7.8026    1.4839   -1.9811 C   0  0  0  0  0  0  0  0  0  0  0  0
   -7.0449    0.6390   -1.1977 C   0  0  0  0  0  0  0  0  0  0  0  0
   -5.9211    1.0763   -0.5132 C   0  0  0  0  0  0  0  0  0  0  0  0
   -5.1958    0.2031    0.2549 C   0  0  0  0  0  0  0  0  0  0  0  0
    5.0670    4.0542   -1.7479 H   0  0  0  0  0  0  0  0  0  0  0  0
    5.6559    3.8864   -3.4476 H   0  0  0  0  0  0  0  0  0  0  0  0
    4.0135    3.2501   -2.9650 H   0  0  0  0  0  0  0  0  0  0  0  0
    7.3151    0.3221   -2.7283 H   0  0  0  0  0  0  0  0  0  0  0  0
    8.4973   -1.7534   -2.3686 H   0  0  0  0  0  0  0  0  0  0  0  0
    7.9375   -3.1313   -0.3708 H   0  0  0  0  0  0  0  0  0  0  0  0
    6.1724   -2.3540    1.2225 H   0  0  0  0  0  0  0  0  0  0  0  0
    5.0141    0.5252    1.8278 H   0  0  0  0  0  0  0  0  0  0  0  0
    2.4513    1.2700    1.7978 H   0  0  0  0  0  0  0  0  0  0  0  0
    2.7056   -0.1391    2.8434 H   0  0  0  0  0  0  0  0  0  0  0  0
   -0.1460    0.0843   -0.2473 H   0  0  0  0  0  0  0  0  0  0  0  0
   -0.5995    1.0070    1.2096 H   0  0  0  0  0  0  0  0  0  0  0  0
    0.8520    1.5123    0.3060 H   0  0  0  0  0  0  0  0  0  0  0  0
   -1.4479   -2.1572    2.7498 H   0  0  0  0  0  0  0  0  0  0  0  0
   -0.5578   -4.0361    1.6916 H   0  0  0  0  0  0  0  0  0  0  0  0
    0.0525   -3.0152    0.2776 H   0  0  0  0  0  0  0  0  0  0  0  0
   -1.9513   -3.8535   -0.6809 H   0  0  0  0  0  0  0  0  0  0  0  0
   -2.7242   -4.8356    2.3375 H   0  0  0  0  0  0  0  0  0  0  0  0
   -3.3648   -1.6240   -0.2773 H   0  0  0  0  0  0  0  0  0  0  0  0
   -1.6711   -1.6200   -0.9574 H   0  0  0  0  0  0  0  0  0  0  0  0
   -2.8442    2.3434    1.3404 H   0  0  0  0  0  0  0  0  0  0  0  0
   -4.1807    3.8958   -0.0586 H   0  0  0  0  0  0  0  0  0  0  0  0
   -6.0542    4.2831   -1.5145 H   0  0  0  0  0  0  0  0  0  0  0  0
   -8.0542    3.4777   -2.7255 H   0  0  0  0  0  0  0  0  0  0  0  0
   -8.6835    1.0844   -2.5017 H   0  0  0  0  0  0  0  0  0  0  0  0
   -7.3061   -0.4219   -1.0860 H   0  0  0  0  0  0  0  0  0  0  0  0
   -5.5108   -0.8174    0.3228 H   0  0  0  0  0  0  0  0  0  0  0  0
  1  2  1  0
  2  3  1  0
  3  4  2  0
  3  5  1  0
  5  6  2  0
  6  7  1  0
  7  8  2  0
  8  9  1  0
  9 10  2  0
 10 11  1  0
 11 12  1  0
 12 13  2  0
 12 14  1  0
 14 15  1  0
 15 16  1  0
 15 17  1  0
 17 18  2  0
 17 19  1  0
 19 20  1  0
 20 21  1  0
 21 22  1  0
 21 23  1  0
 23 24  1  0
 24 25  1  0
 25 26  2  0
 25 27  2  0
 25 28  1  0
 28 29  2  0
 29 30  1  0
 30 31  2  0
 31 32  1  0
 32 33  2  0
 33 34  1  0
 34 35  2  0
 35 36  1  0
 36 37  2  0
 10  5  1  0
 24 19  1  0
 37 28  1  0
 36 31  1  0
  1 38  1  0
  1 39  1  0
  1 40  1  0
  6 41  1  0
  7 42  1  0
  8 43  1  0
  9 44  1  0
 11 45  1  0
 14 46  1  0
 14 47  1  0
 16 48  1  0
 16 49  1  0
 16 50  1  0
 19 51  1  0
 20 52  1  0
 20 53  1  0
 21 54  1  6
 22 55  1  0
 23 56  1  0
 23 57  1  0
 29 58  1  0
 30 59  1  0
 32 60  1  0
 33 61  1  0
 34 62  1  0
 35 63  1  0
 37 64  1  0
M  END
$$$$
