
     RDKit          3D

 41 44  0  0  0  0  0  0  0  0999 V2000
    2.7135    2.2207    0.0804 N   0  0  0  0  0  0  0  0  0  0  0  0
    1.4542    1.5470   -0.1298 C   0  0  0  0  0  0  0  0  0  0  0  0
    0.3934    2.3350   -0.3149 N   0  0  0  0  0  0  0  0  0  0  0  0
   -0.8397    1.9200   -0.5466 C   0  0  0  0  0  0  0  0  0  0  0  0
   -1.0131    0.5312   -0.5960 C   0  0  0  0  0  0  0  0  0  0  0  0
   -2.3122   -0.0518   -0.8424 C   0  0  0  0  0  0  0  0  0  0  0  0
   -2.4882   -1.0932   -1.7296 C   0  0  0  0  0  0  0  0  0  0  0  0
   -3.7454   -1.6316   -1.9453 C   0  0  0  0  0  0  0  0  0  0  0  0
   -4.8405   -1.1343   -1.2759 C   0  0  0  0  0  0  0  0  0  0  0  0
   -4.6853   -0.1026   -0.3930 C   0  0  0  0  0  0  0  0  0  0  0  0
   -6.0696    0.5533    0.4772 S   0  0  0  0  0  6  0  0  0  0  0  0
   -6.2928   -0.2765    1.9595 N   0  0  0  0  0  0  0  0  0  0  0  0
   -5.8129    2.0068    0.7603 O   0  0  0  0  0  0  0  0  0  0  0  0
   -7.2623    0.4688   -0.4108 O   0  0  0  0  0  0  0  0  0  0  0  0
   -3.4342    0.4187   -0.1912 C   0  0  0  0  0  0  0  0  0  0  0  0
    0.0676   -0.3004   -0.4075 C   0  0  0  0  0  0  0  0  0  0  0  0
    0.2315   -2.0355   -0.4170 S   0  0  0  0  0  0  0  0  0  0  0  0
    2.0061   -2.1056   -0.0961 C   0  0  0  0  0  0  0  0  0  0  0  0
    2.3303   -0.7520   -0.0059 C   0  0  0  0  0  0  0  0  0  0  0  0
    3.7594   -0.4506    0.3162 C   0  0  0  0  0  0  0  0  0  0  0  0
    4.1163    0.2428    1.4471 C   0  0  0  0  0  0  0  0  0  0  0  0
    5.4302    0.5326    1.7342 C   0  0  0  0  0  0  0  0  0  0  0  0
    6.4244    0.1220    0.8738 C   0  0  0  0  0  0  0  0  0  0  0  0
    7.7414    0.3656    1.0814 F   0  0  0  0  0  0  0  0  0  0  0  0
    6.0544   -0.5743   -0.2590 C   0  0  0  0  0  0  0  0  0  0  0  0
    7.2678   -1.1276   -1.3978 Cl  0  0  0  0  0  0  0  0  0  0  0  0
    4.7419   -0.8621   -0.5435 C   0  0  0  0  0  0  0  0  0  0  0  0
    1.3694    0.1406   -0.1617 C   0  0  0  0  0  0  0  0  0  0  0  0
    3.4976    2.1731   -0.5988 H   0  0  0  0  0  0  0  0  0  0  0  0
    2.8597    2.7848    0.9398 H   0  0  0  0  0  0  0  0  0  0  0  0
   -1.6540    2.5883   -0.6877 H   0  0  0  0  0  0  0  0  0  0  0  0
   -1.6382   -1.5208   -2.2860 H   0  0  0  0  0  0  0  0  0  0  0  0
   -3.8977   -2.4614   -2.6497 H   0  0  0  0  0  0  0  0  0  0  0  0
   -5.8372   -1.5670   -1.4521 H   0  0  0  0  0  0  0  0  0  0  0  0
   -6.1917   -1.3042    1.8241 H   0  0  0  0  0  0  0  0  0  0  0  0
   -7.2346   -0.0335    2.3383 H   0  0  0  0  0  0  0  0  0  0  0  0
   -3.3644    1.2485    0.5303 H   0  0  0  0  0  0  0  0  0  0  0  0
    2.6052   -3.0555   -0.0094 H   0  0  0  0  0  0  0  0  0  0  0  0
    3.3633    0.5816    2.1717 H   0  0  0  0  0  0  0  0  0  0  0  0
    5.7263    1.0772    2.6192 H   0  0  0  0  0  0  0  0  0  0  0  0
    4.4604   -1.4183   -1.4506 H   0  0  0  0  0  0  0  0  0  0  0  0
  1  2  1  0
  2  3  2  0
  3  4  1  0
  4  5  2  0
  5  6  1  0
  6  7  2  0
  7  8  1  0
  8  9  2  0
  9 10  1  0
 10 11  1  0
 11 12  1  0
 11 13  2  0
 11 14  2  0
 10 15  2  0
  5 16  1  0
 16 17  1  0
 17 18  1  0
 18 19  2  0
 19 20  1  0
 20 21  2  0
 21 22  1  0
 22 23  2  0
 23 24  1  0
 23 25  1  0
 25 26  1  0
 25 27  2  0
 19 28  1  0
 28  2  1  0
 15  6  1  0
 28 16  2  0
 27 20  1  0
  1 29  1  0
  1 30  1  0
  4 31  1  0
  7 32  1  0
  8 33  1  0
  9 34  1  0
 12 35  1  0
 12 36  1  0
 15 37  1  0
 18 38  1  0
 21 39  1  0
 22 40  1  0
 27 41  1  0
M  END
$$$$
