@<TRIPOS>MOLECULE
*****
 41 44 0 0 0
SMALL
GASTEIGER

@<TRIPOS>ATOM
      1 N           2.7135    2.2207    0.0804 N.pl3   1  UNL1       -0.3426
      2 C           1.4542    1.5470   -0.1298 C.ar    1  UNL1        0.1250
      3 N           0.3934    2.3350   -0.3149 N.ar    1  UNL1       -0.2394
      4 C          -0.8397    1.9200   -0.5466 C.ar    1  UNL1        0.0385
      5 C          -1.0131    0.5312   -0.5960 C.ar    1  UNL1        0.0147
      6 C          -2.3122   -0.0518   -0.8424 C.ar    1  UNL1       -0.0135
      7 C          -2.4882   -1.0932   -1.7296 C.ar    1  UNL1       -0.0538
      8 C          -3.7454   -1.6316   -1.9453 C.ar    1  UNL1       -0.0593
      9 C          -4.8405   -1.1343   -1.2759 C.ar    1  UNL1       -0.0353
     10 C          -4.6853   -0.1026   -0.3930 C.ar    1  UNL1        0.1056
     11 S          -6.0696    0.5533    0.4772 S.O2    1  UNL1        0.0560
     12 N          -6.2928   -0.2765    1.9595 N.3     1  UNL1       -0.2035
     13 O          -5.8129    2.0068    0.7603 O.2     1  UNL1       -0.1533
     14 O          -7.2623    0.4688   -0.4108 O.2     1  UNL1       -0.1533
     15 C          -3.4342    0.4187   -0.1912 C.ar    1  UNL1       -0.0276
     16 C           0.0676   -0.3004   -0.4075 C.ar    1  UNL1        0.0323
     17 S           0.2315   -2.0355   -0.4170 S.2     1  UNL1       -0.0953
     18 C           2.0061   -2.1056   -0.0961 C.ar    1  UNL1       -0.0153
     19 C           2.3303   -0.7520   -0.0059 C.ar    1  UNL1        0.0002
     20 C           3.7594   -0.4506    0.3162 C.ar    1  UNL1       -0.0151
     21 C           4.1163    0.2428    1.4471 C.ar    1  UNL1       -0.0512
     22 C           5.4302    0.5326    1.7342 C.ar    1  UNL1       -0.0244
     23 C           6.4244    0.1220    0.8738 C.ar    1  UNL1        0.1417
     24 F           7.7414    0.3656    1.0814 F       1  UNL1       -0.2040
     25 C           6.0544   -0.5743   -0.2590 C.ar    1  UNL1        0.0767
     26 CL          7.2678   -1.1276   -1.3978 Cl      1  UNL1       -0.0806
     27 C           4.7419   -0.8621   -0.5435 C.ar    1  UNL1       -0.0328
     28 C           1.3694    0.1406   -0.1617 C.ar    1  UNL1        0.0370
     29 H           3.4976    2.1731   -0.5988 H       1  UNL1        0.1437
     30 H           2.8597    2.7848    0.9398 H       1  UNL1        0.1437
     31 H          -1.6540    2.5883   -0.6877 H       1  UNL1        0.0837
     32 H          -1.6382   -1.5208   -2.2860 H       1  UNL1        0.0624
     33 H          -3.8977   -2.4614   -2.6497 H       1  UNL1        0.0618
     34 H          -5.8372   -1.5670   -1.4521 H       1  UNL1        0.0637
     35 H          -6.1917   -1.3042    1.8241 H       1  UNL1        0.1442
     36 H          -7.2346   -0.0335    2.3383 H       1  UNL1        0.1442
     37 H          -3.3644    1.2485    0.5303 H       1  UNL1        0.0643
     38 H           2.6052   -3.0555   -0.0094 H       1  UNL1        0.0700
     39 H           3.3633    0.5816    2.1717 H       1  UNL1        0.0624
     40 H           5.7263    1.0772    2.6192 H       1  UNL1        0.0647
     41 H           4.4604   -1.4183   -1.4506 H       1  UNL1        0.0639
@<TRIPOS>BOND
     1     1     2    1
     2     2     3   ar
     3     3     4   ar
     4     4     5   ar
     5     5     6    1
     6     6     7   ar
     7     7     8   ar
     8     8     9   ar
     9     9    10   ar
    10    10    11    1
    11    11    12    1
    12    11    13    2
    13    11    14    2
    14    10    15   ar
    15     5    16   ar
    16    16    17   ar
    17    17    18   ar
    18    18    19   ar
    19    19    20    1
    20    20    21   ar
    21    21    22   ar
    22    22    23   ar
    23    23    24    1
    24    23    25   ar
    25    25    26    1
    26    25    27   ar
    27    19    28   ar
    28    28     2   ar
    29    15     6   ar
    30    28    16   ar
    31    27    20   ar
    32     1    29    1
    33     1    30    1
    34     4    31    1
    35     7    32    1
    36     8    33    1
    37     9    34    1
    38    12    35    1
    39    12    36    1
    40    15    37    1
    41    18    38    1
    42    21    39    1
    43    22    40    1
    44    27    41    1
