@<TRIPOS>MOLECULE
*****
 21 22 0 0 0
SMALL
GASTEIGER

@<TRIPOS>ATOM
      1 N          -2.2902    1.0028    0.9936 N.3     1  UNL1       -0.3267
      2 C          -2.2335   -0.2383    0.2836 C.3     1  UNL1        0.0123
      3 C          -1.8692   -0.2130   -1.1570 C.3     1  UNL1       -0.0289
      4 C          -1.0306   -0.9502   -0.0834 C.3     1  UNL1        0.0008
      5 C           0.3354   -0.4514   -0.0115 C.ar    1  UNL1       -0.0428
      6 C           1.4039   -1.3571   -0.0082 C.ar    1  UNL1       -0.0583
      7 C           2.7258   -0.9079    0.0601 C.ar    1  UNL1       -0.0615
      8 C           2.9604    0.4313    0.1237 C.ar    1  UNL1       -0.0617
      9 C           1.9133    1.3495    0.1217 C.ar    1  UNL1       -0.0615
     10 C           0.6379    0.8866    0.0547 C.ar    1  UNL1       -0.0583
     11 H          -2.4914    1.8400    0.4072 H       1  UNL1        0.1185
     12 H          -2.8727    0.9671    1.8595 H       1  UNL1        0.1185
     13 H          -3.1349   -0.8592    0.5027 H       1  UNL1        0.0464
     14 H          -2.3381   -0.8752   -1.8949 H       1  UNL1        0.0287
     15 H          -1.5070    0.7529   -1.5306 H       1  UNL1        0.0287
     16 H          -1.0599   -2.0744   -0.1307 H       1  UNL1        0.0364
     17 H           1.2602   -2.4351   -0.0577 H       1  UNL1        0.0620
     18 H           3.5320   -1.6264    0.0611 H       1  UNL1        0.0618
     19 H           3.9930    0.7330    0.1750 H       1  UNL1        0.0618
     20 H           2.1915    2.3865    0.1746 H       1  UNL1        0.0618
     21 H          -0.1257    1.6384    0.0566 H       1  UNL1        0.0620
@<TRIPOS>BOND
     1     1     2    1
     2     2     3    1
     3     3     4    1
     4     4     5    1
     5     5     6   ar
     6     6     7   ar
     7     7     8   ar
     8     8     9   ar
     9     9    10   ar
    10     4     2    1
    11    10     5   ar
    12     1    11    1
    13     1    12    1
    14     2    13    1
    15     3    14    1
    16     3    15    1
    17     4    16    1
    18     6    17    1
    19     7    18    1
    20     8    19    1
    21     9    20    1
    22    10    21    1
