@<TRIPOS>MOLECULE
*****
 44 47 0 0 0
SMALL
GASTEIGER

@<TRIPOS>ATOM
      1 C          -2.0849   -0.7751   -0.9334 C.3     1  UNL1        0.1329
      2 C          -2.9694   -1.9039   -0.5393 C.2     1  UNL1       -0.0505
      3 C          -2.2592   -2.8705    0.0361 C.2     1  UNL1       -0.0366
      4 C          -0.8505   -2.4818    0.0793 C.ar    1  UNL1        0.0829
      5 C           0.3052   -3.0748    0.5490 C.ar    1  UNL1        0.1566
      6 CL          0.1930   -4.6570    1.2842 Cl      1  UNL1       -0.0597
      7 N           1.4824   -2.4347    0.4351 N.ar    1  UNL1       -0.1945
      8 C           1.5561   -1.2095   -0.1364 C.ar    1  UNL1        0.2834
      9 O           2.7946   -0.5503   -0.2496 O.3     1  UNL1       -0.4679
     10 C           3.9914   -1.1539    0.2319 C.3     1  UNL1        0.1164
     11 C           5.1041   -0.2068   -0.0388 C.ar    1  UNL1       -0.0102
     12 C           5.8526   -0.2021   -1.2095 C.ar    1  UNL1       -0.0526
     13 C           6.8786    0.7282   -1.3699 C.ar    1  UNL1       -0.0261
     14 C           7.1824    1.6485   -0.4093 C.ar    1  UNL1        0.1234
     15 F           8.1855    2.5723   -0.5438 F       1  UNL1       -0.2055
     16 C           6.4337    1.6352    0.7482 C.ar    1  UNL1       -0.0261
     17 C           5.4115    0.7328    0.9464 C.ar    1  UNL1       -0.0526
     18 C           0.3801   -0.6519   -0.5926 C.ar    1  UNL1        0.3146
     19 O           0.5112    0.4843   -1.1124 O.2     1  UNL1       -0.2618
     20 N          -0.8053   -1.2637   -0.4934 N.ar    1  UNL1       -0.2861
     21 C          -2.4970    0.4564   -0.1881 C.2     1  UNL1        0.2425
     22 O          -1.8609    1.2021    0.6266 O.2     1  UNL1       -0.2730
     23 N          -3.8263    0.9279   -0.3835 N.am    1  UNL1       -0.2995
     24 C          -4.1640    2.1248    0.3667 C.3     1  UNL1        0.0148
     25 C          -5.6962    2.1531    0.2776 C.3     1  UNL1       -0.0357
     26 C          -5.8329    1.7700   -1.2030 C.3     1  UNL1       -0.0357
     27 C          -4.9838    0.4950   -1.1798 C.3     1  UNL1        0.0148
     28 H          -2.1520   -0.6223   -2.0237 H       1  UNL1        0.0670
     29 H          -4.0447   -2.0857   -0.6270 H       1  UNL1        0.0598
     30 H          -2.5570   -3.8344    0.4468 H       1  UNL1        0.0637
     31 H           3.9111   -1.4324    1.2840 H       1  UNL1        0.0748
     32 H           4.1549   -2.0867   -0.3754 H       1  UNL1        0.0748
     33 H           5.5887   -0.9334   -1.9373 H       1  UNL1        0.0622
     34 H           7.4593    0.7161   -2.3027 H       1  UNL1        0.0646
     35 H           6.6881    2.3787    1.5103 H       1  UNL1        0.0646
     36 H           4.8636    0.7809    1.8840 H       1  UNL1        0.0622
     37 H          -3.8276    3.0216   -0.2229 H       1  UNL1        0.0464
     38 H          -3.8202    2.1286    1.3993 H       1  UNL1        0.0464
     39 H          -6.1070    3.1464    0.4897 H       1  UNL1        0.0281
     40 H          -6.1103    1.3375    0.9202 H       1  UNL1        0.0281
     41 H          -5.3015    2.5141   -1.8024 H       1  UNL1        0.0281
     42 H          -6.8784    1.5864   -1.4742 H       1  UNL1        0.0281
     43 H          -4.7181    0.1328   -2.1711 H       1  UNL1        0.0464
     44 H          -5.5807   -0.2426   -0.5679 H       1  UNL1        0.0464
@<TRIPOS>BOND
     1     1     2    1
     2     2     3    2
     3     3     4    1
     4     4     5   ar
     5     5     6    1
     6     5     7   ar
     7     7     8   ar
     8     8     9    1
     9     9    10    1
    10    10    11    1
    11    11    12   ar
    12    12    13   ar
    13    13    14   ar
    14    14    15    1
    15    14    16   ar
    16    16    17   ar
    17     8    18   ar
    18    18    19    2
    19    18    20   ar
    20     1    21    1
    21    21    22    2
    22    21    23   am
    23    23    24    1
    24    24    25    1
    25    25    26    1
    26    26    27    1
    27    20     1    1
    28    27    23    1
    29    20     4   ar
    30    17    11   ar
    31     1    28    1
    32     2    29    1
    33     3    30    1
    34    10    31    1
    35    10    32    1
    36    12    33    1
    37    13    34    1
    38    16    35    1
    39    17    36    1
    40    24    37    1
    41    24    38    1
    42    25    39    1
    43    25    40    1
    44    26    41    1
    45    26    42    1
    46    27    43    1
    47    27    44    1
