@<TRIPOS>MOLECULE
*****
 67 72 0 0 0
SMALL
GASTEIGER

@<TRIPOS>ATOM
      1 C           6.8756   -1.2060    2.1053 C.3     1  UNL1        0.0032
      2 N           7.2657   -1.8501    0.8586 N.am    1  UNL1       -0.3024
      3 C           8.6281   -2.3072    0.6868 C.3     1  UNL1        0.0032
      4 C           6.3531   -2.0547   -0.2047 C.2     1  UNL1        0.2627
      5 O           6.7627   -2.6245   -1.2442 O.2     1  UNL1       -0.2684
      6 C           4.9564   -1.6272   -0.1253 C.ar    1  UNL1        0.1070
      7 C           4.0031   -2.1359    0.7271 C.ar    1  UNL1       -0.0209
      8 C           2.8147   -1.4988    0.4850 C.ar    1  UNL1        0.0378
      9 C           1.5295   -1.5821    1.0042 C.ar    1  UNL1        0.0419
     10 N           0.5246   -0.8167    0.5531 N.ar    1  UNL1       -0.2219
     11 C           0.7535    0.0698   -0.4397 C.ar    1  UNL1        0.2225
     12 N          -0.2700    0.9221   -0.9542 N.pl3   1  UNL1       -0.2670
     13 C          -1.5481    0.9678   -0.3542 C.ar    1  UNL1        0.1476
     14 C          -2.5289    1.8191   -0.9023 C.ar    1  UNL1       -0.0175
     15 C          -3.7632    1.8926   -0.3049 C.ar    1  UNL1       -0.0261
     16 C          -4.0536    1.1580    0.8038 C.ar    1  UNL1        0.1479
     17 C          -5.3314    1.2585    1.4556 C.2     1  UNL1        0.2668
     18 O          -5.3798    1.9980    2.4991 O.2     1  UNL1       -0.2682
     19 N          -6.4713    0.5984    0.9925 N.am    1  UNL1       -0.2933
     20 C          -6.4315   -0.2339   -0.1752 C.3     1  UNL1        0.0305
     21 C          -7.6847   -0.0755   -1.0182 C.3     1  UNL1        0.0237
     22 C          -8.6201   -1.2328   -0.7503 C.3     1  UNL1       -0.0346
     23 C          -9.1583   -0.8947    0.6138 C.3     1  UNL1       -0.0346
     24 C          -8.8593    0.5756    0.7772 C.3     1  UNL1        0.0237
     25 C          -7.7132    0.7645    1.7118 C.3     1  UNL1        0.0305
     26 N          -8.4794    1.0559   -0.5381 N.3     1  UNL1       -0.3075
     27 N          -3.1084    0.3528    1.3090 N.ar    1  UNL1       -0.1428
     28 N          -1.9051    0.2784    0.7308 N.ar    1  UNL1       -0.1333
     29 N           1.9949    0.1260   -0.9150 N.ar    1  UNL1       -0.1962
     30 C           3.0589   -0.5826   -0.5404 C.ar    1  UNL1        0.1466
     31 N           4.3704   -0.6737   -0.8984 N.ar    1  UNL1       -0.3180
     32 C           4.9888    0.1172   -1.9157 C.3     1  UNL1        0.0366
     33 C           4.2470    1.4242   -2.0885 C.3     1  UNL1       -0.0320
     34 C           4.5887    2.1488   -0.8076 C.3     1  UNL1       -0.0511
     35 C           5.9435    1.5868   -0.3582 C.3     1  UNL1       -0.0511
     36 C           6.3411    0.7042   -1.5244 C.3     1  UNL1       -0.0320
     37 H           5.8164   -0.8803    2.0741 H       1  UNL1        0.0428
     38 H           7.4875   -0.2947    2.2784 H       1  UNL1        0.0428
     39 H           7.0712   -1.8800    2.9836 H       1  UNL1        0.0428
     40 H           9.3434   -1.8523    1.4102 H       1  UNL1        0.0428
     41 H           8.6380   -3.4289    0.7268 H       1  UNL1        0.0428
     42 H           9.0147   -2.0479   -0.3442 H       1  UNL1        0.0428
     43 H           4.1326   -2.9030    1.4738 H       1  UNL1        0.0647
     44 H           1.4053   -2.3234    1.8109 H       1  UNL1        0.0838
     45 H          -0.0581    1.5136   -1.7864 H       1  UNL1        0.1565
     46 H          -2.2385    2.3729   -1.7810 H       1  UNL1        0.0653
     47 H          -4.4970    2.5703   -0.7689 H       1  UNL1        0.0642
     48 H          -6.3707   -1.3075    0.1170 H       1  UNL1        0.0480
     49 H          -5.5332    0.0465   -0.7638 H       1  UNL1        0.0480
     50 H          -7.3898    0.0319   -2.0599 H       1  UNL1        0.0476
     51 H          -9.3898   -1.2349   -1.5454 H       1  UNL1        0.0281
     52 H          -7.9975   -2.1509   -0.7294 H       1  UNL1        0.0281
     53 H         -10.2594   -1.0577    0.7102 H       1  UNL1        0.0281
     54 H          -8.6157   -1.4521    1.3984 H       1  UNL1        0.0281
     55 H          -9.7282    1.1425    1.1759 H       1  UNL1        0.0476
     56 H          -7.7423    0.0847    2.5897 H       1  UNL1        0.0480
     57 H          -7.7407    1.8186    2.0813 H       1  UNL1        0.0480
     58 H          -7.8617    1.8914   -0.4762 H       1  UNL1        0.1226
     59 H           5.0720   -0.4292   -2.8893 H       1  UNL1        0.0528
     60 H           4.8027    2.0104   -2.9144 H       1  UNL1        0.0285
     61 H           3.1988    1.3557   -2.3356 H       1  UNL1        0.0285
     62 H           3.8417    1.9149   -0.0316 H       1  UNL1        0.0266
     63 H           4.6631    3.2468   -0.9784 H       1  UNL1        0.0266
     64 H           5.8506    0.9934    0.5706 H       1  UNL1        0.0266
     65 H           6.6837    2.4070   -0.1964 H       1  UNL1        0.0266
     66 H           7.1202    0.0033   -1.3160 H       1  UNL1        0.0285
     67 H           6.5868    1.4168   -2.3572 H       1  UNL1        0.0285
@<TRIPOS>BOND
     1     1     2    1
     2     2     3    1
     3     2     4   am
     4     4     5    2
     5     4     6    1
     6     6     7   ar
     7     7     8   ar
     8     8     9   ar
     9     9    10   ar
    10    10    11   ar
    11    11    12    1
    12    12    13    1
    13    13    14   ar
    14    14    15   ar
    15    15    16   ar
    16    16    17    1
    17    17    18    2
    18    17    19   am
    19    19    20    1
    20    20    21    1
    21    21    22    1
    22    22    23    1
    23    23    24    1
    24    24    25    1
    25    24    26    1
    26    16    27   ar
    27    27    28   ar
    28    11    29   ar
    29    29    30   ar
    30    30    31   ar
    31    31    32    1
    32    32    33    1
    33    33    34    1
    34    34    35    1
    35    35    36    1
    36    31     6   ar
    37    36    32    1
    38    30     8   ar
    39    28    13   ar
    40    25    19    1
    41    26    21    1
    42     1    37    1
    43     1    38    1
    44     1    39    1
    45     3    40    1
    46     3    41    1
    47     3    42    1
    48     7    43    1
    49     9    44    1
    50    12    45    1
    51    14    46    1
    52    15    47    1
    53    20    48    1
    54    20    49    1
    55    21    50    1
    56    22    51    1
    57    22    52    1
    58    23    53    1
    59    23    54    1
    60    24    55    1
    61    25    56    1
    62    25    57    1
    63    26    58    1
    64    32    59    1
    65    33    60    1
    66    33    61    1
    67    34    62    1
    68    34    63    1
    69    35    64    1
    70    35    65    1
    71    36    66    1
    72    36    67    1
