@<TRIPOS>MOLECULE
*****
 29 31 0 0 0
SMALL
GASTEIGER

@<TRIPOS>ATOM
      1 CL          0.2182    1.6587   -1.0539 Cl      1  UNL1       -0.0804
      2 C           0.0391    0.1647   -0.1741 C.ar    1  UNL1        0.0783
      3 C           1.1353   -0.4898    0.3195 C.ar    1  UNL1        0.0395
      4 S           0.4362   -2.0175    1.1715 S.2     1  UNL1       -0.0932
      5 C          -1.2652   -1.6458    0.7917 C.ar    1  UNL1        0.0004
      6 C          -1.2003   -0.3573    0.0248 C.ar    1  UNL1        0.0789
      7 N          -2.4488    0.1671   -0.4048 N.pl3   1  UNL1       -0.1799
      8 C          -3.2938    0.0408   -1.5803 C.3     1  UNL1        0.1139
      9 C          -4.6343   -0.3870   -1.0884 C.2     1  UNL1        0.2522
     10 O          -5.3895   -1.2850   -1.5948 O.2     1  UNL1       -0.2724
     11 N          -5.0016    0.3615    0.0784 N.am    1  UNL1       -0.1714
     12 S          -3.5391    1.2643    0.3956 S.O2    1  UNL1        0.1291
     13 O          -3.6592    2.5565   -0.3425 O.2     1  UNL1       -0.1346
     14 O          -3.2508    1.4002    1.8375 O.2     1  UNL1       -0.1346
     15 C           2.5756   -0.3235    0.3524 C.ar    1  UNL1       -0.0098
     16 C           3.3714   -1.2516    0.9824 C.ar    1  UNL1       -0.0535
     17 C           4.7451   -1.1052    1.0212 C.ar    1  UNL1       -0.0612
     18 C           5.3334   -0.0255    0.4278 C.ar    1  UNL1       -0.0617
     19 C           4.5964    0.9331   -0.2150 C.ar    1  UNL1       -0.0612
     20 C           3.2402    0.7284   -0.2172 C.ar    1  UNL1       -0.0535
     21 H          -2.1924   -2.1828    1.0285 H       1  UNL1        0.0713
     22 H          -2.9389   -0.7016   -2.2942 H       1  UNL1        0.0579
     23 H          -3.3791    1.0396   -2.0489 H       1  UNL1        0.0579
     24 H          -5.9506    0.3082    0.5533 H       1  UNL1        0.1779
     25 H           3.0154   -2.1308    1.4769 H       1  UNL1        0.0624
     26 H           5.3862   -1.8184    1.5081 H       1  UNL1        0.0618
     27 H           6.4058    0.0868    0.4593 H       1  UNL1        0.0618
     28 H           5.0089    1.8057   -0.7004 H       1  UNL1        0.0618
     29 H           2.6362    1.4644   -0.7144 H       1  UNL1        0.0624
@<TRIPOS>BOND
     1     1     2    1
     2     2     3   ar
     3     3     4   ar
     4     4     5   ar
     5     5     6   ar
     6     6     7    1
     7     7     8    1
     8     8     9    1
     9     9    10    2
    10     9    11   am
    11    11    12    1
    12    12    13    2
    13    12    14    2
    14     3    15    1
    15    15    16   ar
    16    16    17   ar
    17    17    18   ar
    18    18    19   ar
    19    19    20   ar
    20     6     2   ar
    21    12     7    1
    22    20    15   ar
    23     5    21    1
    24     8    22    1
    25     8    23    1
    26    11    24    1
    27    16    25    1
    28    17    26    1
    29    18    27    1
    30    19    28    1
    31    20    29    1
