@<TRIPOS>MOLECULE
*****
 50 52 0 0 0
SMALL
GASTEIGER

@<TRIPOS>ATOM
      1 O           0.1948    0.8994   -0.0358 O.2     1  UNL1       -0.2498
      2 C          -0.3279   -0.1389   -0.4692 C.2     1  UNL1        0.3177
      3 O           0.4573   -1.0685   -1.1169 O.3     1  UNL1       -0.4627
      4 C           1.8480   -0.9071   -1.3208 C.3     1  UNL1        0.1051
      5 C           2.6056   -0.7758   -0.0352 C.3     1  UNL1        0.0334
      6 N           4.0150   -0.6165   -0.3772 N.3     1  UNL1       -0.2948
      7 C           4.8085   -0.4829    0.8411 C.3     1  UNL1        0.0225
      8 C           4.7436    0.9397    1.2919 C.3     1  UNL1        0.0604
      9 O           5.4872    1.7364    0.4185 O.3     1  UNL1       -0.3772
     10 C           5.5080    1.2120   -0.8683 C.3     1  UNL1        0.0604
     11 C           4.1546    0.6158   -1.1621 C.3     1  UNL1        0.0225
     12 C          -1.7696   -0.4018   -0.3076 C.3     1  UNL1        0.0926
     13 C          -2.3882    0.7536    0.3526 C.ar    1  UNL1       -0.0306
     14 C          -3.2548    0.6828    1.4257 C.ar    1  UNL1       -0.0575
     15 C          -3.8203    1.8134    2.0058 C.ar    1  UNL1       -0.0615
     16 C          -3.5335    3.0669    1.5249 C.ar    1  UNL1       -0.0617
     17 C          -2.6752    3.1596    0.4592 C.ar    1  UNL1       -0.0615
     18 C          -2.1092    2.0192   -0.1207 C.ar    1  UNL1       -0.0575
     19 C          -2.3111   -0.6223   -1.7062 C.3     1  UNL1       -0.0332
     20 C          -3.7411   -1.0123   -1.7340 C.3     1  UNL1       -0.0517
     21 C          -4.1675   -1.9109   -0.6225 C.3     1  UNL1       -0.0530
     22 C          -3.0031   -2.5814    0.0156 C.3     1  UNL1       -0.0517
     23 C          -1.8938   -1.6996    0.4690 C.3     1  UNL1       -0.0332
     24 H           2.0746   -0.0680   -2.0056 H       1  UNL1        0.0710
     25 H           2.2106   -1.8259   -1.8290 H       1  UNL1        0.0710
     26 H           2.2476    0.0042    0.6358 H       1  UNL1        0.0460
     27 H           2.5344   -1.7681    0.4850 H       1  UNL1        0.0460
     28 H           4.3799   -1.1522    1.6246 H       1  UNL1        0.0449
     29 H           5.8533   -0.7746    0.5774 H       1  UNL1        0.0449
     30 H           3.7008    1.2643    1.3166 H       1  UNL1        0.0572
     31 H           5.1954    0.9775    2.3213 H       1  UNL1        0.0572
     32 H           5.6556    2.0392   -1.6031 H       1  UNL1        0.0572
     33 H           6.3169    0.4613   -0.9789 H       1  UNL1        0.0572
     34 H           3.3713    1.3359   -0.8520 H       1  UNL1        0.0449
     35 H           4.1040    0.3945   -2.2449 H       1  UNL1        0.0449
     36 H          -3.4910   -0.2878    1.8129 H       1  UNL1        0.0621
     37 H          -4.5071    1.7243    2.8598 H       1  UNL1        0.0618
     38 H          -3.9617    3.9668    1.9598 H       1  UNL1        0.0618
     39 H          -2.4359    4.1351    0.0651 H       1  UNL1        0.0618
     40 H          -1.4511    2.1898   -0.9609 H       1  UNL1        0.0621
     41 H          -1.6881   -1.4364   -2.1520 H       1  UNL1        0.0279
     42 H          -2.1484    0.2740   -2.3178 H       1  UNL1        0.0279
     43 H          -4.4182   -0.1156   -1.8008 H       1  UNL1        0.0266
     44 H          -3.9227   -1.5584   -2.7003 H       1  UNL1        0.0266
     45 H          -4.8080   -1.3960    0.1489 H       1  UNL1        0.0265
     46 H          -4.8350   -2.7224   -1.0077 H       1  UNL1        0.0265
     47 H          -2.6318   -3.3443   -0.7119 H       1  UNL1        0.0266
     48 H          -3.3238   -3.1870    0.9046 H       1  UNL1        0.0266
     49 H          -0.9445   -2.3101    0.3392 H       1  UNL1        0.0279
     50 H          -1.9046   -1.5010    1.5663 H       1  UNL1        0.0279
@<TRIPOS>BOND
     1     1     2    2
     2     2     3    1
     3     3     4    1
     4     4     5    1
     5     5     6    1
     6     6     7    1
     7     7     8    1
     8     8     9    1
     9     9    10    1
    10    10    11    1
    11     2    12    1
    12    12    13    1
    13    13    14   ar
    14    14    15   ar
    15    15    16   ar
    16    16    17   ar
    17    17    18   ar
    18    12    19    1
    19    19    20    1
    20    20    21    1
    21    21    22    1
    22    22    23    1
    23    11     6    1
    24    23    12    1
    25    18    13   ar
    26     4    24    1
    27     4    25    1
    28     5    26    1
    29     5    27    1
    30     7    28    1
    31     7    29    1
    32     8    30    1
    33     8    31    1
    34    10    32    1
    35    10    33    1
    36    11    34    1
    37    11    35    1
    38    14    36    1
    39    15    37    1
    40    16    38    1
    41    17    39    1
    42    18    40    1
    43    19    41    1
    44    19    42    1
    45    20    43    1
    46    20    44    1
    47    21    45    1
    48    21    46    1
    49    22    47    1
    50    22    48    1
    51    23    49    1
    52    23    50    1
