
     RDKit          3D

 56 57  0  0  0  0  0  0  0  0999 V2000
   -0.7260    1.8715   -2.7649 C   0  0  0  0  0  0  0  0  0  0  0  0
   -0.0210    1.1563   -1.7599 O   0  0  0  0  0  0  0  0  0  0  0  0
   -0.6887    0.1902   -1.0092 C   0  0  0  0  0  0  0  0  0  0  0  0
   -2.0201   -0.0679   -1.2403 C   0  0  0  0  0  0  0  0  0  0  0  0
   -2.7249   -1.0226   -0.5153 C   0  0  0  0  0  0  0  0  0  0  0  0
   -4.1591   -1.2184   -0.8595 C   0  0  0  0  0  0  0  0  0  0  0  0
   -5.0562   -0.2433   -0.1823 C   0  0  0  0  0  0  0  0  0  0  0  0
   -5.5679    0.8435   -0.9070 C   0  0  0  0  0  0  0  0  0  0  0  0
   -6.3751    1.7396   -0.3183 N   0  0  0  0  0  0  0  0  0  0  0  0
   -6.7341    1.6514    0.9739 C   0  0  0  0  0  0  0  0  0  0  0  0
   -7.5971    2.6194    1.5837 N   0  0  0  0  0  0  0  0  0  0  0  0
   -6.2544    0.6174    1.6853 N   0  0  0  0  0  0  0  0  0  0  0  0
   -5.4339   -0.3177    1.1376 C   0  0  0  0  0  0  0  0  0  0  0  0
   -4.9547   -1.3962    1.9252 N   0  0  0  0  0  0  0  0  0  0  0  0
   -2.0616   -1.7152    0.4501 C   0  0  0  0  0  0  0  0  0  0  0  0
   -0.7059   -1.4620    0.6956 C   0  0  0  0  0  0  0  0  0  0  0  0
   -0.0616   -2.1710    1.6710 O   0  0  0  0  0  0  0  0  0  0  0  0
   -0.7526   -3.1596    2.4365 C   0  0  0  0  0  0  0  0  0  0  0  0
   -0.0232   -0.5137   -0.0309 C   0  0  0  0  0  0  0  0  0  0  0  0
    1.3127   -0.2788    0.2261 O   0  0  0  0  0  0  0  0  0  0  0  0
    2.2809   -1.0181   -0.4706 C   0  0  0  0  0  0  0  0  0  0  0  0
    3.6868   -0.6307   -0.0651 C   0  0  0  0  0  0  0  0  0  0  0  0
    3.8679    0.8295   -0.3717 C   0  0  0  0  0  0  0  0  0  0  0  0
    5.2311    1.3386   -0.0099 C   0  0  0  0  0  0  0  0  0  0  0  0
    6.2899    0.5768   -0.7845 C   0  0  0  0  0  0  0  0  0  0  0  0
    7.6831    1.0970   -0.4168 C   0  0  0  0  0  0  0  0  0  0  0  0
    7.8585    0.8987    0.9835 N   0  0  0  0  0  0  0  0  0  0  0  0
   -0.0364    2.4964   -3.3656 H   0  0  0  0  0  0  0  0  0  0  0  0
   -1.2638    1.1953   -3.4555 H   0  0  0  0  0  0  0  0  0  0  0  0
   -1.4542    2.5600   -2.2982 H   0  0  0  0  0  0  0  0  0  0  0  0
   -2.5255    0.4972   -2.0149 H   0  0  0  0  0  0  0  0  0  0  0  0
   -4.4779   -2.2549   -0.6223 H   0  0  0  0  0  0  0  0  0  0  0  0
   -4.2692   -1.1010   -1.9526 H   0  0  0  0  0  0  0  0  0  0  0  0
   -5.2915    0.9322   -1.9461 H   0  0  0  0  0  0  0  0  0  0  0  0
   -8.4990    2.8149    1.1222 H   0  0  0  0  0  0  0  0  0  0  0  0
   -7.3557    3.1253    2.4589 H   0  0  0  0  0  0  0  0  0  0  0  0
   -5.3704   -2.3446    1.7372 H   0  0  0  0  0  0  0  0  0  0  0  0
   -4.2274   -1.2640    2.6554 H   0  0  0  0  0  0  0  0  0  0  0  0
   -2.5665   -2.4674    1.0325 H   0  0  0  0  0  0  0  0  0  0  0  0
   -1.1404   -3.9246    1.7184 H   0  0  0  0  0  0  0  0  0  0  0  0
   -1.6102   -2.6785    2.9483 H   0  0  0  0  0  0  0  0  0  0  0  0
   -0.0774   -3.6661    3.1447 H   0  0  0  0  0  0  0  0  0  0  0  0
    2.1335   -0.8688   -1.5547 H   0  0  0  0  0  0  0  0  0  0  0  0
    2.1164   -2.0957   -0.2475 H   0  0  0  0  0  0  0  0  0  0  0  0
    4.3674   -1.2266   -0.7056 H   0  0  0  0  0  0  0  0  0  0  0  0
    3.8895   -0.8901    0.9709 H   0  0  0  0  0  0  0  0  0  0  0  0
    3.1101    1.4421    0.1746 H   0  0  0  0  0  0  0  0  0  0  0  0
    3.7103    1.0436   -1.4481 H   0  0  0  0  0  0  0  0  0  0  0  0
    5.3584    2.4042   -0.2631 H   0  0  0  0  0  0  0  0  0  0  0  0
    5.3612    1.2460    1.0755 H   0  0  0  0  0  0  0  0  0  0  0  0
    6.1407    0.7376   -1.8698 H   0  0  0  0  0  0  0  0  0  0  0  0
    6.2682   -0.5057   -0.5946 H   0  0  0  0  0  0  0  0  0  0  0  0
    7.7959    2.1412   -0.7500 H   0  0  0  0  0  0  0  0  0  0  0  0
    8.4383    0.4939   -0.9533 H   0  0  0  0  0  0  0  0  0  0  0  0
    7.9032    1.7791    1.5401 H   0  0  0  0  0  0  0  0  0  0  0  0
    7.2796    0.1643    1.4007 H   0  0  0  0  0  0  0  0  0  0  0  0
  1  2  1  0
  2  3  1  0
  3  4  2  0
  4  5  1  0
  5  6  1  0
  6  7  1  0
  7  8  2  0
  8  9  1  0
  9 10  2  0
 10 11  1  0
 10 12  1  0
 12 13  2  0
 13 14  1  0
  5 15  2  0
 15 16  1  0
 16 17  1  0
 17 18  1  0
 16 19  2  0
 19 20  1  0
 20 21  1  0
 21 22  1  0
 22 23  1  0
 23 24  1  0
 24 25  1  0
 25 26  1  0
 26 27  1  0
 19  3  1  0
 13  7  1  0
  1 28  1  0
  1 29  1  0
  1 30  1  0
  4 31  1  0
  6 32  1  0
  6 33  1  0
  8 34  1  0
 11 35  1  0
 11 36  1  0
 14 37  1  0
 14 38  1  0
 15 39  1  0
 18 40  1  0
 18 41  1  0
 18 42  1  0
 21 43  1  0
 21 44  1  0
 22 45  1  0
 22 46  1  0
 23 47  1  0
 23 48  1  0
 24 49  1  0
 24 50  1  0
 25 51  1  0
 25 52  1  0
 26 53  1  0
 26 54  1  0
 27 55  1  0
 27 56  1  0
M  END
$$$$
