@<TRIPOS>MOLECULE
*****
 56 57 0 0 0
SMALL
GASTEIGER

@<TRIPOS>ATOM
      1 C          -0.7260    1.8715   -2.7649 C.3     1  UNL1        0.0790
      2 O          -0.0210    1.1563   -1.7599 O.3     1  UNL1       -0.4913
      3 C          -0.6887    0.1902   -1.0092 C.ar    1  UNL1        0.1654
      4 C          -2.0201   -0.0679   -1.2403 C.ar    1  UNL1       -0.0126
      5 C          -2.7249   -1.0226   -0.5153 C.ar    1  UNL1       -0.0358
      6 C          -4.1591   -1.2184   -0.8595 C.3     1  UNL1        0.0025
      7 C          -5.0562   -0.2433   -0.1823 C.ar    1  UNL1        0.0146
      8 C          -5.5679    0.8435   -0.9070 C.ar    1  UNL1        0.0379
      9 N          -6.3751    1.7396   -0.3183 N.ar    1  UNL1       -0.2227
     10 C          -6.7341    1.6514    0.9739 C.ar    1  UNL1        0.2142
     11 N          -7.5971    2.6194    1.5837 N.pl3   1  UNL1       -0.3274
     12 N          -6.2544    0.6174    1.6853 N.ar    1  UNL1       -0.1999
     13 C          -5.4339   -0.3177    1.1376 C.ar    1  UNL1        0.1247
     14 N          -4.9547   -1.3962    1.9252 N.pl3   1  UNL1       -0.3428
     15 C          -2.0616   -1.7152    0.4501 C.ar    1  UNL1       -0.0126
     16 C          -0.7059   -1.4620    0.6956 C.ar    1  UNL1        0.1654
     17 O          -0.0616   -2.1710    1.6710 O.3     1  UNL1       -0.4913
     18 C          -0.7526   -3.1596    2.4365 C.3     1  UNL1        0.0790
     19 C          -0.0232   -0.5137   -0.0309 C.ar    1  UNL1        0.2038
     20 O           1.3127   -0.2788    0.2261 O.3     1  UNL1       -0.4852
     21 C           2.2809   -1.0181   -0.4706 C.3     1  UNL1        0.0899
     22 C           3.6868   -0.6307   -0.0651 C.3     1  UNL1       -0.0186
     23 C           3.8679    0.8295   -0.3717 C.3     1  UNL1       -0.0499
     24 C           5.2311    1.3386   -0.0099 C.3     1  UNL1       -0.0518
     25 C           6.2899    0.5768   -0.7845 C.3     1  UNL1       -0.0406
     26 C           7.6831    1.0970   -0.4168 C.3     1  UNL1       -0.0069
     27 N           7.8585    0.8987    0.9835 N.3     1  UNL1       -0.3300
     28 H          -0.0364    2.4964   -3.3656 H       1  UNL1        0.0660
     29 H          -1.2638    1.1953   -3.4555 H       1  UNL1        0.0660
     30 H          -1.4542    2.5600   -2.2982 H       1  UNL1        0.0660
     31 H          -2.5255    0.4972   -2.0149 H       1  UNL1        0.0658
     32 H          -4.4779   -2.2549   -0.6223 H       1  UNL1        0.0363
     33 H          -4.2692   -1.1010   -1.9526 H       1  UNL1        0.0363
     34 H          -5.2915    0.9322   -1.9461 H       1  UNL1        0.0834
     35 H          -8.4990    2.8149    1.1222 H       1  UNL1        0.1452
     36 H          -7.3557    3.1253    2.4589 H       1  UNL1        0.1452
     37 H          -5.3704   -2.3446    1.7372 H       1  UNL1        0.1437
     38 H          -4.2274   -1.2640    2.6554 H       1  UNL1        0.1437
     39 H          -2.5665   -2.4674    1.0325 H       1  UNL1        0.0658
     40 H          -1.1404   -3.9246    1.7184 H       1  UNL1        0.0660
     41 H          -1.6102   -2.6785    2.9483 H       1  UNL1        0.0660
     42 H          -0.0774   -3.6661    3.1447 H       1  UNL1        0.0660
     43 H           2.1335   -0.8688   -1.5547 H       1  UNL1        0.0696
     44 H           2.1164   -2.0957   -0.2475 H       1  UNL1        0.0696
     45 H           4.3674   -1.2266   -0.7056 H       1  UNL1        0.0298
     46 H           3.8895   -0.8901    0.9709 H       1  UNL1        0.0298
     47 H           3.1101    1.4421    0.1746 H       1  UNL1        0.0266
     48 H           3.7103    1.0436   -1.4481 H       1  UNL1        0.0266
     49 H           5.3584    2.4042   -0.2631 H       1  UNL1        0.0266
     50 H           5.3612    1.2460    1.0755 H       1  UNL1        0.0266
     51 H           6.1407    0.7376   -1.8698 H       1  UNL1        0.0277
     52 H           6.2682   -0.5057   -0.5946 H       1  UNL1        0.0277
     53 H           7.7959    2.1412   -0.7500 H       1  UNL1        0.0422
     54 H           8.4383    0.4939   -0.9533 H       1  UNL1        0.0422
     55 H           7.9032    1.7791    1.5401 H       1  UNL1        0.1182
     56 H           7.2796    0.1643    1.4007 H       1  UNL1        0.1182
@<TRIPOS>BOND
     1     1     2    1
     2     2     3    1
     3     3     4   ar
     4     4     5   ar
     5     5     6    1
     6     6     7    1
     7     7     8   ar
     8     8     9   ar
     9     9    10   ar
    10    10    11    1
    11    10    12   ar
    12    12    13   ar
    13    13    14    1
    14     5    15   ar
    15    15    16   ar
    16    16    17    1
    17    17    18    1
    18    16    19   ar
    19    19    20    1
    20    20    21    1
    21    21    22    1
    22    22    23    1
    23    23    24    1
    24    24    25    1
    25    25    26    1
    26    26    27    1
    27    19     3   ar
    28    13     7   ar
    29     1    28    1
    30     1    29    1
    31     1    30    1
    32     4    31    1
    33     6    32    1
    34     6    33    1
    35     8    34    1
    36    11    35    1
    37    11    36    1
    38    14    37    1
    39    14    38    1
    40    15    39    1
    41    18    40    1
    42    18    41    1
    43    18    42    1
    44    21    43    1
    45    21    44    1
    46    22    45    1
    47    22    46    1
    48    23    47    1
    49    23    48    1
    50    24    49    1
    51    24    50    1
    52    25    51    1
    53    25    52    1
    54    26    53    1
    55    26    54    1
    56    27    55    1
    57    27    56    1
