@<TRIPOS>MOLECULE
*****
 40 43 0 0 0
SMALL
GASTEIGER

@<TRIPOS>ATOM
      1 C           6.2738    2.3173    0.7207 C.3     1  UNL1       -0.0039
      2 C           5.3255    1.7165   -0.3068 C.ar    1  UNL1        0.1359
      3 N           5.3872    2.2187   -1.5935 N.ar    1  UNL1       -0.1939
      4 S           4.0950    1.1896   -2.4414 S.2     1  UNL1        0.0369
      5 C           3.7105    0.2812   -0.9304 C.ar    1  UNL1        0.1652
      6 C           2.6756   -0.7970   -0.9108 C.ar    1  UNL1        0.1910
      7 N           2.9228   -1.9975   -1.4516 N.ar    1  UNL1       -0.1269
      8 N           1.8409   -2.7408   -1.2672 N.ar    1  UNL1       -0.1320
      9 C           0.9364   -1.9745   -0.6083 C.ar    1  UNL1        0.1542
     10 N           1.4624   -0.7552   -0.3867 N.ar    1  UNL1       -0.3062
     11 C           0.7468    0.2992    0.2864 C.3     1  UNL1        0.0423
     12 C          -0.6734   -0.0185    0.5898 C.3     1  UNL1        0.0338
     13 N          -1.2248   -1.1733   -0.0442 N.am    1  UNL1       -0.2860
     14 C          -2.5362   -1.1645   -0.5442 C.2     1  UNL1        0.2472
     15 O          -2.9912   -2.2303   -1.1040 O.2     1  UNL1       -0.2700
     16 C          -3.4224   -0.0294   -0.4705 C.ar    1  UNL1        0.0369
     17 C          -4.5420   -0.1467    0.3592 C.ar    1  UNL1       -0.0496
     18 C          -5.4441    0.8923    0.4435 C.ar    1  UNL1       -0.0610
     19 C          -5.2570    2.0392   -0.2756 C.ar    1  UNL1       -0.0617
     20 C          -4.1641    2.1673   -1.0917 C.ar    1  UNL1       -0.0610
     21 C          -3.2471    1.1317   -1.1878 C.ar    1  UNL1       -0.0496
     22 C          -0.4094   -2.3710   -0.1675 C.3     1  UNL1        0.0834
     23 C          -0.3078   -3.1446    1.1022 C.3     1  UNL1       -0.0393
     24 N           4.4578    0.7731   -0.1304 N.ar    1  UNL1       -0.2199
     25 H           5.7898    3.2023    1.1572 H       1  UNL1        0.0308
     26 H           6.3918    1.5468    1.5380 H       1  UNL1        0.0308
     27 H           7.2688    2.4755    0.2948 H       1  UNL1        0.0308
     28 H           0.7937    1.2018   -0.3837 H       1  UNL1        0.0508
     29 H           1.2618    0.5842    1.2325 H       1  UNL1        0.0508
     30 H          -1.2875    0.9030    0.3642 H       1  UNL1        0.0482
     31 H          -0.8042   -0.1239    1.7111 H       1  UNL1        0.0482
     32 H          -4.6906   -1.0541    0.9275 H       1  UNL1        0.0625
     33 H          -6.3142    0.7966    1.0895 H       1  UNL1        0.0618
     34 H          -5.9683    2.8278   -0.1948 H       1  UNL1        0.0618
     35 H          -4.0494    3.0788   -1.6380 H       1  UNL1        0.0618
     36 H          -2.3707    1.2335   -1.8389 H       1  UNL1        0.0625
     37 H          -0.8719   -3.0171   -0.9530 H       1  UNL1        0.0579
     38 H           0.4472   -3.9643    0.9162 H       1  UNL1        0.0252
     39 H           0.0434   -2.5447    1.9599 H       1  UNL1        0.0252
     40 H          -1.2551   -3.6294    1.3345 H       1  UNL1        0.0252
@<TRIPOS>BOND
     1     1     2    1
     2     2     3   ar
     3     3     4   ar
     4     4     5   ar
     5     5     6    1
     6     6     7   ar
     7     7     8   ar
     8     8     9   ar
     9     9    10   ar
    10    10    11    1
    11    11    12    1
    12    12    13    1
    13    13    14   am
    14    14    15    2
    15    14    16    1
    16    16    17   ar
    17    17    18   ar
    18    18    19   ar
    19    19    20   ar
    20    20    21   ar
    21    13    22    1
    22    22    23    1
    23     5    24   ar
    24    24     2   ar
    25    10     6   ar
    26    21    16   ar
    27    22     9    1
    28     1    25    1
    29     1    26    1
    30     1    27    1
    31    11    28    1
    32    11    29    1
    33    12    30    1
    34    12    31    1
    35    17    32    1
    36    18    33    1
    37    19    34    1
    38    20    35    1
    39    21    36    1
    40    22    37    1
    41    23    38    1
    42    23    39    1
    43    23    40    1
