
     RDKit          3D

 40 43  0  0  0  0  0  0  0  0999 V2000
    6.2738    2.3173    0.7207 C   0  0  0  0  0  0  0  0  0  0  0  0
    5.3255    1.7165   -0.3068 C   0  0  0  0  0  0  0  0  0  0  0  0
    5.3872    2.2187   -1.5935 N   0  0  0  0  0  0  0  0  0  0  0  0
    4.0950    1.1896   -2.4414 S   0  0  0  0  0  0  0  0  0  0  0  0
    3.7105    0.2812   -0.9304 C   0  0  0  0  0  0  0  0  0  0  0  0
    2.6756   -0.7970   -0.9108 C   0  0  0  0  0  0  0  0  0  0  0  0
    2.9228   -1.9975   -1.4516 N   0  0  0  0  0  0  0  0  0  0  0  0
    1.8409   -2.7408   -1.2672 N   0  0  0  0  0  0  0  0  0  0  0  0
    0.9364   -1.9745   -0.6083 C   0  0  0  0  0  0  0  0  0  0  0  0
    1.4624   -0.7552   -0.3867 N   0  0  0  0  0  0  0  0  0  0  0  0
    0.7468    0.2992    0.2864 C   0  0  0  0  0  0  0  0  0  0  0  0
   -0.6734   -0.0185    0.5898 C   0  0  0  0  0  0  0  0  0  0  0  0
   -1.2248   -1.1733   -0.0442 N   0  0  0  0  0  0  0  0  0  0  0  0
   -2.5362   -1.1645   -0.5442 C   0  0  0  0  0  0  0  0  0  0  0  0
   -2.9912   -2.2303   -1.1040 O   0  0  0  0  0  0  0  0  0  0  0  0
   -3.4224   -0.0294   -0.4705 C   0  0  0  0  0  0  0  0  0  0  0  0
   -4.5420   -0.1467    0.3592 C   0  0  0  0  0  0  0  0  0  0  0  0
   -5.4441    0.8923    0.4435 C   0  0  0  0  0  0  0  0  0  0  0  0
   -5.2570    2.0392   -0.2756 C   0  0  0  0  0  0  0  0  0  0  0  0
   -4.1641    2.1673   -1.0917 C   0  0  0  0  0  0  0  0  0  0  0  0
   -3.2471    1.1317   -1.1878 C   0  0  0  0  0  0  0  0  0  0  0  0
   -0.4094   -2.3710   -0.1675 C   0  0  2  0  0  0  0  0  0  0  0  0
   -0.3078   -3.1446    1.1022 C   0  0  0  0  0  0  0  0  0  0  0  0
    4.4578    0.7731   -0.1304 N   0  0  0  0  0  0  0  0  0  0  0  0
    5.7898    3.2023    1.1572 H   0  0  0  0  0  0  0  0  0  0  0  0
    6.3918    1.5468    1.5380 H   0  0  0  0  0  0  0  0  0  0  0  0
    7.2688    2.4755    0.2948 H   0  0  0  0  0  0  0  0  0  0  0  0
    0.7937    1.2018   -0.3837 H   0  0  0  0  0  0  0  0  0  0  0  0
    1.2618    0.5842    1.2325 H   0  0  0  0  0  0  0  0  0  0  0  0
   -1.2875    0.9030    0.3642 H   0  0  0  0  0  0  0  0  0  0  0  0
   -0.8042   -0.1239    1.7111 H   0  0  0  0  0  0  0  0  0  0  0  0
   -4.6906   -1.0541    0.9275 H   0  0  0  0  0  0  0  0  0  0  0  0
   -6.3142    0.7966    1.0895 H   0  0  0  0  0  0  0  0  0  0  0  0
   -5.9683    2.8278   -0.1948 H   0  0  0  0  0  0  0  0  0  0  0  0
   -4.0494    3.0788   -1.6380 H   0  0  0  0  0  0  0  0  0  0  0  0
   -2.3707    1.2335   -1.8389 H   0  0  0  0  0  0  0  0  0  0  0  0
   -0.8719   -3.0171   -0.9530 H   0  0  0  0  0  0  0  0  0  0  0  0
    0.4472   -3.9643    0.9162 H   0  0  0  0  0  0  0  0  0  0  0  0
    0.0434   -2.5447    1.9599 H   0  0  0  0  0  0  0  0  0  0  0  0
   -1.2551   -3.6294    1.3345 H   0  0  0  0  0  0  0  0  0  0  0  0
  1  2  1  0
  2  3  2  0
  3  4  1  0
  4  5  1  0
  5  6  1  0
  6  7  2  0
  7  8  1  0
  8  9  2  0
  9 10  1  0
 10 11  1  0
 11 12  1  0
 12 13  1  0
 13 14  1  0
 14 15  2  0
 14 16  1  0
 16 17  2  0
 17 18  1  0
 18 19  2  0
 19 20  1  0
 20 21  2  0
 13 22  1  0
 22 23  1  0
  5 24  2  0
 24  2  1  0
 10  6  1  0
 21 16  1  0
 22  9  1  0
  1 25  1  0
  1 26  1  0
  1 27  1  0
 11 28  1  0
 11 29  1  0
 12 30  1  0
 12 31  1  0
 17 32  1  0
 18 33  1  0
 19 34  1  0
 20 35  1  0
 21 36  1  0
 22 37  1  6
 23 38  1  0
 23 39  1  0
 23 40  1  0
M  END
$$$$
