@<TRIPOS>MOLECULE
*****
 44 47 0 0 0
SMALL
GASTEIGER

@<TRIPOS>ATOM
      1 CL         -7.1934   -2.4025    0.0986 Cl      1  UNL1       -0.0835
      2 C          -5.8690   -1.2483    0.2910 C.ar    1  UNL1        0.0416
      3 C          -5.3119   -0.7892   -0.8824 C.ar    1  UNL1       -0.0356
      4 C          -4.2700    0.1172   -0.8361 C.ar    1  UNL1       -0.0130
      5 C          -3.8178    0.5367    0.4185 C.ar    1  UNL1       -0.0538
      6 C          -4.3803    0.0728    1.5886 C.ar    1  UNL1       -0.0598
      7 C          -5.4190   -0.8312    1.5130 C.ar    1  UNL1       -0.0434
      8 C          -3.5159    0.7486   -1.9118 C.ar    1  UNL1        0.0273
      9 C          -4.0146    1.5705   -2.9138 C.ar    1  UNL1        0.0306
     10 N          -2.9864    1.9507   -3.7162 N.ar    1  UNL1       -0.2835
     11 N          -1.8821    1.4018   -3.2546 N.ar    1  UNL1       -0.1732
     12 C          -2.1638    0.6545   -2.1454 C.ar    1  UNL1        0.1016
     13 C          -1.2573   -0.1327   -1.3014 C.ar    1  UNL1        0.0207
     14 C          -1.3135   -1.5184   -1.1262 C.ar    1  UNL1        0.0116
     15 N          -0.3255   -1.9267   -0.2769 N.ar    1  UNL1       -0.3565
     16 C           0.3625   -0.8438    0.0976 C.ar    1  UNL1        0.1024
     17 C          -0.1924    0.2684   -0.5195 C.ar    1  UNL1       -0.0226
     18 C           1.5033   -0.8489    1.0021 C.2     1  UNL1        0.2606
     19 O           1.8526   -1.9651    1.4437 O.2     1  UNL1       -0.2686
     20 N           2.1949    0.3331    1.3758 N.am    1  UNL1       -0.3060
     21 C           3.3312    0.4423    2.2595 C.3     1  UNL1        0.0372
     22 C           4.5569    0.0034    1.5572 C.ar    1  UNL1       -0.0303
     23 C           5.0740   -1.2624    1.5127 C.ar    1  UNL1       -0.0571
     24 C           6.2365   -1.5572    0.8185 C.ar    1  UNL1       -0.0615
     25 C           6.8548   -0.5280    0.1732 C.ar    1  UNL1       -0.0617
     26 C           6.3863    0.7713    0.1781 C.ar    1  UNL1       -0.0615
     27 C           5.2134    1.0280    0.8878 C.ar    1  UNL1       -0.0571
     28 H          -5.5740   -1.0383   -1.9037 H       1  UNL1        0.0638
     29 H          -2.9994    1.2512    0.5954 H       1  UNL1        0.0624
     30 H          -4.0503    0.3803    2.5710 H       1  UNL1        0.0618
     31 H          -5.8994   -1.2290    2.4129 H       1  UNL1        0.0632
     32 H          -5.0464    1.8787   -3.0619 H       1  UNL1        0.0830
     33 H          -3.0360    2.5751   -4.5657 H       1  UNL1        0.1882
     34 H          -2.0433   -2.1587   -1.6038 H       1  UNL1        0.0813
     35 H          -0.2073   -2.9462   -0.0217 H       1  UNL1        0.1655
     36 H           0.1225    1.2953   -0.4327 H       1  UNL1        0.0647
     37 H           1.7926    1.2049    0.9285 H       1  UNL1        0.1494
     38 H           3.3962    1.4814    2.6130 H       1  UNL1        0.0512
     39 H           3.2311   -0.2372    3.1424 H       1  UNL1        0.0512
     40 H           4.5291   -2.0235    2.0484 H       1  UNL1        0.0621
     41 H           6.6230   -2.5743    0.8014 H       1  UNL1        0.0618
     42 H           7.7666   -0.6703   -0.3923 H       1  UNL1        0.0618
     43 H           6.8810    1.6027   -0.3401 H       1  UNL1        0.0618
     44 H           4.8600    2.0690    0.8774 H       1  UNL1        0.0621
@<TRIPOS>BOND
     1     1     2    1
     2     2     3   ar
     3     3     4   ar
     4     4     5   ar
     5     5     6   ar
     6     6     7   ar
     7     4     8    1
     8     8     9   ar
     9     9    10   ar
    10    10    11   ar
    11    11    12   ar
    12    12    13    1
    13    13    14   ar
    14    14    15   ar
    15    15    16   ar
    16    16    17   ar
    17    16    18    1
    18    18    19    2
    19    18    20   am
    20    20    21    1
    21    21    22    1
    22    22    23   ar
    23    23    24   ar
    24    24    25   ar
    25    25    26   ar
    26    26    27   ar
    27     7     2   ar
    28    12     8   ar
    29    17    13   ar
    30    27    22   ar
    31     3    28    1
    32     5    29    1
    33     6    30    1
    34     7    31    1
    35     9    32    1
    36    10    33    1
    37    14    34    1
    38    15    35    1
    39    17    36    1
    40    20    37    1
    41    21    38    1
    42    21    39    1
    43    23    40    1
    44    24    41    1
    45    25    42    1
    46    26    43    1
    47    27    44    1
