
     RDKit          3D

 39 40  0  0  0  0  0  0  0  0999 V2000
    4.8253   -0.5435    0.8815 C   0  0  0  0  0  0  0  0  0  0  0  0
    3.8472    0.2756    0.1158 C   0  0  1  0  0  0  0  0  0  0  0  0
    3.7528   -0.2058   -1.2531 N   0  0  0  0  0  0  0  0  0  0  0  0
    2.4916    0.3664    0.7724 C   0  0  1  0  0  0  0  0  0  0  0  0
    1.5281    1.1939   -0.0161 C   0  0  0  0  0  0  0  0  0  0  0  0
    0.6754    0.3950   -0.9555 C   0  0  0  0  0  0  0  0  0  0  0  0
   -0.0119   -0.7677   -0.3287 C   0  0  2  0  0  0  0  0  0  0  0  0
   -1.4766   -0.7525   -0.4879 C   0  0  0  0  0  0  0  0  0  0  0  0
   -2.0641   -1.7065   -1.0915 O   0  0  0  0  0  0  0  0  0  0  0  0
   -2.3110    0.2820   -0.0020 N   0  0  0  0  0  0  0  0  0  0  0  0
   -3.7324    0.2344   -0.1916 C   0  0  0  0  0  0  0  0  0  0  0  0
   -4.5819   -0.3560    0.7170 C   0  0  0  0  0  0  0  0  0  0  0  0
   -5.9583   -0.3991    0.5282 C   0  0  0  0  0  0  0  0  0  0  0  0
   -6.4985    0.1508   -0.5768 N   0  0  0  0  0  0  0  0  0  0  0  0
   -5.6963    0.7343   -1.4820 C   0  0  0  0  0  0  0  0  0  0  0  0
   -4.3258    0.7922   -1.3210 C   0  0  0  0  0  0  0  0  0  0  0  0
    0.3916   -0.8026    1.1477 C   0  0  0  0  0  0  0  0  0  0  0  0
    1.9189   -0.9660    1.1303 C   0  0  0  0  0  0  0  0  0  0  0  0
    5.3491    0.0253    1.6970 H   0  0  0  0  0  0  0  0  0  0  0  0
    4.3924   -1.4365    1.3701 H   0  0  0  0  0  0  0  0  0  0  0  0
    5.6295   -0.9162    0.2122 H   0  0  0  0  0  0  0  0  0  0  0  0
    4.2580    1.3163    0.0512 H   0  0  0  0  0  0  0  0  0  0  0  0
    4.6997   -0.6334   -1.4837 H   0  0  0  0  0  0  0  0  0  0  0  0
    3.6829    0.6121   -1.9197 H   0  0  0  0  0  0  0  0  0  0  0  0
    2.6626    0.9150    1.7458 H   0  0  0  0  0  0  0  0  0  0  0  0
    2.1006    1.9267   -0.6455 H   0  0  0  0  0  0  0  0  0  0  0  0
    0.9105    1.8409    0.6644 H   0  0  0  0  0  0  0  0  0  0  0  0
   -0.0448    1.1176   -1.4267 H   0  0  0  0  0  0  0  0  0  0  0  0
    1.3436    0.0863   -1.8120 H   0  0  0  0  0  0  0  0  0  0  0  0
    0.3970   -1.6935   -0.7703 H   0  0  0  0  0  0  0  0  0  0  0  0
   -1.8568    1.0852    0.5016 H   0  0  0  0  0  0  0  0  0  0  0  0
   -4.1727   -0.8035    1.6103 H   0  0  0  0  0  0  0  0  0  0  0  0
   -6.6358   -0.8568    1.2288 H   0  0  0  0  0  0  0  0  0  0  0  0
   -6.1909    1.1655   -2.3621 H   0  0  0  0  0  0  0  0  0  0  0  0
   -3.7306    1.2654   -2.0660 H   0  0  0  0  0  0  0  0  0  0  0  0
    0.1010    0.1476    1.6536 H   0  0  0  0  0  0  0  0  0  0  0  0
   -0.0706   -1.6304    1.6861 H   0  0  0  0  0  0  0  0  0  0  0  0
    2.1210   -1.7549    0.3719 H   0  0  0  0  0  0  0  0  0  0  0  0
    2.2803   -1.3435    2.1061 H   0  0  0  0  0  0  0  0  0  0  0  0
  1  2  1  0
  2  3  1  0
  2  4  1  0
  4  5  1  0
  5  6  1  0
  6  7  1  0
  7  8  1  0
  8  9  2  0
  8 10  1  0
 10 11  1  0
 11 12  2  0
 12 13  1  0
 13 14  2  0
 14 15  1  0
 15 16  2  0
  7 17  1  0
 17 18  1  0
 18  4  1  0
 16 11  1  0
  1 19  1  0
  1 20  1  0
  1 21  1  0
  2 22  1  6
  3 23  1  0
  3 24  1  0
  4 25  1  1
  5 26  1  0
  5 27  1  0
  6 28  1  0
  6 29  1  0
  7 30  1  6
 10 31  1  0
 12 32  1  0
 13 33  1  0
 15 34  1  0
 16 35  1  0
 17 36  1  0
 17 37  1  0
 18 38  1  0
 18 39  1  0
M  END
$$$$
