@<TRIPOS>MOLECULE
*****
 39 40 0 0 0
SMALL
GASTEIGER

@<TRIPOS>ATOM
      1 C           4.8253   -0.5435    0.8815 C.3     1  UNL1       -0.0496
      2 C           3.8472    0.2756    0.1158 C.3     1  UNL1        0.0048
      3 N           3.7528   -0.2058   -1.2531 N.3     1  UNL1       -0.3272
      4 C           2.4916    0.3664    0.7724 C.3     1  UNL1       -0.0260
      5 C           1.5281    1.1939   -0.0161 C.3     1  UNL1       -0.0481
      6 C           0.6754    0.3950   -0.9555 C.3     1  UNL1       -0.0416
      7 C          -0.0119   -0.7677   -0.3287 C.3     1  UNL1        0.0359
      8 C          -1.4766   -0.7525   -0.4879 C.2     1  UNL1        0.2203
      9 O          -2.0641   -1.7065   -1.0915 O.2     1  UNL1       -0.2752
     10 N          -2.3110    0.2820   -0.0020 N.am    1  UNL1       -0.2852
     11 C          -3.7324    0.2344   -0.1916 C.ar    1  UNL1        0.0363
     12 C          -4.5819   -0.3560    0.7170 C.ar    1  UNL1       -0.0223
     13 C          -5.9583   -0.3991    0.5282 C.ar    1  UNL1        0.0293
     14 N          -6.4985    0.1508   -0.5768 N.ar    1  UNL1       -0.2631
     15 C          -5.6963    0.7343   -1.4820 C.ar    1  UNL1        0.0293
     16 C          -4.3258    0.7922   -1.3210 C.ar    1  UNL1       -0.0223
     17 C           0.3916   -0.8026    1.1477 C.3     1  UNL1       -0.0416
     18 C           1.9189   -0.9660    1.1303 C.3     1  UNL1       -0.0481
     19 H           5.3491    0.0253    1.6970 H       1  UNL1        0.0245
     20 H           4.3924   -1.4365    1.3701 H       1  UNL1        0.0245
     21 H           5.6295   -0.9162    0.2122 H       1  UNL1        0.0245
     22 H           4.2580    1.3163    0.0512 H       1  UNL1        0.0458
     23 H           4.6997   -0.6334   -1.4837 H       1  UNL1        0.1185
     24 H           3.6829    0.6121   -1.9197 H       1  UNL1        0.1185
     25 H           2.6626    0.9150    1.7458 H       1  UNL1        0.0316
     26 H           2.1006    1.9267   -0.6455 H       1  UNL1        0.0269
     27 H           0.9105    1.8409    0.6644 H       1  UNL1        0.0269
     28 H          -0.0448    1.1176   -1.4267 H       1  UNL1        0.0273
     29 H           1.3436    0.0863   -1.8120 H       1  UNL1        0.0273
     30 H           0.3970   -1.6935   -0.7703 H       1  UNL1        0.0394
     31 H          -1.8568    1.0852    0.5016 H       1  UNL1        0.1548
     32 H          -4.1727   -0.8035    1.6103 H       1  UNL1        0.0651
     33 H          -6.6358   -0.8568    1.2288 H       1  UNL1        0.0830
     34 H          -6.1909    1.1655   -2.3621 H       1  UNL1        0.0830
     35 H          -3.7306    1.2654   -2.0660 H       1  UNL1        0.0651
     36 H           0.1010    0.1476    1.6536 H       1  UNL1        0.0273
     37 H          -0.0706   -1.6304    1.6861 H       1  UNL1        0.0273
     38 H           2.1210   -1.7549    0.3719 H       1  UNL1        0.0269
     39 H           2.2803   -1.3435    2.1061 H       1  UNL1        0.0269
@<TRIPOS>BOND
     1     1     2    1
     2     2     3    1
     3     2     4    1
     4     4     5    1
     5     5     6    1
     6     6     7    1
     7     7     8    1
     8     8     9    2
     9     8    10   am
    10    10    11    1
    11    11    12   ar
    12    12    13   ar
    13    13    14   ar
    14    14    15   ar
    15    15    16   ar
    16     7    17    1
    17    17    18    1
    18    18     4    1
    19    16    11   ar
    20     1    19    1
    21     1    20    1
    22     1    21    1
    23     2    22    1
    24     3    23    1
    25     3    24    1
    26     4    25    1
    27     5    26    1
    28     5    27    1
    29     6    28    1
    30     6    29    1
    31     7    30    1
    32    10    31    1
    33    12    32    1
    34    13    33    1
    35    15    34    1
    36    16    35    1
    37    17    36    1
    38    17    37    1
    39    18    38    1
    40    18    39    1
