
     RDKit          3D

 48 52  0  0  0  0  0  0  0  0999 V2000
    0.3069   -0.9587   -1.4116 O   0  0  0  0  0  0  0  0  0  0  0  0
    0.4326    0.0201   -0.6169 C   0  0  0  0  0  0  0  0  0  0  0  0
   -0.6819    0.5796   -0.0857 C   0  0  0  0  0  0  0  0  0  0  0  0
   -2.0497    0.1175   -0.3861 C   0  0  0  0  0  0  0  0  0  0  0  0
   -2.9466    0.1147    0.5139 N   0  0  0  0  0  0  0  0  0  0  0  0
   -4.2759   -0.2872    0.4096 C   0  0  0  0  0  0  0  0  0  0  0  0
   -5.1058   -0.1702    1.5317 C   0  0  0  0  0  0  0  0  0  0  0  0
   -6.4249   -0.5104    1.5193 C   0  0  0  0  0  0  0  0  0  0  0  0
   -6.9480   -0.9930    0.3279 C   0  0  0  0  0  0  0  0  0  0  0  0
   -6.1586   -1.1179   -0.7836 C   0  0  0  0  0  0  0  0  0  0  0  0
   -4.8534   -0.7727   -0.7406 C   0  0  0  0  0  0  0  0  0  0  0  0
   -3.8228   -0.9638   -2.1627 S   0  0  0  0  0  6  0  0  0  0  0  0
   -3.6905   -2.4141   -2.5295 O   0  0  0  0  0  0  0  0  0  0  0  0
   -4.4225   -0.1950   -3.3277 O   0  0  0  0  0  0  0  0  0  0  0  0
   -2.3146   -0.2777   -1.7271 N   0  0  0  0  0  0  0  0  0  0  0  0
   -0.5538    1.6392    0.7765 C   0  0  0  0  0  0  0  0  0  0  0  0
   -1.6283    2.2845    1.3755 O   0  0  0  0  0  0  0  0  0  0  0  0
    0.7320    2.1083    1.0791 C   0  0  0  0  0  0  0  0  0  0  0  0
    0.9099    3.1667    1.9404 C   0  0  0  0  0  0  0  0  0  0  0  0
    2.2092    3.5920    2.2100 C   0  0  0  0  0  0  0  0  0  0  0  0
    2.3688    4.6220    3.0486 F   0  0  0  0  0  0  0  0  0  0  0  0
    3.2891    2.9721    1.6318 C   0  0  0  0  0  0  0  0  0  0  0  0
    3.1150    1.9224    0.7773 C   0  0  0  0  0  0  0  0  0  0  0  0
    1.8230    1.4803    0.4930 C   0  0  0  0  0  0  0  0  0  0  0  0
    1.6887    0.4437   -0.3502 N   0  0  0  0  0  0  0  0  0  0  0  0
    2.7914   -0.2375   -0.9942 C   0  0  0  0  0  0  0  0  0  0  0  0
    3.3139   -1.3830   -0.1478 C   0  0  0  0  0  0  0  0  0  0  0  0
    4.4568   -2.0125   -0.9226 C   0  0  0  0  0  0  0  0  0  0  0  0
    5.1881   -3.1709   -0.3604 C   0  0  0  0  0  0  0  0  0  0  0  0
    5.8030   -1.8018   -0.2944 C   0  0  0  0  0  0  0  0  0  0  0  0
   -4.7013    0.2095    2.4753 H   0  0  0  0  0  0  0  0  0  0  0  0
   -7.0717   -0.4251    2.3719 H   0  0  0  0  0  0  0  0  0  0  0  0
   -7.9943   -1.2826    0.2501 H   0  0  0  0  0  0  0  0  0  0  0  0
   -6.5646   -1.4959   -1.7193 H   0  0  0  0  0  0  0  0  0  0  0  0
   -1.5782   -0.1363   -2.4503 H   0  0  0  0  0  0  0  0  0  0  0  0
   -2.4073    2.6753    0.8766 H   0  0  0  0  0  0  0  0  0  0  0  0
    0.0615    3.6549    2.3957 H   0  0  0  0  0  0  0  0  0  0  0  0
    4.3170    3.2965    1.8353 H   0  0  0  0  0  0  0  0  0  0  0  0
    3.9580    1.4271    0.3206 H   0  0  0  0  0  0  0  0  0  0  0  0
    3.5974    0.4037   -1.3465 H   0  0  0  0  0  0  0  0  0  0  0  0
    2.4278   -0.7602   -1.9393 H   0  0  0  0  0  0  0  0  0  0  0  0
    2.5140   -2.1021    0.0677 H   0  0  0  0  0  0  0  0  0  0  0  0
    3.6512   -0.9461    0.8146 H   0  0  0  0  0  0  0  0  0  0  0  0
    4.3871   -1.9553   -2.0336 H   0  0  0  0  0  0  0  0  0  0  0  0
    4.7672   -3.5915    0.5757 H   0  0  0  0  0  0  0  0  0  0  0  0
    5.6075   -3.8937   -1.0662 H   0  0  0  0  0  0  0  0  0  0  0  0
    5.8631   -1.3390    0.7048 H   0  0  0  0  0  0  0  0  0  0  0  0
    6.6143   -1.5361   -1.0067 H   0  0  0  0  0  0  0  0  0  0  0  0
  1  2  2  0
  2  3  1  0
  3  4  1  0
  4  5  2  0
  5  6  1  0
  6  7  2  0
  7  8  1  0
  8  9  2  0
  9 10  1  0
 10 11  2  0
 11 12  1  0
 12 13  2  0
 12 14  2  0
 12 15  1  0
  3 16  2  0
 16 17  1  0
 16 18  1  0
 18 19  2  0
 19 20  1  0
 20 21  1  0
 20 22  2  0
 22 23  1  0
 23 24  2  0
 24 25  1  0
 25 26  1  0
 26 27  1  0
 27 28  1  0
 28 29  1  0
 29 30  1  0
 25  2  1  0
 30 28  1  0
 15  4  1  0
 24 18  1  0
 11  6  1  0
  7 31  1  0
  8 32  1  0
  9 33  1  0
 10 34  1  0
 15 35  1  0
 17 36  1  0
 19 37  1  0
 22 38  1  0
 23 39  1  0
 26 40  1  0
 26 41  1  0
 27 42  1  0
 27 43  1  0
 28 44  1  0
 29 45  1  0
 29 46  1  0
 30 47  1  0
 30 48  1  0
M  END
$$$$
