@<TRIPOS>MOLECULE
*****
 48 52 0 0 0
SMALL
GASTEIGER

@<TRIPOS>ATOM
      1 O           0.3069   -0.9587   -1.4116 O.2     1  UNL1       -0.2666
      2 C           0.4326    0.0201   -0.6169 C.ar    1  UNL1        0.2704
      3 C          -0.6819    0.5796   -0.0857 C.ar    1  UNL1        0.1734
      4 C          -2.0497    0.1175   -0.3861 C.2     1  UNL1        0.3512
      5 N          -2.9466    0.1147    0.5139 N.2     1  UNL1       -0.0372
      6 C          -4.2759   -0.2872    0.4096 C.ar    1  UNL1        0.2049
      7 C          -5.1058   -0.1702    1.5317 C.ar    1  UNL1       -0.0088
      8 C          -6.4249   -0.5104    1.5193 C.ar    1  UNL1       -0.0575
      9 C          -6.9480   -0.9930    0.3279 C.ar    1  UNL1       -0.0596
     10 C          -6.1586   -1.1179   -0.7836 C.ar    1  UNL1       -0.0288
     11 C          -4.8534   -0.7727   -0.7406 C.ar    1  UNL1        0.1791
     12 S          -3.8228   -0.9638   -2.1627 S.O2    1  UNL1        0.1360
     13 O          -3.6905   -2.4141   -2.5295 O.2     1  UNL1       -0.1302
     14 O          -4.4225   -0.1950   -3.3277 O.2     1  UNL1       -0.1302
     15 N          -2.3146   -0.2777   -1.7271 N.pl3   1  UNL1       -0.0896
     16 C          -0.5538    1.6392    0.7765 C.ar    1  UNL1        0.1463
     17 O          -1.6283    2.2845    1.3755 O.3     1  UNL1       -0.5051
     18 C           0.7320    2.1083    1.0791 C.ar    1  UNL1        0.0437
     19 C           0.9099    3.1667    1.9404 C.ar    1  UNL1       -0.0138
     20 C           2.2092    3.5920    2.2100 C.ar    1  UNL1        0.1242
     21 F           2.3688    4.6220    3.0486 F       1  UNL1       -0.2055
     22 C           3.2891    2.9721    1.6318 C.ar    1  UNL1       -0.0245
     23 C           3.1150    1.9224    0.7773 C.ar    1  UNL1       -0.0347
     24 C           1.8230    1.4803    0.4930 C.ar    1  UNL1        0.0557
     25 N           1.6887    0.4437   -0.3502 N.ar    1  UNL1       -0.3072
     26 C           2.7914   -0.2375   -0.9942 C.3     1  UNL1        0.0270
     27 C           3.3139   -1.3830   -0.1478 C.3     1  UNL1       -0.0320
     28 C           4.4568   -2.0125   -0.9226 C.3     1  UNL1       -0.0394
     29 C           5.1881   -3.1709   -0.3604 C.3     1  UNL1       -0.0499
     30 C           5.8030   -1.8018   -0.2944 C.3     1  UNL1       -0.0499
     31 H          -4.7013    0.2095    2.4753 H       1  UNL1        0.0661
     32 H          -7.0717   -0.4251    2.3719 H       1  UNL1        0.0619
     33 H          -7.9943   -1.2826    0.2501 H       1  UNL1        0.0618
     34 H          -6.5646   -1.4959   -1.7193 H       1  UNL1        0.0639
     35 H          -1.5782   -0.1363   -2.4503 H       1  UNL1        0.3258
     36 H          -2.4073    2.6753    0.8766 H       1  UNL1        0.2922
     37 H           0.0615    3.6549    2.3957 H       1  UNL1        0.0654
     38 H           4.3170    3.2965    1.8353 H       1  UNL1        0.0647
     39 H           3.9580    1.4271    0.3206 H       1  UNL1        0.0639
     40 H           3.5974    0.4037   -1.3465 H       1  UNL1        0.0493
     41 H           2.4278   -0.7602   -1.9393 H       1  UNL1        0.0493
     42 H           2.5140   -2.1021    0.0677 H       1  UNL1        0.0285
     43 H           3.6512   -0.9461    0.8146 H       1  UNL1        0.0285
     44 H           4.3871   -1.9553   -2.0336 H       1  UNL1        0.0301
     45 H           4.7672   -3.5915    0.5757 H       1  UNL1        0.0268
     46 H           5.6075   -3.8937   -1.0662 H       1  UNL1        0.0268
     47 H           5.8631   -1.3390    0.7048 H       1  UNL1        0.0268
     48 H           6.6143   -1.5361   -1.0067 H       1  UNL1        0.0268
@<TRIPOS>BOND
     1     1     2    2
     2     2     3   ar
     3     3     4    1
     4     4     5    2
     5     5     6    1
     6     6     7   ar
     7     7     8   ar
     8     8     9   ar
     9     9    10   ar
    10    10    11   ar
    11    11    12    1
    12    12    13    2
    13    12    14    2
    14    12    15    1
    15     3    16   ar
    16    16    17    1
    17    16    18   ar
    18    18    19   ar
    19    19    20   ar
    20    20    21    1
    21    20    22   ar
    22    22    23   ar
    23    23    24   ar
    24    24    25   ar
    25    25    26    1
    26    26    27    1
    27    27    28    1
    28    28    29    1
    29    29    30    1
    30    25     2   ar
    31    30    28    1
    32    15     4    1
    33    24    18   ar
    34    11     6   ar
    35     7    31    1
    36     8    32    1
    37     9    33    1
    38    10    34    1
    39    15    35    1
    40    17    36    1
    41    19    37    1
    42    22    38    1
    43    23    39    1
    44    26    40    1
    45    26    41    1
    46    27    42    1
    47    27    43    1
    48    28    44    1
    49    29    45    1
    50    29    46    1
    51    30    47    1
    52    30    48    1
