@<TRIPOS>MOLECULE
*****
 71 76 0 0 0
SMALL
GASTEIGER

@<TRIPOS>ATOM
      1 C           4.1007   -2.9480   -1.2386 C.3     1  UNL1       -0.0594
      2 C           2.6603   -2.5579   -1.1228 C.3     1  UNL1       -0.0043
      3 C           2.5266   -1.4543   -0.0499 C.3     1  UNL1       -0.0131
      4 C           2.9689   -0.1417   -0.5831 C.3     1  UNL1        0.0931
      5 O           2.9127    0.9316    0.3610 O.3     1  UNL1       -0.4616
      6 C           3.8050    0.9786    1.4083 C.2     1  UNL1        0.3319
      7 O           4.6255   -0.0558    1.3739 O.2     1  UNL1       -0.2456
      8 C           3.9314    1.9496    2.4159 C.2     1  UNL1        0.0225
      9 C           3.3683    3.0107    2.8677 C.2     1  UNL1       -0.0548
     10 C           2.2565    3.8642    2.6506 C.2     1  UNL1       -0.0548
     11 C           1.2018    4.0425    1.9510 C.2     1  UNL1        0.0225
     12 C           0.3449    3.5799    0.9283 C.2     1  UNL1        0.3322
     13 O          -0.6782    4.4055    0.6107 O.2     1  UNL1       -0.2456
     14 O           0.2460    2.4570    0.1344 O.3     1  UNL1       -0.4575
     15 C          -0.8369    2.2995   -0.7940 C.3     1  UNL1        0.1147
     16 C          -2.0977    2.9426   -0.3252 C.3     1  UNL1        0.0142
     17 C          -3.1803    2.0484   -0.9675 C.3     1  UNL1        0.0942
     18 O          -3.5968    1.2250    0.0786 O.3     1  UNL1       -0.3669
     19 C          -3.1204   -0.0270   -0.1510 C.3     1  UNL1        0.0974
     20 C          -3.6696   -1.0888    0.7388 C.3     1  UNL1        0.1147
     21 O          -4.3794   -0.7340    1.8841 O.3     1  UNL1       -0.3624
     22 C          -3.0697   -1.1002    2.0398 C.3     1  UNL1        0.0958
     23 C          -2.6823   -2.3978    2.6816 C.3     1  UNL1       -0.0333
     24 C          -2.0894    0.0425    2.1732 C.3     1  UNL1       -0.0207
     25 C          -1.0245   -0.1358    1.0715 C.3     1  UNL1       -0.0384
     26 C          -1.5823   -0.0996   -0.2950 C.3     1  UNL1        0.0452
     27 C          -1.3976   -1.5000   -0.9031 C.3     1  UNL1        0.1013
     28 O          -0.1481   -2.0356   -0.6997 O.3     1  UNL1       -0.4622
     29 C           0.2940   -3.2454   -1.0954 C.2     1  UNL1        0.3363
     30 O          -0.4664   -4.0300   -1.7018 O.2     1  UNL1       -0.2479
     31 C           1.7125   -3.6740   -0.8252 C.3     1  UNL1        0.1542
     32 O           2.0246   -4.8852   -1.3858 O.3     1  UNL1       -0.3803
     33 C          -1.1562    0.9302   -1.2342 C.3     1  UNL1        0.0498
     34 C          -0.1224    0.5464   -2.2769 C.3     1  UNL1       -0.0527
     35 C          -2.4680    1.2717   -2.0089 C.3     1  UNL1        0.1282
     36 C          -2.8306    0.8761   -3.2525 C.3     1  UNL1        0.0807
     37 O          -2.1215    2.0723   -3.1601 O.3     1  UNL1       -0.3649
     38 H           4.5206   -3.0176   -0.2132 H       1  UNL1        0.0233
     39 H           4.6469   -2.2464   -1.8749 H       1  UNL1        0.0233
     40 H           4.1597   -3.9790   -1.6812 H       1  UNL1        0.0233
     41 H           2.3335   -2.0382   -2.0622 H       1  UNL1        0.0329
     42 H           3.2217   -1.7660    0.8154 H       1  UNL1        0.0301
     43 H           1.5396   -1.5003    0.3751 H       1  UNL1        0.0301
     44 H           4.0995   -0.2596   -0.8067 H       1  UNL1        0.0697
     45 H           2.5657    0.2024   -1.5210 H       1  UNL1        0.0697
     46 H           4.8932    1.6983    3.0775 H       1  UNL1        0.0689
     47 H           4.0011    3.4410    3.8151 H       1  UNL1        0.0620
     48 H           2.3746    4.7863    3.4622 H       1  UNL1        0.0620
     49 H           0.7114    5.1009    2.3554 H       1  UNL1        0.0689
     50 H          -0.5054    2.8697   -1.6894 H       1  UNL1        0.0741
     51 H          -2.2585    2.9774    0.7654 H       1  UNL1        0.0327
     52 H          -2.2972    3.9411   -0.7754 H       1  UNL1        0.0327
     53 H          -4.0373    2.6333   -1.3259 H       1  UNL1        0.0627
     54 H          -3.4733   -0.3035   -1.1933 H       1  UNL1        0.0630
     55 H          -4.0313   -2.0514    0.3043 H       1  UNL1        0.0651
     56 H          -2.5987   -3.1803    1.8810 H       1  UNL1        0.0258
     57 H          -3.4023   -2.7234    3.4378 H       1  UNL1        0.0258
     58 H          -1.6531   -2.3028    3.1223 H       1  UNL1        0.0258
     59 H          -1.5440   -0.0918    3.1339 H       1  UNL1        0.0294
     60 H          -2.5289    1.0327    2.1370 H       1  UNL1        0.0294
     61 H          -0.6068   -1.1609    1.3241 H       1  UNL1        0.0274
     62 H          -0.2299    0.5501    1.3337 H       1  UNL1        0.0274
     63 H          -2.1495   -2.2146   -0.4631 H       1  UNL1        0.0704
     64 H          -1.6161   -1.4897   -1.9872 H       1  UNL1        0.0704
     65 H           1.7465   -3.8444    0.2999 H       1  UNL1        0.0713
     66 H           1.6623   -5.0002   -2.2985 H       1  UNL1        0.2105
     67 H          -0.5508    0.5609   -3.3095 H       1  UNL1        0.0237
     68 H           0.3674   -0.3851   -2.0258 H       1  UNL1        0.0237
     69 H           0.6805    1.3392   -2.3443 H       1  UNL1        0.0237
     70 H          -2.4159    0.0007   -3.7742 H       1  UNL1        0.0590
     71 H          -3.8867    1.0578   -3.5931 H       1  UNL1        0.0590
@<TRIPOS>BOND
     1     1     2    1
     2     2     3    1
     3     3     4    1
     4     4     5    1
     5     5     6    1
     6     6     7    2
     7     6     8    1
     8     8     9    2
     9     9    10    1
    10    10    11    2
    11    11    12    1
    12    12    13    2
    13    12    14    1
    14    14    15    1
    15    15    16    1
    16    16    17    1
    17    17    18    1
    18    18    19    1
    19    19    20    1
    20    20    21    1
    21    21    22    1
    22    22    23    1
    23    22    24    1
    24    24    25    1
    25    25    26    1
    26    26    27    1
    27    27    28    1
    28    28    29    1
    29    29    30    2
    30    29    31    1
    31    31    32    1
    32    26    33    1
    33    33    34    1
    34    33    35    1
    35    35    36    1
    36    36    37    1
    37    31     2    1
    38    37    35    1
    39    33    15    1
    40    35    17    1
    41    26    19    1
    42    22    20    1
    43     1    38    1
    44     1    39    1
    45     1    40    1
    46     2    41    1
    47     3    42    1
    48     3    43    1
    49     4    44    1
    50     4    45    1
    51     8    46    1
    52     9    47    1
    53    10    48    1
    54    11    49    1
    55    15    50    1
    56    16    51    1
    57    16    52    1
    58    17    53    1
    59    19    54    1
    60    20    55    1
    61    23    56    1
    62    23    57    1
    63    23    58    1
    64    24    59    1
    65    24    60    1
    66    25    61    1
    67    25    62    1
    68    27    63    1
    69    27    64    1
    70    31    65    1
    71    32    66    1
    72    34    67    1
    73    34    68    1
    74    34    69    1
    75    36    70    1
    76    36    71    1
