
     RDKit          3D

 71 76  0  0  0  0  0  0  0  0999 V2000
    4.1007   -2.9480   -1.2386 C   0  0  0  0  0  0  0  0  0  0  0  0
    2.6603   -2.5579   -1.1228 C   0  0  0  0  0  0  0  0  0  0  0  0
    2.5266   -1.4543   -0.0499 C   0  0  0  0  0  0  0  0  0  0  0  0
    2.9689   -0.1417   -0.5831 C   0  0  0  0  0  0  0  0  0  0  0  0
    2.9127    0.9316    0.3610 O   0  0  0  0  0  0  0  0  0  0  0  0
    3.8050    0.9786    1.4083 C   0  0  0  0  0  0  0  0  0  0  0  0
    4.6255   -0.0558    1.3739 O   0  0  0  0  0  0  0  0  0  0  0  0
    3.9314    1.9496    2.4159 C   0  0  0  0  0  0  0  0  0  0  0  0
    3.3683    3.0107    2.8677 C   0  0  0  0  0  0  0  0  0  0  0  0
    2.2565    3.8642    2.6506 C   0  0  0  0  0  0  0  0  0  0  0  0
    1.2018    4.0425    1.9510 C   0  0  0  0  0  0  0  0  0  0  0  0
    0.3449    3.5799    0.9283 C   0  0  0  0  0  0  0  0  0  0  0  0
   -0.6782    4.4055    0.6107 O   0  0  0  0  0  0  0  0  0  0  0  0
    0.2460    2.4570    0.1344 O   0  0  0  0  0  0  0  0  0  0  0  0
   -0.8369    2.2995   -0.7940 C   0  0  0  0  0  0  0  0  0  0  0  0
   -2.0977    2.9426   -0.3252 C   0  0  0  0  0  0  0  0  0  0  0  0
   -3.1803    2.0484   -0.9675 C   0  0  0  0  0  0  0  0  0  0  0  0
   -3.5968    1.2250    0.0786 O   0  0  0  0  0  0  0  0  0  0  0  0
   -3.1204   -0.0270   -0.1510 C   0  0  0  0  0  0  0  0  0  0  0  0
   -3.6696   -1.0888    0.7388 C   0  0  0  0  0  0  0  0  0  0  0  0
   -4.3794   -0.7340    1.8841 O   0  0  0  0  0  0  0  0  0  0  0  0
   -3.0697   -1.1002    2.0398 C   0  0  0  0  0  0  0  0  0  0  0  0
   -2.6823   -2.3978    2.6816 C   0  0  0  0  0  0  0  0  0  0  0  0
   -2.0894    0.0425    2.1732 C   0  0  0  0  0  0  0  0  0  0  0  0
   -1.0245   -0.1358    1.0715 C   0  0  0  0  0  0  0  0  0  0  0  0
   -1.5823   -0.0996   -0.2950 C   0  0  0  0  0  0  0  0  0  0  0  0
   -1.3976   -1.5000   -0.9031 C   0  0  0  0  0  0  0  0  0  0  0  0
   -0.1481   -2.0356   -0.6997 O   0  0  0  0  0  0  0  0  0  0  0  0
    0.2940   -3.2454   -1.0954 C   0  0  0  0  0  0  0  0  0  0  0  0
   -0.4664   -4.0300   -1.7018 O   0  0  0  0  0  0  0  0  0  0  0  0
    1.7125   -3.6740   -0.8252 C   0  0  0  0  0  0  0  0  0  0  0  0
    2.0246   -4.8852   -1.3858 O   0  0  0  0  0  0  0  0  0  0  0  0
   -1.1562    0.9302   -1.2342 C   0  0  0  0  0  0  0  0  0  0  0  0
   -0.1224    0.5464   -2.2769 C   0  0  0  0  0  0  0  0  0  0  0  0
   -2.4680    1.2717   -2.0089 C   0  0  0  0  0  0  0  0  0  0  0  0
   -2.8306    0.8761   -3.2525 C   0  0  0  0  0  0  0  0  0  0  0  0
   -2.1215    2.0723   -3.1601 O   0  0  0  0  0  0  0  0  0  0  0  0
    4.5206   -3.0176   -0.2132 H   0  0  0  0  0  0  0  0  0  0  0  0
    4.6469   -2.2464   -1.8749 H   0  0  0  0  0  0  0  0  0  0  0  0
    4.1597   -3.9790   -1.6812 H   0  0  0  0  0  0  0  0  0  0  0  0
    2.3335   -2.0382   -2.0622 H   0  0  0  0  0  0  0  0  0  0  0  0
    3.2217   -1.7660    0.8154 H   0  0  0  0  0  0  0  0  0  0  0  0
    1.5396   -1.5003    0.3751 H   0  0  0  0  0  0  0  0  0  0  0  0
    4.0995   -0.2596   -0.8067 H   0  0  0  0  0  0  0  0  0  0  0  0
    2.5657    0.2024   -1.5210 H   0  0  0  0  0  0  0  0  0  0  0  0
    4.8932    1.6983    3.0775 H   0  0  0  0  0  0  0  0  0  0  0  0
    4.0011    3.4410    3.8151 H   0  0  0  0  0  0  0  0  0  0  0  0
    2.3746    4.7863    3.4622 H   0  0  0  0  0  0  0  0  0  0  0  0
    0.7114    5.1009    2.3554 H   0  0  0  0  0  0  0  0  0  0  0  0
   -0.5054    2.8697   -1.6894 H   0  0  0  0  0  0  0  0  0  0  0  0
   -2.2585    2.9774    0.7654 H   0  0  0  0  0  0  0  0  0  0  0  0
   -2.2972    3.9411   -0.7754 H   0  0  0  0  0  0  0  0  0  0  0  0
   -4.0373    2.6333   -1.3259 H   0  0  0  0  0  0  0  0  0  0  0  0
   -3.4733   -0.3035   -1.1933 H   0  0  0  0  0  0  0  0  0  0  0  0
   -4.0313   -2.0514    0.3043 H   0  0  0  0  0  0  0  0  0  0  0  0
   -2.5987   -3.1803    1.8810 H   0  0  0  0  0  0  0  0  0  0  0  0
   -3.4023   -2.7234    3.4378 H   0  0  0  0  0  0  0  0  0  0  0  0
   -1.6531   -2.3028    3.1223 H   0  0  0  0  0  0  0  0  0  0  0  0
   -1.5440   -0.0918    3.1339 H   0  0  0  0  0  0  0  0  0  0  0  0
   -2.5289    1.0327    2.1370 H   0  0  0  0  0  0  0  0  0  0  0  0
   -0.6068   -1.1609    1.3241 H   0  0  0  0  0  0  0  0  0  0  0  0
   -0.2299    0.5501    1.3337 H   0  0  0  0  0  0  0  0  0  0  0  0
   -2.1495   -2.2146   -0.4631 H   0  0  0  0  0  0  0  0  0  0  0  0
   -1.6161   -1.4897   -1.9872 H   0  0  0  0  0  0  0  0  0  0  0  0
    1.7465   -3.8444    0.2999 H   0  0  0  0  0  0  0  0  0  0  0  0
    1.6623   -5.0002   -2.2985 H   0  0  0  0  0  0  0  0  0  0  0  0
   -0.5508    0.5609   -3.3095 H   0  0  0  0  0  0  0  0  0  0  0  0
    0.3674   -0.3851   -2.0258 H   0  0  0  0  0  0  0  0  0  0  0  0
    0.6805    1.3392   -2.3443 H   0  0  0  0  0  0  0  0  0  0  0  0
   -2.4159    0.0007   -3.7742 H   0  0  0  0  0  0  0  0  0  0  0  0
   -3.8867    1.0578   -3.5931 H   0  0  0  0  0  0  0  0  0  0  0  0
  1  2  1  0
  2  3  1  0
  3  4  1  0
  4  5  1  0
  5  6  1  0
  6  7  2  0
  6  8  1  0
  8  9  2  0
  9 10  1  0
 10 11  2  0
 11 12  1  0
 12 13  2  0
 12 14  1  0
 14 15  1  0
 15 16  1  0
 16 17  1  0
 17 18  1  0
 18 19  1  0
 19 20  1  0
 20 21  1  0
 21 22  1  0
 22 23  1  0
 22 24  1  0
 24 25  1  0
 25 26  1  0
 26 27  1  0
 27 28  1  0
 28 29  1  0
 29 30  2  0
 29 31  1  0
 31 32  1  0
 26 33  1  0
 33 34  1  0
 33 35  1  0
 35 36  1  0
 36 37  1  0
 31  2  1  0
 37 35  1  0
 33 15  1  0
 35 17  1  0
 26 19  1  0
 22 20  1  0
  1 38  1  0
  1 39  1  0
  1 40  1  0
  2 41  1  0
  3 42  1  0
  3 43  1  0
  4 44  1  0
  4 45  1  0
  8 46  1  0
  9 47  1  0
 10 48  1  0
 11 49  1  0
 15 50  1  0
 16 51  1  0
 16 52  1  0
 17 53  1  0
 19 54  1  0
 20 55  1  0
 23 56  1  0
 23 57  1  0
 23 58  1  0
 24 59  1  0
 24 60  1  0
 25 61  1  0
 25 62  1  0
 27 63  1  0
 27 64  1  0
 31 65  1  0
 32 66  1  0
 34 67  1  0
 34 68  1  0
 34 69  1  0
 36 70  1  0
 36 71  1  0
M  END
$$$$
