
     RDKit          3D

 23 23  0  0  0  0  0  0  0  0999 V2000
    2.6353   -2.1688    0.3455 N   0  0  0  0  0  0  0  0  0  0  0  0
    2.2421   -0.9706    0.0282 C   0  0  0  0  0  0  0  0  0  0  0  0
    1.2889   -0.7303   -1.0563 C   0  0  0  0  0  0  0  0  0  0  0  0
    0.0350   -0.0564   -0.6328 C   0  0  0  0  0  0  0  0  0  0  0  0
   -1.0098   -0.8809   -0.2082 C   0  0  0  0  0  0  0  0  0  0  0  0
   -2.2204   -0.3586    0.2055 C   0  0  0  0  0  0  0  0  0  0  0  0
   -3.2493   -1.2119    0.6259 O   0  0  0  0  0  0  0  0  0  0  0  0
   -2.4271    0.9897    0.2093 C   0  0  0  0  0  0  0  0  0  0  0  0
   -3.6651    1.4840    0.6344 O   0  0  0  0  0  0  0  0  0  0  0  0
   -1.3955    1.8061   -0.2101 C   0  0  0  0  0  0  0  0  0  0  0  0
   -0.1897    1.3037   -0.6231 C   0  0  0  0  0  0  0  0  0  0  0  0
    2.8095    0.1125    0.8194 C   0  0  0  0  0  0  0  0  0  0  0  0
    2.6668    1.4918    0.8160 O   0  0  0  0  0  0  0  0  0  0  0  0
    3.6290   -0.0620    1.7561 O   0  0  0  0  0  0  0  0  0  0  0  0
    2.2581   -2.9682   -0.1896 H   0  0  0  0  0  0  0  0  0  0  0  0
    1.7451   -0.1214   -1.8884 H   0  0  0  0  0  0  0  0  0  0  0  0
    1.0686   -1.7155   -1.5472 H   0  0  0  0  0  0  0  0  0  0  0  0
   -0.9191   -1.9539   -0.1843 H   0  0  0  0  0  0  0  0  0  0  0  0
   -3.2778   -2.1132    0.1347 H   0  0  0  0  0  0  0  0  0  0  0  0
   -4.5246    1.1842    0.1974 H   0  0  0  0  0  0  0  0  0  0  0  0
   -1.5588    2.8875   -0.2080 H   0  0  0  0  0  0  0  0  0  0  0  0
    0.6145    1.9326   -0.9509 H   0  0  0  0  0  0  0  0  0  0  0  0
    3.4443    2.1198    0.6094 H   0  0  0  0  0  0  0  0  0  0  0  0
  1  2  2  3
  2  3  1  0
  3  4  1  0
  4  5  2  0
  5  6  1  0
  6  7  1  0
  6  8  2  0
  8  9  1  0
  8 10  1  0
 10 11  2  0
  2 12  1  0
 12 13  1  0
 12 14  2  0
 11  4  1  0
  1 15  1  0
  3 16  1  0
  3 17  1  0
  5 18  1  0
  7 19  1  0
  9 20  1  0
 10 21  1  0
 11 22  1  0
 13 23  1  0
M  END
$$$$
