@<TRIPOS>MOLECULE
*****
 23 23 0 0 0
SMALL
GASTEIGER

@<TRIPOS>ATOM
      1 N           2.6353   -2.1688    0.3455 N.2     1  UNL1       -0.2969
      2 CA          2.2421   -0.9706    0.0282 C.2     1  UNL1        0.1205
      3 C           1.2889   -0.7303   -1.0563 C.3     1  UNL1        0.0212
      4 C           0.0350   -0.0564   -0.6328 C.ar    1  UNL1       -0.0377
      5 C          -1.0098   -0.8809   -0.2082 C.ar    1  UNL1       -0.0130
      6 C          -2.2204   -0.3586    0.2055 C.ar    1  UNL1        0.1585
      7 O          -3.2493   -1.2119    0.6259 O.3     1  UNL1       -0.5033
      8 C          -2.4271    0.9897    0.2093 C.ar    1  UNL1        0.1582
      9 O          -3.6651    1.4840    0.6344 O.3     1  UNL1       -0.5033
     10 C          -1.3955    1.8061   -0.2101 C.ar    1  UNL1       -0.0163
     11 C          -0.1897    1.3037   -0.6231 C.ar    1  UNL1       -0.0545
     12 C           2.8095    0.1125    0.8194 C.2     1  UNL1        0.3508
     13 O           2.6668    1.4918    0.8160 O.3     1  UNL1       -0.4763
     14 OXT         3.6290   -0.0620    1.7561 O.2     1  UNL1       -0.2438
     15 H           2.2581   -2.9682   -0.1896 H       1  UNL1        0.1866
     16 H           1.7451   -0.1214   -1.8884 H       1  UNL1        0.0379
     17 H           1.0686   -1.7155   -1.5472 H       1  UNL1        0.0379
     18 H          -0.9191   -1.9539   -0.1843 H       1  UNL1        0.0658
     19 H          -3.2778   -2.1132    0.1347 H       1  UNL1        0.2923
     20 H          -4.5246    1.1842    0.1974 H       1  UNL1        0.2923
     21 H          -1.5588    2.8875   -0.2080 H       1  UNL1        0.0655
     22 H           0.6145    1.9326   -0.9509 H       1  UNL1        0.0622
     23 H           3.4443    2.1198    0.6094 H       1  UNL1        0.2954
@<TRIPOS>BOND
     1     1     2    2
     2     2     3    1
     3     3     4    1
     4     4     5   ar
     5     5     6   ar
     6     6     7    1
     7     6     8   ar
     8     8     9    1
     9     8    10   ar
    10    10    11   ar
    11     2    12    1
    12    12    13    1
    13    12    14    2
    14    11     4   ar
    15     1    15    1
    16     3    16    1
    17     3    17    1
    18     5    18    1
    19     7    19    1
    20     9    20    1
    21    10    21    1
    22    11    22    1
    23    13    23    1
