
     RDKit          3D

 55 59  0  0  0  0  0  0  0  0999 V2000
   -7.8632   -1.7186   -0.8681 C   0  0  0  0  0  0  0  0  0  0  0  0
   -7.0172   -0.5805   -1.0834 N   0  0  0  0  0  0  0  0  0  0  0  0
   -5.9325   -0.9373   -1.9346 C   0  0  0  0  0  0  0  0  0  0  0  0
   -4.6857   -1.4044   -1.2282 C   0  0  0  0  0  0  0  0  0  0  0  0
   -4.3588   -0.6787   -0.0443 N   0  0  0  0  0  0  0  0  0  0  0  0
   -5.5257   -0.6393    0.8016 C   0  0  0  0  0  0  0  0  0  0  0  0
   -6.6418    0.1004    0.1105 C   0  0  0  0  0  0  0  0  0  0  0  0
   -3.1174   -0.0913    0.2703 C   0  0  0  0  0  0  0  0  0  0  0  0
   -2.8862    0.6267    1.4241 C   0  0  0  0  0  0  0  0  0  0  0  0
   -1.6779    1.2066    1.7451 C   0  0  0  0  0  0  0  0  0  0  0  0
   -0.6055    1.0869    0.8880 C   0  0  0  0  0  0  0  0  0  0  0  0
   -0.8035    0.3662   -0.2904 C   0  0  0  0  0  0  0  0  0  0  0  0
   -2.0388   -0.1893   -0.5512 C   0  0  0  0  0  0  0  0  0  0  0  0
    0.6787    1.6949    1.2129 C   0  0  0  0  0  0  0  0  0  0  0  0
    1.9104    1.2000    0.8341 C   0  0  0  0  0  0  0  0  0  0  0  0
    3.0420    1.9043    1.2283 C   0  0  0  0  0  0  0  0  0  0  0  0
    2.9531    3.0628    1.9744 C   0  0  0  0  0  0  0  0  0  0  0  0
    4.2149    3.5124    2.1989 N   0  0  0  0  0  0  0  0  0  0  0  0
    5.0421    2.6448    1.6018 C   0  0  0  0  0  0  0  0  0  0  0  0
    4.3662    1.6187    0.9788 C   0  0  0  0  0  0  0  0  0  0  0  0
    4.8599    0.5087    0.2427 N   0  0  0  0  0  0  0  0  0  0  0  0
    6.2237    0.2466    0.0059 C   0  0  0  0  0  0  0  0  0  0  0  0
    7.1009    1.0250    0.4605 O   0  0  0  0  0  0  0  0  0  0  0  0
    6.7077   -0.9010   -0.7543 C   0  0  0  0  0  0  0  0  0  0  0  0
    8.0705   -1.0524   -0.9181 C   0  0  0  0  0  0  0  0  0  0  0  0
    8.6305   -2.0861   -1.6091 N   0  0  0  0  0  0  0  0  0  0  0  0
    7.8216   -3.0203   -2.1691 C   0  0  0  0  0  0  0  0  0  0  0  0
    6.4436   -2.9274   -2.0419 C   0  0  0  0  0  0  0  0  0  0  0  0
    5.9111   -1.8543   -1.3272 C   0  0  0  0  0  0  0  0  0  0  0  0
    1.7284    3.5268    2.3331 N   0  0  0  0  0  0  0  0  0  0  0  0
    0.6130    2.8698    1.9683 C   0  0  0  0  0  0  0  0  0  0  0  0
   -7.5453   -2.6218   -1.4416 H   0  0  0  0  0  0  0  0  0  0  0  0
   -8.8921   -1.4018   -1.2100 H   0  0  0  0  0  0  0  0  0  0  0  0
   -7.8984   -2.0085    0.1960 H   0  0  0  0  0  0  0  0  0  0  0  0
   -5.6501   -0.0381   -2.5389 H   0  0  0  0  0  0  0  0  0  0  0  0
   -6.2161   -1.7330   -2.6756 H   0  0  0  0  0  0  0  0  0  0  0  0
   -3.8586   -1.3570   -1.9563 H   0  0  0  0  0  0  0  0  0  0  0  0
   -4.8982   -2.4827   -0.9635 H   0  0  0  0  0  0  0  0  0  0  0  0
   -5.3735   -0.1296    1.7697 H   0  0  0  0  0  0  0  0  0  0  0  0
   -5.8705   -1.6977    0.9591 H   0  0  0  0  0  0  0  0  0  0  0  0
   -6.3888    1.1434   -0.1076 H   0  0  0  0  0  0  0  0  0  0  0  0
   -7.5226    0.0570    0.8133 H   0  0  0  0  0  0  0  0  0  0  0  0
   -3.6390    0.7859    2.1601 H   0  0  0  0  0  0  0  0  0  0  0  0
   -1.5098    1.7659    2.6512 H   0  0  0  0  0  0  0  0  0  0  0  0
    0.0699    0.3021   -0.9286 H   0  0  0  0  0  0  0  0  0  0  0  0
   -2.0321   -0.7043   -1.4802 H   0  0  0  0  0  0  0  0  0  0  0  0
    1.8940    0.3010    0.2595 H   0  0  0  0  0  0  0  0  0  0  0  0
    4.4482    4.3666    2.7341 H   0  0  0  0  0  0  0  0  0  0  0  0
    6.1121    2.7745    1.6311 H   0  0  0  0  0  0  0  0  0  0  0  0
    4.1866   -0.1749   -0.1613 H   0  0  0  0  0  0  0  0  0  0  0  0
    8.8149   -0.3692   -0.5159 H   0  0  0  0  0  0  0  0  0  0  0  0
    8.2551   -3.8467   -2.7208 H   0  0  0  0  0  0  0  0  0  0  0  0
    5.7587   -3.6340   -2.4619 H   0  0  0  0  0  0  0  0  0  0  0  0
    4.8580   -1.7760   -1.2254 H   0  0  0  0  0  0  0  0  0  0  0  0
   -0.2665    3.3582    2.3252 H   0  0  0  0  0  0  0  0  0  0  0  0
  1  2  1  0
  2  3  1  0
  3  4  1  0
  4  5  1  0
  5  6  1  0
  6  7  1  0
  5  8  1  0
  8  9  2  0
  9 10  1  0
 10 11  2  0
 11 12  1  0
 12 13  2  0
 11 14  1  0
 14 15  2  0
 15 16  1  0
 16 17  2  0
 17 18  1  0
 18 19  1  0
 19 20  2  0
 20 21  1  0
 21 22  1  0
 22 23  2  0
 22 24  1  0
 24 25  2  0
 25 26  1  0
 26 27  2  0
 27 28  1  0
 28 29  2  0
 17 30  1  0
 30 31  2  0
  7  2  1  0
 13  8  1  0
 31 14  1  0
 20 16  1  0
 29 24  1  0
  1 32  1  0
  1 33  1  0
  1 34  1  0
  3 35  1  0
  3 36  1  0
  4 37  1  0
  4 38  1  0
  6 39  1  0
  6 40  1  0
  7 41  1  0
  7 42  1  0
  9 43  1  0
 10 44  1  0
 12 45  1  0
 13 46  1  0
 15 47  1  0
 18 48  1  0
 19 49  1  0
 21 50  1  0
 25 51  1  0
 27 52  1  0
 28 53  1  0
 29 54  1  0
 31 55  1  0
M  END
$$$$
