@<TRIPOS>MOLECULE
*****
 55 59 0 0 0
SMALL
GASTEIGER

@<TRIPOS>ATOM
      1 C          -7.8632   -1.7186   -0.8681 C.3     1  UNL1       -0.0126
      2 N          -7.0172   -0.5805   -1.0834 N.3     1  UNL1       -0.3024
      3 C          -5.9325   -0.9373   -1.9346 C.3     1  UNL1        0.0144
      4 C          -4.6857   -1.4044   -1.2282 C.3     1  UNL1        0.0250
      5 N          -4.3588   -0.6787   -0.0443 N.pl3   1  UNL1       -0.3275
      6 C          -5.5257   -0.6393    0.8016 C.3     1  UNL1        0.0250
      7 C          -6.6418    0.1004    0.1105 C.3     1  UNL1        0.0144
      8 C          -3.1174   -0.0913    0.2703 C.ar    1  UNL1        0.0298
      9 C          -2.8862    0.6267    1.4241 C.ar    1  UNL1       -0.0401
     10 C          -1.6779    1.2066    1.7451 C.ar    1  UNL1       -0.0522
     11 C          -0.6055    1.0869    0.8880 C.ar    1  UNL1       -0.0163
     12 C          -0.8035    0.3662   -0.2904 C.ar    1  UNL1       -0.0522
     13 C          -2.0388   -0.1893   -0.5512 C.ar    1  UNL1       -0.0401
     14 C           0.6787    1.6949    1.2129 C.ar    1  UNL1        0.0010
     15 C           1.9104    1.2000    0.8341 C.ar    1  UNL1       -0.0401
     16 C           3.0420    1.9043    1.2283 C.ar    1  UNL1        0.0404
     17 C           2.9531    3.0628    1.9744 C.ar    1  UNL1        0.1400
     18 N           4.2149    3.5124    2.1989 N.ar    1  UNL1       -0.3440
     19 C           5.0421    2.6448    1.6018 C.ar    1  UNL1        0.0254
     20 C           4.3662    1.6187    0.9788 C.ar    1  UNL1        0.0605
     21 N           4.8599    0.5087    0.2427 N.am    1  UNL1       -0.2797
     22 C           6.2237    0.2466    0.0059 C.2     1  UNL1        0.2498
     23 O           7.1009    1.0250    0.4605 O.2     1  UNL1       -0.2698
     24 C           6.7077   -0.9010   -0.7543 C.ar    1  UNL1        0.0551
     25 C           8.0705   -1.0524   -0.9181 C.ar    1  UNL1        0.0397
     26 N           8.6305   -2.0861   -1.6091 N.ar    1  UNL1       -0.2625
     27 C           7.8216   -3.0203   -2.1691 C.ar    1  UNL1        0.0276
     28 C           6.4436   -2.9274   -2.0419 C.ar    1  UNL1       -0.0429
     29 C           5.9111   -1.8543   -1.3272 C.ar    1  UNL1       -0.0467
     30 N           1.7284    3.5268    2.3331 N.ar    1  UNL1       -0.2368
     31 C           0.6130    2.8698    1.9683 C.ar    1  UNL1        0.0376
     32 H          -7.5453   -2.6218   -1.4416 H       1  UNL1        0.0391
     33 H          -8.8921   -1.4018   -1.2100 H       1  UNL1        0.0391
     34 H          -7.8984   -2.0085    0.1960 H       1  UNL1        0.0391
     35 H          -5.6501   -0.0381   -2.5389 H       1  UNL1        0.0442
     36 H          -6.2161   -1.7330   -2.6756 H       1  UNL1        0.0442
     37 H          -3.8586   -1.3570   -1.9563 H       1  UNL1        0.0476
     38 H          -4.8982   -2.4827   -0.9635 H       1  UNL1        0.0476
     39 H          -5.3735   -0.1296    1.7697 H       1  UNL1        0.0476
     40 H          -5.8705   -1.6977    0.9591 H       1  UNL1        0.0476
     41 H          -6.3888    1.1434   -0.1076 H       1  UNL1        0.0442
     42 H          -7.5226    0.0570    0.8133 H       1  UNL1        0.0442
     43 H          -3.6390    0.7859    2.1601 H       1  UNL1        0.0636
     44 H          -1.5098    1.7659    2.6512 H       1  UNL1        0.0624
     45 H           0.0699    0.3021   -0.9286 H       1  UNL1        0.0624
     46 H          -2.0321   -0.7043   -1.4802 H       1  UNL1        0.0636
     47 H           1.8940    0.3010    0.2595 H       1  UNL1        0.0632
     48 H           4.4482    4.3666    2.7341 H       1  UNL1        0.1668
     49 H           6.1121    2.7745    1.6311 H       1  UNL1        0.0826
     50 H           4.1866   -0.1749   -0.1613 H       1  UNL1        0.1552
     51 H           8.8149   -0.3692   -0.5159 H       1  UNL1        0.0837
     52 H           8.2551   -3.8467   -2.7208 H       1  UNL1        0.0829
     53 H           5.7587   -3.6340   -2.4619 H       1  UNL1        0.0633
     54 H           4.8580   -1.7760   -1.2254 H       1  UNL1        0.0626
     55 H          -0.2665    3.3582    2.3252 H       1  UNL1        0.0836
@<TRIPOS>BOND
     1     1     2    1
     2     2     3    1
     3     3     4    1
     4     4     5    1
     5     5     6    1
     6     6     7    1
     7     5     8    1
     8     8     9   ar
     9     9    10   ar
    10    10    11   ar
    11    11    12   ar
    12    12    13   ar
    13    11    14    1
    14    14    15   ar
    15    15    16   ar
    16    16    17   ar
    17    17    18   ar
    18    18    19   ar
    19    19    20   ar
    20    20    21    1
    21    21    22   am
    22    22    23    2
    23    22    24    1
    24    24    25   ar
    25    25    26   ar
    26    26    27   ar
    27    27    28   ar
    28    28    29   ar
    29    17    30   ar
    30    30    31   ar
    31     7     2    1
    32    13     8   ar
    33    31    14   ar
    34    20    16   ar
    35    29    24   ar
    36     1    32    1
    37     1    33    1
    38     1    34    1
    39     3    35    1
    40     3    36    1
    41     4    37    1
    42     4    38    1
    43     6    39    1
    44     6    40    1
    45     7    41    1
    46     7    42    1
    47     9    43    1
    48    10    44    1
    49    12    45    1
    50    13    46    1
    51    15    47    1
    52    18    48    1
    53    19    49    1
    54    21    50    1
    55    25    51    1
    56    27    52    1
    57    28    53    1
    58    29    54    1
    59    31    55    1
