@<TRIPOS>MOLECULE
*****
 55 58 0 0 0
SMALL
GASTEIGER

@<TRIPOS>ATOM
      1 C          -4.3224    0.1120    0.3389 C.3     1  UNL1        0.0444
      2 C          -3.6933    0.7778    1.5364 C.3     1  UNL1       -0.0425
      3 N          -3.3925    0.0517   -0.8005 N.pl3   1  UNL1       -0.3225
      4 C          -2.1845   -0.6747   -0.5990 C.ar    1  UNL1        0.1212
      5 C          -0.8987   -0.2929   -0.2863 C.ar    1  UNL1        0.0042
      6 C           0.0577   -1.2745   -0.1440 C.ar    1  UNL1        0.0796
      7 C          -0.2295   -2.6264   -0.3039 C.ar    1  UNL1        0.0413
      8 C          -1.5217   -2.9580   -0.6145 C.ar    1  UNL1        0.0406
      9 N          -2.4674   -2.0022   -0.7566 N.ar    1  UNL1       -0.2397
     10 C           0.9697   -3.2679   -0.0840 C.ar    1  UNL1        0.0695
     11 C           1.0924   -4.7536   -0.1609 C.3     1  UNL1       -0.0200
     12 N           1.9033   -2.3468    0.1878 N.ar    1  UNL1       -0.1704
     13 N           1.3587   -1.1206    0.1538 N.ar    1  UNL1       -0.2317
     14 C           2.0798    0.0787    0.3912 C.ar    1  UNL1        0.0663
     15 C           1.7026    1.1706    1.1356 C.ar    1  UNL1       -0.0362
     16 C           2.5010    2.2830    1.2870 C.ar    1  UNL1       -0.0595
     17 C           3.7280    2.2875    0.6596 C.ar    1  UNL1       -0.0584
     18 C           4.1767    1.2230   -0.1077 C.ar    1  UNL1       -0.0449
     19 C           5.5189    1.2927   -0.7610 C.3     1  UNL1       -0.0194
     20 C           6.5886    0.7725    0.1757 C.3     1  UNL1        0.0277
     21 C           7.9457    0.8086   -0.4013 C.2     1  UNL1        0.2108
     22 N           9.1169    0.4124    0.2670 N.am    1  UNL1       -0.3293
     23 O           8.3955    1.1594   -1.5175 O.2     1  UNL1       -0.2760
     24 C           3.3324    0.1250   -0.2285 C.ar    1  UNL1       -0.0331
     25 C          -5.6030    0.7220   -0.0507 C.ar    1  UNL1       -0.0275
     26 C          -6.8195    0.1505    0.2847 C.ar    1  UNL1       -0.0568
     27 C          -8.0703    0.6678   -0.0470 C.ar    1  UNL1       -0.0614
     28 C          -8.0763    1.8591   -0.7765 C.ar    1  UNL1       -0.0617
     29 C          -6.8601    2.4393   -1.1172 C.ar    1  UNL1       -0.0614
     30 C          -5.6475    1.8890   -0.7657 C.ar    1  UNL1       -0.0568
     31 H          -4.5420   -0.9553    0.6531 H       1  UNL1        0.0545
     32 H          -4.5030    0.8408    2.3152 H       1  UNL1        0.0251
     33 H          -3.3047    1.7862    1.3016 H       1  UNL1        0.0251
     34 H          -2.8933    0.1454    1.9671 H       1  UNL1        0.0251
     35 H          -3.6741    0.5414   -1.6785 H       1  UNL1        0.1480
     36 H          -0.8074    0.7590   -0.1926 H       1  UNL1        0.0673
     37 H          -1.7090   -4.0259   -0.7323 H       1  UNL1        0.0837
     38 H           1.4174   -5.1284   -1.1338 H       1  UNL1        0.0293
     39 H           1.7623   -5.0634    0.6873 H       1  UNL1        0.0293
     40 H           0.1132   -5.2522    0.0449 H       1  UNL1        0.0293
     41 H           0.7447    1.0971    1.5930 H       1  UNL1        0.0639
     42 H           2.1163    3.0944    1.8941 H       1  UNL1        0.0618
     43 H           4.3170    3.1746    0.8058 H       1  UNL1        0.0620
     44 H           5.7297    2.2963   -1.1227 H       1  UNL1        0.0318
     45 H           5.5326    0.5948   -1.6392 H       1  UNL1        0.0318
     46 H           6.6261    1.4135    1.1004 H       1  UNL1        0.0361
     47 H           6.3128   -0.2692    0.4919 H       1  UNL1        0.0361
     48 H           9.6128   -0.2863    0.8497 H       1  UNL1        0.1449
     49 H           9.2305   -0.4703    0.8084 H       1  UNL1        0.1449
     50 H           3.7568   -0.6565   -0.8413 H       1  UNL1        0.0641
     51 H          -6.7995   -0.7797    0.8525 H       1  UNL1        0.0621
     52 H          -8.9752    0.1347    0.2673 H       1  UNL1        0.0618
     53 H          -9.0387    2.2743   -1.0425 H       1  UNL1        0.0618
     54 H          -6.9742    3.3567   -1.6809 H       1  UNL1        0.0618
     55 H          -4.7325    2.4131   -1.0759 H       1  UNL1        0.0621
@<TRIPOS>BOND
     1     1     2    1
     2     1     3    1
     3     3     4    1
     4     4     5   ar
     5     5     6   ar
     6     6     7   ar
     7     7     8   ar
     8     8     9   ar
     9     7    10   ar
    10    10    11    1
    11    10    12   ar
    12    12    13   ar
    13    13    14    1
    14    14    15   ar
    15    15    16   ar
    16    16    17   ar
    17    17    18   ar
    18    18    19    1
    19    19    20    1
    20    20    21    1
    21    21    22   am
    22    21    23    2
    23    18    24   ar
    24     1    25    1
    25    25    26   ar
    26    26    27   ar
    27    27    28   ar
    28    28    29   ar
    29    29    30   ar
    30     9     4   ar
    31    24    14   ar
    32    30    25   ar
    33    13     6   ar
    34     1    31    1
    35     2    32    1
    36     2    33    1
    37     2    34    1
    38     3    35    1
    39     5    36    1
    40     8    37    1
    41    11    38    1
    42    11    39    1
    43    11    40    1
    44    15    41    1
    45    16    42    1
    46    17    43    1
    47    19    44    1
    48    19    45    1
    49    20    46    1
    50    20    47    1
    51    22    48    1
    52    22    49    1
    53    24    50    1
    54    26    51    1
    55    27    52    1
    56    28    53    1
    57    29    54    1
    58    30    55    1
