
     RDKit          3D

 48 52  0  0  0  0  0  0  0  0999 V2000
   -7.5692    0.1786    2.5896 C   0  0  0  0  0  0  0  0  0  0  0  0
   -6.2768    0.4893    1.8231 C   0  0  0  0  0  0  0  0  0  0  0  0
   -5.6832    0.1383    0.8728 N   0  0  0  0  0  0  0  0  0  0  0  0
   -4.5366    0.5920    0.4088 C   0  0  0  0  0  0  0  0  0  0  0  0
   -3.9083    0.0381   -0.8174 C   0  0  0  0  0  0  0  0  0  0  0  0
   -4.4973   -0.1741   -2.0067 N   0  0  0  0  0  0  0  0  0  0  0  0
   -3.6057   -0.6823   -2.8378 N   0  0  0  0  0  0  0  0  0  0  0  0
   -2.4217   -0.8103   -2.2084 C   0  0  0  0  0  0  0  0  0  0  0  0
   -2.6344   -0.3542   -0.9482 N   0  0  0  0  0  0  0  0  0  0  0  0
   -1.5162   -0.3679   -0.0189 C   0  0  0  0  0  0  0  0  0  0  0  0
   -0.3101    0.1163   -0.8488 C   0  0  0  0  0  0  0  0  0  0  0  0
   -0.0383   -0.9154   -1.8078 N   0  0  0  0  0  0  0  0  0  0  0  0
    1.2346   -1.5166   -1.9041 C   0  0  0  0  0  0  0  0  0  0  0  0
    1.4278   -2.4311   -2.7688 O   0  0  0  0  0  0  0  0  0  0  0  0
    2.2937   -1.0839   -1.0213 C   0  0  0  0  0  0  0  0  0  0  0  0
    3.4257   -0.5021   -1.5636 C   0  0  0  0  0  0  0  0  0  0  0  0
    4.4431   -0.0942   -0.6970 C   0  0  0  0  0  0  0  0  0  0  0  0
    4.3474   -0.2536    0.6559 C   0  0  0  0  0  0  0  0  0  0  0  0
    5.4258    0.1766    1.5469 C   0  0  0  0  0  0  0  0  0  0  0  0
    5.4775    0.1349    2.9117 C   0  0  0  0  0  0  0  0  0  0  0  0
    6.5680    0.5931    3.5271 C   0  0  0  0  0  0  0  0  0  0  0  0
    7.5928    1.0862    2.7822 C   0  0  0  0  0  0  0  0  0  0  0  0
    6.9518    0.8805    1.0934 S   0  0  0  0  0  0  0  0  0  0  0  0
    3.2182   -0.8304    1.1594 C   0  0  0  0  0  0  0  0  0  0  0  0
    2.1756   -1.2541    0.3301 C   0  0  0  0  0  0  0  0  0  0  0  0
   -1.1003   -1.3253   -2.6771 C   0  0  2  0  0  0  0  0  0  0  0  0
   -0.8977   -0.7616   -4.0764 C   0  0  0  0  0  0  0  0  0  0  0  0
   -3.9711    1.5917    1.1198 C   0  0  0  0  0  0  0  0  0  0  0  0
   -5.1975    1.8231    2.4846 S   0  0  0  0  0  0  0  0  0  0  0  0
   -7.4725    0.4697    3.6392 H   0  0  0  0  0  0  0  0  0  0  0  0
   -8.3373    0.7369    2.0299 H   0  0  0  0  0  0  0  0  0  0  0  0
   -7.7729   -0.9047    2.4315 H   0  0  0  0  0  0  0  0  0  0  0  0
   -1.2393   -1.3993    0.2937 H   0  0  0  0  0  0  0  0  0  0  0  0
   -1.6016    0.3336    0.8088 H   0  0  0  0  0  0  0  0  0  0  0  0
   -0.7207    1.0056   -1.4064 H   0  0  0  0  0  0  0  0  0  0  0  0
    0.5195    0.4235   -0.2171 H   0  0  0  0  0  0  0  0  0  0  0  0
    3.5149   -0.3696   -2.6218 H   0  0  0  0  0  0  0  0  0  0  0  0
    5.3098    0.3536   -1.1508 H   0  0  0  0  0  0  0  0  0  0  0  0
    4.5761   -0.2908    3.4461 H   0  0  0  0  0  0  0  0  0  0  0  0
    6.6659    0.5846    4.6414 H   0  0  0  0  0  0  0  0  0  0  0  0
    8.5920    1.5196    3.0295 H   0  0  0  0  0  0  0  0  0  0  0  0
    3.1174   -0.9688    2.2158 H   0  0  0  0  0  0  0  0  0  0  0  0
    1.2803   -1.7099    0.7167 H   0  0  0  0  0  0  0  0  0  0  0  0
   -1.1456   -2.4406   -2.8034 H   0  0  0  0  0  0  0  0  0  0  0  0
   -1.0758    0.3363   -3.9989 H   0  0  0  0  0  0  0  0  0  0  0  0
   -1.6571   -1.2096   -4.7452 H   0  0  0  0  0  0  0  0  0  0  0  0
    0.0882   -1.0148   -4.4735 H   0  0  0  0  0  0  0  0  0  0  0  0
   -3.0587    2.2103    1.0615 H   0  0  0  0  0  0  0  0  0  0  0  0
  1  2  1  0
  2  3  2  0
  3  4  1  0
  4  5  1  0
  5  6  2  0
  6  7  1  0
  7  8  2  0
  8  9  1  0
  9 10  1  0
 10 11  1  0
 11 12  1  0
 12 13  1  0
 13 14  2  0
 13 15  1  0
 15 16  2  0
 16 17  1  0
 17 18  2  0
 18 19  1  0
 19 20  2  0
 20 21  1  0
 21 22  2  0
 22 23  1  0
 18 24  1  0
 24 25  2  0
 12 26  1  0
 26 27  1  0
  4 28  2  0
 28 29  1  0
 29  2  1  0
  9  5  1  0
 25 15  1  0
 26  8  1  0
 23 19  1  0
  1 30  1  0
  1 31  1  0
  1 32  1  0
 10 33  1  0
 10 34  1  0
 11 35  1  0
 11 36  1  0
 16 37  1  0
 17 38  1  0
 20 39  1  0
 21 40  1  0
 22 41  1  0
 24 42  1  0
 25 43  1  0
 26 44  1  6
 27 45  1  0
 27 46  1  0
 27 47  1  0
 28 48  1  0
M  END
$$$$
