@<TRIPOS>MOLECULE
*****
 48 52 0 0 0
SMALL
GASTEIGER

@<TRIPOS>ATOM
      1 C          -7.5692    0.1786    2.5896 C.3     1  UNL1       -0.0159
      2 C          -6.2768    0.4893    1.8231 C.ar    1  UNL1        0.0760
      3 N          -5.6832    0.1383    0.8728 N.ar    1  UNL1       -0.2412
      4 C          -4.5366    0.5920    0.4088 C.ar    1  UNL1        0.1154
      5 C          -3.9083    0.0381   -0.8174 C.ar    1  UNL1        0.1832
      6 N          -4.4973   -0.1741   -2.0067 N.ar    1  UNL1       -0.1275
      7 N          -3.6057   -0.6823   -2.8378 N.ar    1  UNL1       -0.1320
      8 C          -2.4217   -0.8103   -2.2084 C.ar    1  UNL1        0.1542
      9 N          -2.6344   -0.3542   -0.9482 N.ar    1  UNL1       -0.3066
     10 C          -1.5162   -0.3679   -0.0189 C.3     1  UNL1        0.0423
     11 C          -0.3101    0.1163   -0.8488 C.3     1  UNL1        0.0338
     12 N          -0.0383   -0.9154   -1.8078 N.am    1  UNL1       -0.2860
     13 C           1.2346   -1.5166   -1.9041 C.2     1  UNL1        0.2472
     14 O           1.4278   -2.4311   -2.7688 O.2     1  UNL1       -0.2700
     15 C           2.2937   -1.0839   -1.0213 C.ar    1  UNL1        0.0370
     16 C           3.4257   -0.5021   -1.5636 C.ar    1  UNL1       -0.0490
     17 C           4.4431   -0.0942   -0.6970 C.ar    1  UNL1       -0.0528
     18 C           4.3474   -0.2536    0.6559 C.ar    1  UNL1       -0.0113
     19 C           5.4258    0.1766    1.5469 C.ar    1  UNL1        0.0193
     20 C           5.4775    0.1349    2.9117 C.ar    1  UNL1       -0.0469
     21 C           6.5680    0.5931    3.5271 C.ar    1  UNL1       -0.0541
     22 C           7.5928    1.0862    2.7822 C.ar    1  UNL1       -0.0237
     23 S           6.9518    0.8805    1.0934 S.2     1  UNL1       -0.0967
     24 C           3.2182   -0.8304    1.1594 C.ar    1  UNL1       -0.0528
     25 C           2.1756   -1.2541    0.3301 C.ar    1  UNL1       -0.0490
     26 C          -1.1003   -1.3253   -2.6771 C.3     1  UNL1        0.0834
     27 C          -0.8977   -0.7616   -4.0764 C.3     1  UNL1       -0.0393
     28 C          -3.9711    1.5917    1.1198 C.ar    1  UNL1        0.0064
     29 S          -5.1975    1.8231    2.4846 S.2     1  UNL1       -0.0801
     30 H          -7.4725    0.4697    3.6392 H       1  UNL1        0.0298
     31 H          -8.3373    0.7369    2.0299 H       1  UNL1        0.0298
     32 H          -7.7729   -0.9047    2.4315 H       1  UNL1        0.0298
     33 H          -1.2393   -1.3993    0.2937 H       1  UNL1        0.0508
     34 H          -1.6016    0.3336    0.8088 H       1  UNL1        0.0508
     35 H          -0.7207    1.0056   -1.4064 H       1  UNL1        0.0482
     36 H           0.5195    0.4235   -0.2171 H       1  UNL1        0.0482
     37 H           3.5149   -0.3696   -2.6218 H       1  UNL1        0.0625
     38 H           5.3098    0.3536   -1.1508 H       1  UNL1        0.0624
     39 H           4.5761   -0.2908    3.4461 H       1  UNL1        0.0629
     40 H           6.6659    0.5846    4.6414 H       1  UNL1        0.0623
     41 H           8.5920    1.5196    3.0295 H       1  UNL1        0.0693
     42 H           3.1174   -0.9688    2.2158 H       1  UNL1        0.0624
     43 H           1.2803   -1.7099    0.7167 H       1  UNL1        0.0625
     44 H          -1.1456   -2.4406   -2.8034 H       1  UNL1        0.0579
     45 H          -1.0758    0.3363   -3.9989 H       1  UNL1        0.0252
     46 H          -1.6571   -1.2096   -4.7452 H       1  UNL1        0.0252
     47 H           0.0882   -1.0148   -4.4735 H       1  UNL1        0.0252
     48 H          -3.0587    2.2103    1.0615 H       1  UNL1        0.0716
@<TRIPOS>BOND
     1     1     2    1
     2     2     3   ar
     3     3     4   ar
     4     4     5    1
     5     5     6   ar
     6     6     7   ar
     7     7     8   ar
     8     8     9   ar
     9     9    10    1
    10    10    11    1
    11    11    12    1
    12    12    13   am
    13    13    14    2
    14    13    15    1
    15    15    16   ar
    16    16    17   ar
    17    17    18   ar
    18    18    19    1
    19    19    20   ar
    20    20    21   ar
    21    21    22   ar
    22    22    23   ar
    23    18    24   ar
    24    24    25   ar
    25    12    26    1
    26    26    27    1
    27     4    28   ar
    28    28    29   ar
    29    29     2   ar
    30     9     5   ar
    31    25    15   ar
    32    26     8    1
    33    23    19   ar
    34     1    30    1
    35     1    31    1
    36     1    32    1
    37    10    33    1
    38    10    34    1
    39    11    35    1
    40    11    36    1
    41    16    37    1
    42    17    38    1
    43    20    39    1
    44    21    40    1
    45    22    41    1
    46    24    42    1
    47    25    43    1
    48    26    44    1
    49    27    45    1
    50    27    46    1
    51    27    47    1
    52    28    48    1
