@<TRIPOS>MOLECULE
*****
 56 60 0 0 0
SMALL
GASTEIGER

@<TRIPOS>ATOM
      1 C          -0.4262   -0.1792    2.0586 C.3     1  UNL1       -0.0351
      2 C          -0.5048    1.1738    1.2389 C.3     1  UNL1        0.0935
      3 C           0.9081    1.4257    0.8695 C.ar    1  UNL1        0.0158
      4 C           1.8701    0.4072    0.8847 C.ar    1  UNL1       -0.0463
      5 C           3.1817    0.6055    0.5059 C.ar    1  UNL1       -0.0217
      6 C           4.1352   -0.5026    0.5480 C.2     1  UNL1       -0.0172
      7 C           5.0587   -0.6767   -0.3582 C.2     1  UNL1        0.1492
      8 F           5.0714    0.2650   -1.3662 F       1  UNL1       -0.2032
      9 C           6.0385   -1.7529   -0.3847 C.ar    1  UNL1        0.0990
     10 C           6.0982   -2.7366    0.5539 C.ar    1  UNL1       -0.0321
     11 C           7.0427   -3.7596    0.5146 C.ar    1  UNL1       -0.0398
     12 C           7.9708   -3.8014   -0.5108 C.ar    1  UNL1        0.0591
     13 CL          9.1880   -5.0496   -0.6400 Cl      1  UNL1       -0.0820
     14 C           7.8789   -2.7735   -1.4571 C.ar    1  UNL1        0.0466
     15 N           6.9476   -1.8075   -1.3748 N.ar    1  UNL1       -0.2512
     16 C           3.5064    1.8843    0.1028 C.ar    1  UNL1       -0.0518
     17 C           2.5792    2.8991    0.0803 C.ar    1  UNL1       -0.0255
     18 C           1.2658    2.6922    0.4626 C.ar    1  UNL1        0.1289
     19 F           0.3834    3.7513    0.4632 F       1  UNL1       -0.2051
     20 N          -0.8459    2.0893    2.2801 N.2     1  UNL1       -0.2521
     21 C          -1.7456    2.9536    2.3536 C.2     1  UNL1        0.1485
     22 N          -1.8556    3.7354    3.5290 N.pl3   1  UNL1       -0.3380
     23 S          -2.8288    3.1409    0.9617 S.3     1  UNL1       -0.0746
     24 C          -2.5859    1.6943   -0.0811 C.3     1  UNL1        0.1055
     25 C          -3.8390    1.0510   -0.5293 C.2     1  UNL1        0.2341
     26 O          -4.8999    1.7490   -0.4969 O.2     1  UNL1       -0.2739
     27 N          -3.9824   -0.2665   -0.9930 N.am    1  UNL1       -0.2843
     28 C          -5.2784   -0.7613   -1.3968 C.ar    1  UNL1        0.0334
     29 C          -6.0978   -1.3761   -0.4760 C.ar    1  UNL1       -0.0405
     30 C          -7.3413   -1.8563   -0.8351 C.ar    1  UNL1       -0.0600
     31 C          -7.7883   -1.7281   -2.1308 C.ar    1  UNL1       -0.0616
     32 C          -6.9890   -1.1138   -3.0852 C.ar    1  UNL1       -0.0600
     33 C          -5.7340   -0.6371   -2.6922 C.ar    1  UNL1       -0.0405
     34 C          -1.4999    1.7276   -1.1258 C.3     1  UNL1       -0.0220
     35 C          -1.3627    0.9292    0.1178 C.3     1  UNL1        0.0135
     36 H          -1.3773   -0.1945    2.6442 H       1  UNL1        0.0256
     37 H           0.3977   -0.0534    2.7526 H       1  UNL1        0.0256
     38 H          -0.3793   -1.0200    1.3622 H       1  UNL1        0.0256
     39 H           1.5828   -0.5990    1.2083 H       1  UNL1        0.0628
     40 H           4.0899   -1.2358    1.3737 H       1  UNL1        0.0653
     41 H           5.4030   -2.7626    1.3795 H       1  UNL1        0.0640
     42 H           7.0756   -4.5393    1.2747 H       1  UNL1        0.0633
     43 H           8.6042   -2.8069   -2.2567 H       1  UNL1        0.0844
     44 H           4.4972    2.1151   -0.1998 H       1  UNL1        0.0624
     45 H           2.8351    3.9154   -0.2400 H       1  UNL1        0.0646
     46 H          -1.4134    4.6689    3.5932 H       1  UNL1        0.1442
     47 H          -2.3864    3.3683    4.3366 H       1  UNL1        0.1442
     48 H          -3.1450   -0.8755   -1.0417 H       1  UNL1        0.1548
     49 H          -5.7507   -1.4839    0.5599 H       1  UNL1        0.0636
     50 H          -7.9842   -2.3410   -0.1060 H       1  UNL1        0.0618
     51 H          -8.7652   -2.1075   -2.4079 H       1  UNL1        0.0618
     52 H          -7.3321   -1.0088   -4.1048 H       1  UNL1        0.0618
     53 H          -5.1131   -0.1569   -3.4441 H       1  UNL1        0.0636
     54 H          -1.1210    2.7198   -1.3137 H       1  UNL1        0.0287
     55 H          -1.7170    1.1919   -2.1060 H       1  UNL1        0.0287
     56 H          -1.5199   -0.1898   -0.1130 H       1  UNL1        0.0346
@<TRIPOS>BOND
     1     2     1    1
     2     2     3    1
     3     3     4   ar
     4     4     5   ar
     5     5     6    1
     6     6     7    2
     7     7     8    1
     8     7     9    1
     9     9    10   ar
    10    10    11   ar
    11    11    12   ar
    12    12    13    1
    13    12    14   ar
    14    14    15   ar
    15     5    16   ar
    16    16    17   ar
    17    17    18   ar
    18    18    19    1
    19     2    20    1
    20    20    21    2
    21    21    22    1
    22    21    23    1
    23    23    24    1
    24    24    25    1
    25    25    26    2
    26    25    27   am
    27    27    28    1
    28    28    29   ar
    29    29    30   ar
    30    30    31   ar
    31    31    32   ar
    32    32    33   ar
    33    24    34    1
    34    34    35    1
    35    35     2    1
    36    18     3   ar
    37    35    24    1
    38    15     9   ar
    39    33    28   ar
    40     1    36    1
    41     1    37    1
    42     1    38    1
    43     4    39    1
    44     6    40    1
    45    10    41    1
    46    11    42    1
    47    14    43    1
    48    16    44    1
    49    17    45    1
    50    22    46    1
    51    22    47    1
    52    27    48    1
    53    29    49    1
    54    30    50    1
    55    31    51    1
    56    32    52    1
    57    33    53    1
    58    34    54    1
    59    34    55    1
    60    35    56    1
