
     RDKit          3D

 53 57  0  0  0  0  0  0  0  0999 V2000
    4.3774    2.1644   -0.9887 O   0  0  0  0  0  0  0  0  0  0  0  0
    4.8005    1.1878   -1.6837 C   0  0  0  0  0  0  0  0  0  0  0  0
    4.6494   -0.1090   -1.1478 N   0  0  0  0  0  0  0  0  0  0  0  0
    4.0471   -0.3139    0.1207 C   0  0  0  0  0  0  0  0  0  0  0  0
    4.6984   -0.3445    1.3165 N   0  0  0  0  0  0  0  0  0  0  0  0
    3.8362   -0.5575    2.3143 C   0  0  0  0  0  0  0  0  0  0  0  0
    3.9469   -0.6780    3.6912 C   0  0  0  0  0  0  0  0  0  0  0  0
    2.8209   -0.9038    4.4617 C   0  0  0  0  0  0  0  0  0  0  0  0
    1.6050   -1.0038    3.8304 C   0  0  0  0  0  0  0  0  0  0  0  0
    1.5123   -0.8800    2.4440 C   0  0  0  0  0  0  0  0  0  0  0  0
    0.2076   -0.9905    1.7984 C   0  0  0  0  0  0  0  0  0  0  0  0
   -0.8941   -0.3393    2.3134 C   0  0  0  0  0  0  0  0  0  0  0  0
   -2.1376   -0.4303    1.7183 C   0  0  0  0  0  0  0  0  0  0  0  0
   -2.3351   -1.1798    0.5772 C   0  0  0  0  0  0  0  0  0  0  0  0
   -3.6641   -1.2932   -0.0830 C   0  0  0  0  0  0  0  0  0  0  0  0
   -3.9029   -0.2974   -1.0754 N   0  0  0  0  0  0  0  0  0  0  0  0
   -5.1941   -0.4952   -1.6464 C   0  0  0  0  0  0  0  0  0  0  0  0
   -6.3010    0.2709   -0.9471 C   0  0  0  0  0  0  0  0  0  0  0  0
   -5.9943    2.0035   -1.3302 S   0  0  0  0  0  6  0  0  0  0  0  0
   -6.3136    2.8670   -0.1390 O   0  0  0  0  0  0  0  0  0  0  0  0
   -6.7003    2.4255   -2.5621 O   0  0  0  0  0  0  0  0  0  0  0  0
   -4.2126    2.0770   -1.5774 C   0  0  0  0  0  0  0  0  0  0  0  0
   -3.6398    1.0379   -0.6246 C   0  0  0  0  0  0  0  0  0  0  0  0
   -1.2293   -1.8366    0.0559 C   0  0  0  0  0  0  0  0  0  0  0  0
    0.0093   -1.7401    0.6569 C   0  0  0  0  0  0  0  0  0  0  0  0
    2.6236   -0.6629    1.7423 N   0  0  0  0  0  0  0  0  0  0  0  0
    2.7512   -0.5163    0.4237 N   0  0  0  0  0  0  0  0  0  0  0  0
    5.4128    1.4789   -2.9875 C   0  0  0  0  0  0  0  0  0  0  0  0
    6.7354    0.7019   -3.2481 C   0  0  0  0  0  0  0  0  0  0  0  0
    5.5069    0.4400   -4.0432 C   0  0  0  0  0  0  0  0  0  0  0  0
    4.9788   -0.9399   -1.6767 H   0  0  0  0  0  0  0  0  0  0  0  0
    4.9312   -0.5872    4.1019 H   0  0  0  0  0  0  0  0  0  0  0  0
    2.9528   -0.9909    5.5276 H   0  0  0  0  0  0  0  0  0  0  0  0
    0.7067   -1.1802    4.4067 H   0  0  0  0  0  0  0  0  0  0  0  0
   -0.7408    0.2557    3.2179 H   0  0  0  0  0  0  0  0  0  0  0  0
   -2.9859    0.0940    2.1483 H   0  0  0  0  0  0  0  0  0  0  0  0
   -3.7706   -2.2958   -0.5928 H   0  0  0  0  0  0  0  0  0  0  0  0
   -4.4860   -1.2666    0.6595 H   0  0  0  0  0  0  0  0  0  0  0  0
   -5.4729   -1.5815   -1.5457 H   0  0  0  0  0  0  0  0  0  0  0  0
   -5.2234   -0.2395   -2.7361 H   0  0  0  0  0  0  0  0  0  0  0  0
   -6.2893    0.0835    0.1261 H   0  0  0  0  0  0  0  0  0  0  0  0
   -7.2604   -0.0583   -1.3803 H   0  0  0  0  0  0  0  0  0  0  0  0
   -3.9625    1.7349   -2.6194 H   0  0  0  0  0  0  0  0  0  0  0  0
   -3.8157    3.0662   -1.3637 H   0  0  0  0  0  0  0  0  0  0  0  0
   -2.5817    1.2522   -0.4956 H   0  0  0  0  0  0  0  0  0  0  0  0
   -4.1411    1.2136    0.3721 H   0  0  0  0  0  0  0  0  0  0  0  0
   -1.3860   -2.4227   -0.8373 H   0  0  0  0  0  0  0  0  0  0  0  0
    0.8836   -2.2588    0.2455 H   0  0  0  0  0  0  0  0  0  0  0  0
    5.4692    2.5292   -3.2867 H   0  0  0  0  0  0  0  0  0  0  0  0
    7.5733    1.2708   -3.6825 H   0  0  0  0  0  0  0  0  0  0  0  0
    7.0587   -0.0066   -2.4615 H   0  0  0  0  0  0  0  0  0  0  0  0
    5.5079    0.7893   -5.0956 H   0  0  0  0  0  0  0  0  0  0  0  0
    5.0322   -0.5446   -3.8714 H   0  0  0  0  0  0  0  0  0  0  0  0
  1  2  2  0
  2  3  1  0
  3  4  1  0
  4  5  1  0
  5  6  2  0
  6  7  1  0
  7  8  2  0
  8  9  1  0
  9 10  2  0
 10 11  1  0
 11 12  2  0
 12 13  1  0
 13 14  2  0
 14 15  1  0
 15 16  1  0
 16 17  1  0
 17 18  1  0
 18 19  1  0
 19 20  2  0
 19 21  2  0
 19 22  1  0
 22 23  1  0
 14 24  1  0
 24 25  2  0
 10 26  1  0
 26 27  1  0
  2 28  1  0
 28 29  1  0
 29 30  1  0
 27  4  2  0
 30 28  1  0
 26  6  1  0
 25 11  1  0
 23 16  1  0
  3 31  1  0
  7 32  1  0
  8 33  1  0
  9 34  1  0
 12 35  1  0
 13 36  1  0
 15 37  1  0
 15 38  1  0
 17 39  1  0
 17 40  1  0
 18 41  1  0
 18 42  1  0
 22 43  1  0
 22 44  1  0
 23 45  1  0
 23 46  1  0
 24 47  1  0
 25 48  1  0
 28 49  1  0
 29 50  1  0
 29 51  1  0
 30 52  1  0
 30 53  1  0
M  END
$$$$
