@<TRIPOS>MOLECULE
*****
 53 57 0 0 0
SMALL
GASTEIGER

@<TRIPOS>ATOM
      1 O           4.3774    2.1644   -0.9887 O.2     1  UNL1       -0.2751
      2 C           4.8005    1.1878   -1.6837 C.2     1  UNL1        0.2225
      3 N           4.6494   -0.1090   -1.1478 N.am    1  UNL1       -0.2530
      4 C           4.0471   -0.3139    0.1207 C.ar    1  UNL1        0.2416
      5 N           4.6984   -0.3445    1.3165 N.ar    1  UNL1       -0.1938
      6 C           3.8362   -0.5575    2.3143 C.ar    1  UNL1        0.1583
      7 C           3.9469   -0.6780    3.6912 C.ar    1  UNL1       -0.0173
      8 C           2.8209   -0.9038    4.4617 C.ar    1  UNL1       -0.0562
      9 C           1.6050   -1.0038    3.8304 C.ar    1  UNL1       -0.0355
     10 C           1.5123   -0.8800    2.4440 C.ar    1  UNL1        0.0749
     11 C           0.2076   -0.9905    1.7984 C.ar    1  UNL1        0.0005
     12 C          -0.8941   -0.3393    2.3134 C.ar    1  UNL1       -0.0523
     13 C          -2.1376   -0.4303    1.7183 C.ar    1  UNL1       -0.0567
     14 C          -2.3351   -1.1798    0.5772 C.ar    1  UNL1       -0.0333
     15 C          -3.6641   -1.2932   -0.0830 C.3     1  UNL1        0.0241
     16 N          -3.9029   -0.2974   -1.0754 N.3     1  UNL1       -0.2951
     17 C          -5.1941   -0.4952   -1.6464 C.3     1  UNL1        0.0187
     18 C          -6.3010    0.2709   -0.9471 C.3     1  UNL1        0.0785
     19 S          -5.9943    2.0035   -1.3302 S.O2    1  UNL1       -0.0286
     20 O          -6.3136    2.8670   -0.1390 O.2     1  UNL1       -0.1743
     21 O          -6.7003    2.4255   -2.5621 O.2     1  UNL1       -0.1743
     22 C          -4.2126    2.0770   -1.5774 C.3     1  UNL1        0.0785
     23 C          -3.6398    1.0379   -0.6246 C.3     1  UNL1        0.0187
     24 C          -1.2293   -1.8366    0.0559 C.ar    1  UNL1       -0.0567
     25 C           0.0093   -1.7401    0.6569 C.ar    1  UNL1       -0.0523
     26 N           2.6236   -0.6629    1.7423 N.ar    1  UNL1       -0.2108
     27 N           2.7512   -0.5163    0.4237 N.ar    1  UNL1       -0.1281
     28 C           5.4128    1.4789   -2.9875 C.3     1  UNL1        0.0360
     29 C           6.7354    0.7019   -3.2481 C.3     1  UNL1       -0.0412
     30 C           5.5069    0.4400   -4.0432 C.3     1  UNL1       -0.0412
     31 H           4.9788   -0.9399   -1.6767 H       1  UNL1        0.1578
     32 H           4.9312   -0.5872    4.1019 H       1  UNL1        0.0655
     33 H           2.9528   -0.9909    5.5276 H       1  UNL1        0.0619
     34 H           0.7067   -1.1802    4.4067 H       1  UNL1        0.0639
     35 H          -0.7408    0.2557    3.2179 H       1  UNL1        0.0624
     36 H          -2.9859    0.0940    2.1483 H       1  UNL1        0.0621
     37 H          -3.7706   -2.2958   -0.5928 H       1  UNL1        0.0476
     38 H          -4.4860   -1.2666    0.6595 H       1  UNL1        0.0476
     39 H          -5.4729   -1.5815   -1.5457 H       1  UNL1        0.0442
     40 H          -5.2234   -0.2395   -2.7361 H       1  UNL1        0.0442
     41 H          -6.2893    0.0835    0.1261 H       1  UNL1        0.0512
     42 H          -7.2604   -0.0583   -1.3803 H       1  UNL1        0.0512
     43 H          -3.9625    1.7349   -2.6194 H       1  UNL1        0.0512
     44 H          -3.8157    3.0662   -1.3637 H       1  UNL1        0.0512
     45 H          -2.5817    1.2522   -0.4956 H       1  UNL1        0.0442
     46 H          -4.1411    1.2136    0.3721 H       1  UNL1        0.0442
     47 H          -1.3860   -2.4227   -0.8373 H       1  UNL1        0.0621
     48 H           0.8836   -2.2588    0.2455 H       1  UNL1        0.0624
     49 H           5.4692    2.5292   -3.2867 H       1  UNL1        0.0394
     50 H           7.5733    1.2708   -3.6825 H       1  UNL1        0.0273
     51 H           7.0587   -0.0066   -2.4615 H       1  UNL1        0.0273
     52 H           5.5079    0.7893   -5.0956 H       1  UNL1        0.0273
     53 H           5.0322   -0.5446   -3.8714 H       1  UNL1        0.0273
@<TRIPOS>BOND
     1     1     2    2
     2     2     3   am
     3     3     4    1
     4     4     5   ar
     5     5     6   ar
     6     6     7   ar
     7     7     8   ar
     8     8     9   ar
     9     9    10   ar
    10    10    11    1
    11    11    12   ar
    12    12    13   ar
    13    13    14   ar
    14    14    15    1
    15    15    16    1
    16    16    17    1
    17    17    18    1
    18    18    19    1
    19    19    20    2
    20    19    21    2
    21    19    22    1
    22    22    23    1
    23    14    24   ar
    24    24    25   ar
    25    10    26   ar
    26    26    27   ar
    27     2    28    1
    28    28    29    1
    29    29    30    1
    30    27     4   ar
    31    30    28    1
    32    26     6   ar
    33    25    11   ar
    34    23    16    1
    35     3    31    1
    36     7    32    1
    37     8    33    1
    38     9    34    1
    39    12    35    1
    40    13    36    1
    41    15    37    1
    42    15    38    1
    43    17    39    1
    44    17    40    1
    45    18    41    1
    46    18    42    1
    47    22    43    1
    48    22    44    1
    49    23    45    1
    50    23    46    1
    51    24    47    1
    52    25    48    1
    53    28    49    1
    54    29    50    1
    55    29    51    1
    56    30    52    1
    57    30    53    1
