
     RDKit          3D

 46 48  0  0  0  0  0  0  0  0999 V2000
   -1.7699    2.6240    0.2640 C   0  0  0  0  0  0  0  0  0  0  0  0
   -1.7523    1.2040   -0.3754 C   0  0  0  0  0  0  0  0  0  0  0  0
   -0.9124    1.3571   -1.6122 C   0  0  0  0  0  0  0  0  0  0  0  0
   -1.2105    0.2709    0.6505 C   0  0  0  0  0  0  0  0  0  0  0  0
   -1.0723   -1.1035    0.3273 N   0  0  0  0  0  0  0  0  0  0  0  0
    0.1433   -1.6114   -0.2267 C   0  0  0  0  0  0  0  0  0  0  0  0
    0.2227   -2.8600   -0.5179 O   0  0  0  0  0  0  0  0  0  0  0  0
    1.3264   -0.8213   -0.4933 C   0  0  0  0  0  0  0  0  0  0  0  0
    1.7333   -0.6511   -1.8135 C   0  0  0  0  0  0  0  0  0  0  0  0
    2.8550    0.0715   -2.1538 C   0  0  0  0  0  0  0  0  0  0  0  0
    3.6321    0.6655   -1.1830 C   0  0  0  0  0  0  0  0  0  0  0  0
    4.7624    1.3934   -1.5207 C   0  0  0  0  0  0  0  0  0  0  0  0
    5.4885    1.9565   -0.4925 C   0  0  0  0  0  0  0  0  0  0  0  0
    5.1166    1.8103    0.8315 C   0  0  0  0  0  0  0  0  0  0  0  0
    3.9868    1.0782    1.1126 C   0  0  0  0  0  0  0  0  0  0  0  0
    3.2228    0.4932    0.1320 C   0  0  0  0  0  0  0  0  0  0  0  0
    2.1020   -0.2306    0.4621 C   0  0  0  0  0  0  0  0  0  0  0  0
   -2.0942   -2.1102    0.5787 C   0  0  1  0  0  0  0  0  0  0  0  0
   -2.6161   -2.1213    1.9705 C   0  0  0  0  0  0  0  0  0  0  0  0
   -4.1200   -2.2757    1.7674 C   0  0  0  0  0  0  0  0  0  0  0  0
   -4.3206   -1.3454    0.6330 N   0  0  0  0  0  0  0  0  0  0  0  0
   -3.3068   -1.8857   -0.2778 C   0  0  0  0  0  0  0  0  0  0  0  0
   -2.4124    3.2232   -0.3921 H   0  0  0  0  0  0  0  0  0  0  0  0
   -0.7318    2.9846    0.2323 H   0  0  0  0  0  0  0  0  0  0  0  0
   -2.1171    2.5510    1.3041 H   0  0  0  0  0  0  0  0  0  0  0  0
   -2.7968    0.9957   -0.7083 H   0  0  0  0  0  0  0  0  0  0  0  0
   -1.3667    2.2206   -2.1832 H   0  0  0  0  0  0  0  0  0  0  0  0
   -0.9037    0.4639   -2.2569 H   0  0  0  0  0  0  0  0  0  0  0  0
    0.1267    1.7065   -1.3345 H   0  0  0  0  0  0  0  0  0  0  0  0
   -1.7626    0.4421    1.6128 H   0  0  0  0  0  0  0  0  0  0  0  0
   -0.1675    0.6615    0.8871 H   0  0  0  0  0  0  0  0  0  0  0  0
    1.1256   -1.1159   -2.5903 H   0  0  0  0  0  0  0  0  0  0  0  0
    3.1600    0.1954   -3.1814 H   0  0  0  0  0  0  0  0  0  0  0  0
    5.0273    1.4904   -2.5607 H   0  0  0  0  0  0  0  0  0  0  0  0
    6.3697    2.5211   -0.7573 H   0  0  0  0  0  0  0  0  0  0  0  0
    5.7211    2.2729    1.6063 H   0  0  0  0  0  0  0  0  0  0  0  0
    3.6843    0.9569    2.1491 H   0  0  0  0  0  0  0  0  0  0  0  0
    1.8634   -0.3250    1.5055 H   0  0  0  0  0  0  0  0  0  0  0  0
   -1.6826   -3.1311    0.3249 H   0  0  0  0  0  0  0  0  0  0  0  0
   -2.4659   -1.1896    2.5489 H   0  0  0  0  0  0  0  0  0  0  0  0
   -2.2923   -3.0185    2.5542 H   0  0  0  0  0  0  0  0  0  0  0  0
   -4.3170   -3.2960    1.3515 H   0  0  0  0  0  0  0  0  0  0  0  0
   -4.7171   -2.0074    2.6338 H   0  0  0  0  0  0  0  0  0  0  0  0
   -3.8905   -0.4416    0.9845 H   0  0  0  0  0  0  0  0  0  0  0  0
   -3.6959   -2.8724   -0.6852 H   0  0  0  0  0  0  0  0  0  0  0  0
   -3.1748   -1.1970   -1.1078 H   0  0  0  0  0  0  0  0  0  0  0  0
  1  2  1  0
  2  3  1  0
  2  4  1  0
  4  5  1  0
  5  6  1  0
  6  7  2  0
  6  8  1  0
  8  9  2  0
  9 10  1  0
 10 11  2  0
 11 12  1  0
 12 13  2  0
 13 14  1  0
 14 15  2  0
 15 16  1  0
 16 17  2  0
  5 18  1  0
 18 19  1  0
 19 20  1  0
 20 21  1  0
 21 22  1  0
 17  8  1  0
 22 18  1  0
 16 11  1  0
  1 23  1  0
  1 24  1  0
  1 25  1  0
  2 26  1  0
  3 27  1  0
  3 28  1  0
  3 29  1  0
  4 30  1  0
  4 31  1  0
  9 32  1  0
 10 33  1  0
 12 34  1  0
 13 35  1  0
 14 36  1  0
 15 37  1  0
 17 38  1  0
 18 39  1  6
 19 40  1  0
 19 41  1  0
 20 42  1  0
 20 43  1  0
 21 44  1  0
 22 45  1  0
 22 46  1  0
M  END
$$$$
