@<TRIPOS>MOLECULE
*****
 46 48 0 0 0
SMALL
GASTEIGER

@<TRIPOS>ATOM
      1 C          -1.7699    2.6240    0.2640 C.3     1  UNL1       -0.0612
      2 C          -1.7523    1.2040   -0.3754 C.3     1  UNL1       -0.0309
      3 C          -0.9124    1.3571   -1.6122 C.3     1  UNL1       -0.0612
      4 C          -1.2105    0.2709    0.6505 C.3     1  UNL1        0.0176
      5 N          -1.0723   -1.1035    0.3273 N.am    1  UNL1       -0.2930
      6 C           0.1433   -1.6114   -0.2267 C.2     1  UNL1        0.2469
      7 O           0.2227   -2.8600   -0.5179 O.2     1  UNL1       -0.2700
      8 C           1.3264   -0.8213   -0.4933 C.ar    1  UNL1        0.0375
      9 C           1.7333   -0.6511   -1.8135 C.ar    1  UNL1       -0.0490
     10 C           2.8550    0.0715   -2.1538 C.ar    1  UNL1       -0.0533
     11 C           3.6321    0.6655   -1.1830 C.ar    1  UNL1       -0.0178
     12 C           4.7624    1.3934   -1.5207 C.ar    1  UNL1       -0.0540
     13 C           5.4885    1.9565   -0.4925 C.ar    1  UNL1       -0.0612
     14 C           5.1166    1.8103    0.8315 C.ar    1  UNL1       -0.0612
     15 C           3.9868    1.0782    1.1126 C.ar    1  UNL1       -0.0540
     16 C           3.2228    0.4932    0.1320 C.ar    1  UNL1       -0.0172
     17 C           2.1020   -0.2306    0.4621 C.ar    1  UNL1       -0.0419
     18 C          -2.0942   -2.1102    0.5787 C.3     1  UNL1        0.0399
     19 C          -2.6161   -2.1213    1.9705 C.3     1  UNL1       -0.0205
     20 C          -4.1200   -2.2757    1.7674 C.3     1  UNL1       -0.0023
     21 N          -4.3206   -1.3454    0.6330 N.3     1  UNL1       -0.3142
     22 C          -3.3068   -1.8857   -0.2778 C.3     1  UNL1        0.0146
     23 H          -2.4124    3.2232   -0.3921 H       1  UNL1        0.0233
     24 H          -0.7318    2.9846    0.2323 H       1  UNL1        0.0233
     25 H          -2.1171    2.5510    1.3041 H       1  UNL1        0.0233
     26 H          -2.7968    0.9957   -0.7083 H       1  UNL1        0.0311
     27 H          -1.3667    2.2206   -2.1832 H       1  UNL1        0.0233
     28 H          -0.9037    0.4639   -2.2569 H       1  UNL1        0.0233
     29 H           0.1267    1.7065   -1.3345 H       1  UNL1        0.0233
     30 H          -1.7626    0.4421    1.6128 H       1  UNL1        0.0467
     31 H          -0.1675    0.6615    0.8871 H       1  UNL1        0.0467
     32 H           1.1256   -1.1159   -2.5903 H       1  UNL1        0.0625
     33 H           3.1600    0.1954   -3.1814 H       1  UNL1        0.0624
     34 H           5.0273    1.4904   -2.5607 H       1  UNL1        0.0624
     35 H           6.3697    2.5211   -0.7573 H       1  UNL1        0.0618
     36 H           5.7211    2.2729    1.6063 H       1  UNL1        0.0618
     37 H           3.6843    0.9569    2.1491 H       1  UNL1        0.0624
     38 H           1.8634   -0.3250    1.5055 H       1  UNL1        0.0631
     39 H          -1.6826   -3.1311    0.3249 H       1  UNL1        0.0513
     40 H          -2.4659   -1.1896    2.5489 H       1  UNL1        0.0296
     41 H          -2.2923   -3.0185    2.5542 H       1  UNL1        0.0296
     42 H          -4.3170   -3.2960    1.3515 H       1  UNL1        0.0425
     43 H          -4.7171   -2.0074    2.6338 H       1  UNL1        0.0425
     44 H          -3.8905   -0.4416    0.9845 H       1  UNL1        0.1220
     45 H          -3.6959   -2.8724   -0.6852 H       1  UNL1        0.0442
     46 H          -3.1748   -1.1970   -1.1078 H       1  UNL1        0.0442
@<TRIPOS>BOND
     1     1     2    1
     2     2     3    1
     3     2     4    1
     4     4     5    1
     5     5     6   am
     6     6     7    2
     7     6     8    1
     8     8     9   ar
     9     9    10   ar
    10    10    11   ar
    11    11    12   ar
    12    12    13   ar
    13    13    14   ar
    14    14    15   ar
    15    15    16   ar
    16    16    17   ar
    17     5    18    1
    18    18    19    1
    19    19    20    1
    20    20    21    1
    21    21    22    1
    22    17     8   ar
    23    22    18    1
    24    16    11   ar
    25     1    23    1
    26     1    24    1
    27     1    25    1
    28     2    26    1
    29     3    27    1
    30     3    28    1
    31     3    29    1
    32     4    30    1
    33     4    31    1
    34     9    32    1
    35    10    33    1
    36    12    34    1
    37    13    35    1
    38    14    36    1
    39    15    37    1
    40    17    38    1
    41    18    39    1
    42    19    40    1
    43    19    41    1
    44    20    42    1
    45    20    43    1
    46    21    44    1
    47    22    45    1
    48    22    46    1
