@<TRIPOS>MOLECULE
*****
 44 47 0 0 0
SMALL
GASTEIGER

@<TRIPOS>ATOM
      1 O           6.7783   -2.2961   -2.1466 O.2     1  UNL1        0.0414
      2 N           6.6015   -1.2456   -1.5215 N.pl3   1  UNL1        0.0798
      3 O           7.6572   -0.4161   -1.2870 O.co2   1  UNL1       -0.5760
      4 C           5.3174   -0.8960   -1.0479 C.ar    1  UNL1        0.2788
      5 C           5.0567    0.2600   -0.3456 C.ar    1  UNL1        0.0607
      6 C           3.7909    0.5671    0.1004 C.ar    1  UNL1        0.1673
      7 O           3.6224    1.7559    0.8010 O.3     1  UNL1       -0.5032
      8 C           2.7058   -0.2878   -0.1418 C.ar    1  UNL1        0.2109
      9 C           2.9992   -1.4256   -0.8412 C.ar    1  UNL1        0.1735
     10 C           4.2360   -1.7260   -1.2771 C.ar    1  UNL1        0.0472
     11 S           1.6836   -2.5219   -1.1787 S.O2    1  UNL1        0.1178
     12 O           1.9390   -3.8816   -0.6327 O.2     1  UNL1       -0.1370
     13 O           1.4695   -2.5599   -2.6639 O.2     1  UNL1       -0.1370
     14 N           0.3001   -1.7971   -0.4401 N.pl3   1  UNL1       -0.0989
     15 C           0.3579   -0.5627    0.2313 C.cat   1  UNL1        0.3974
     16 N          -0.8446   -0.0195    0.8118 N.pl3   1  UNL1       -0.2012
     17 C          -1.1585    1.3482    0.7589 C.ar    1  UNL1        0.1341
     18 C          -0.3530    2.2850    0.1952 C.ar    1  UNL1       -0.0216
     19 C          -0.6493    3.6571    0.1838 C.ar    1  UNL1       -0.0584
     20 C          -1.8203    4.0736    0.7761 C.ar    1  UNL1       -0.0581
     21 C          -2.6677    3.1553    1.3587 C.ar    1  UNL1       -0.0161
     22 C          -2.3273    1.7952    1.3432 C.ar    1  UNL1        0.1646
     23 O          -3.1701    0.8627    1.9231 O.3     1  UNL1       -0.4528
     24 C          -3.8062   -0.0976    1.1585 C.ar    1  UNL1        0.1286
     25 C          -3.7174   -0.0044   -0.2138 C.ar    1  UNL1       -0.0193
     26 C          -4.3420   -0.9485   -1.0008 C.ar    1  UNL1       -0.0583
     27 C          -5.0668   -2.0032   -0.4334 C.ar    1  UNL1       -0.0615
     28 C          -5.1461   -2.0823    0.9404 C.ar    1  UNL1       -0.0583
     29 C          -4.5213   -1.1379    1.7246 C.ar    1  UNL1       -0.0193
     30 N           1.4554    0.0728    0.3387 N.2     1  UNL1       -0.0692
     31 H           5.8945    0.9325   -0.1517 H       1  UNL1        0.0723
     32 H           3.6461    2.6121    0.2541 H       1  UNL1        0.2923
     33 H           4.4558   -2.6460   -1.8386 H       1  UNL1        0.0707
     34 H          -0.5866   -2.3089   -0.5033 H       1  UNL1        0.2767
     35 H          -1.4591   -0.6881    1.2832 H       1  UNL1        0.2514
     36 H           0.5691    2.0298   -0.2921 H       1  UNL1        0.0651
     37 H           0.0077    4.3812   -0.2704 H       1  UNL1        0.0619
     38 H          -2.0988    5.1331    0.7957 H       1  UNL1        0.0619
     39 H          -3.5881    3.4590    1.8270 H       1  UNL1        0.0655
     40 H          -3.1725    0.7864   -0.7061 H       1  UNL1        0.0654
     41 H          -4.2583   -0.8549   -2.0797 H       1  UNL1        0.0619
     42 H          -5.5255   -2.6992   -1.1102 H       1  UNL1        0.0618
     43 H          -5.7024   -2.8919    1.3655 H       1  UNL1        0.0619
     44 H          -4.5620   -1.1681    2.8031 H       1  UNL1        0.0654
@<TRIPOS>UNITY_ATOM_ATTR
2 1
charge 1
3 1
charge -1
@<TRIPOS>BOND
     1     1     2    2
     2     2     3    1
     3     2     4    1
     4     4     5   ar
     5     5     6   ar
     6     6     7    1
     7     6     8   ar
     8     8     9   ar
     9     9    10   ar
    10     9    11    1
    11    11    12    2
    12    11    13    2
    13    11    14    1
    14    14    15    1
    15    15    16    1
    16    16    17    1
    17    17    18   ar
    18    18    19   ar
    19    19    20   ar
    20    20    21   ar
    21    21    22   ar
    22    22    23    1
    23    23    24    1
    24    24    25   ar
    25    25    26   ar
    26    26    27   ar
    27    27    28   ar
    28    28    29   ar
    29    15    30    2
    30    10     4   ar
    31    22    17   ar
    32    29    24   ar
    33    30     8    1
    34     5    31    1
    35     7    32    1
    36    10    33    1
    37    14    34    1
    38    16    35    1
    39    18    36    1
    40    19    37    1
    41    20    38    1
    42    21    39    1
    43    25    40    1
    44    26    41    1
    45    27    42    1
    46    28    43    1
    47    29    44    1
