
     RDKit          3D

 44 47  0  0  0  0  0  0  0  0999 V2000
    6.7783   -2.2961   -2.1466 O   0  0  0  0  0  0  0  0  0  0  0  0
    6.6015   -1.2456   -1.5215 N   0  0  0  0  0  4  0  0  0  0  0  0
    7.6572   -0.4161   -1.2870 O   0  0  0  0  0  1  0  0  0  0  0  0
    5.3174   -0.8960   -1.0479 C   0  0  0  0  0  0  0  0  0  0  0  0
    5.0567    0.2600   -0.3456 C   0  0  0  0  0  0  0  0  0  0  0  0
    3.7909    0.5671    0.1004 C   0  0  0  0  0  0  0  0  0  0  0  0
    3.6224    1.7559    0.8010 O   0  0  0  0  0  0  0  0  0  0  0  0
    2.7058   -0.2878   -0.1418 C   0  0  0  0  0  0  0  0  0  0  0  0
    2.9992   -1.4256   -0.8412 C   0  0  0  0  0  0  0  0  0  0  0  0
    4.2360   -1.7260   -1.2771 C   0  0  0  0  0  0  0  0  0  0  0  0
    1.6836   -2.5219   -1.1787 S   0  0  0  0  0  6  0  0  0  0  0  0
    1.9390   -3.8816   -0.6327 O   0  0  0  0  0  0  0  0  0  0  0  0
    1.4695   -2.5599   -2.6639 O   0  0  0  0  0  0  0  0  0  0  0  0
    0.3001   -1.7971   -0.4401 N   0  0  0  0  0  0  0  0  0  0  0  0
    0.3579   -0.5627    0.2313 C   0  0  0  0  0  0  0  0  0  0  0  0
   -0.8446   -0.0195    0.8118 N   0  0  0  0  0  0  0  0  0  0  0  0
   -1.1585    1.3482    0.7589 C   0  0  0  0  0  0  0  0  0  0  0  0
   -0.3530    2.2850    0.1952 C   0  0  0  0  0  0  0  0  0  0  0  0
   -0.6493    3.6571    0.1838 C   0  0  0  0  0  0  0  0  0  0  0  0
   -1.8203    4.0736    0.7761 C   0  0  0  0  0  0  0  0  0  0  0  0
   -2.6677    3.1553    1.3587 C   0  0  0  0  0  0  0  0  0  0  0  0
   -2.3273    1.7952    1.3432 C   0  0  0  0  0  0  0  0  0  0  0  0
   -3.1701    0.8627    1.9231 O   0  0  0  0  0  0  0  0  0  0  0  0
   -3.8062   -0.0976    1.1585 C   0  0  0  0  0  0  0  0  0  0  0  0
   -3.7174   -0.0044   -0.2138 C   0  0  0  0  0  0  0  0  0  0  0  0
   -4.3420   -0.9485   -1.0008 C   0  0  0  0  0  0  0  0  0  0  0  0
   -5.0668   -2.0032   -0.4334 C   0  0  0  0  0  0  0  0  0  0  0  0
   -5.1461   -2.0823    0.9404 C   0  0  0  0  0  0  0  0  0  0  0  0
   -4.5213   -1.1379    1.7246 C   0  0  0  0  0  0  0  0  0  0  0  0
    1.4554    0.0728    0.3387 N   0  0  0  0  0  0  0  0  0  0  0  0
    5.8945    0.9325   -0.1517 H   0  0  0  0  0  0  0  0  0  0  0  0
    3.6461    2.6121    0.2541 H   0  0  0  0  0  0  0  0  0  0  0  0
    4.4558   -2.6460   -1.8386 H   0  0  0  0  0  0  0  0  0  0  0  0
   -0.5866   -2.3089   -0.5033 H   0  0  0  0  0  0  0  0  0  0  0  0
   -1.4591   -0.6881    1.2832 H   0  0  0  0  0  0  0  0  0  0  0  0
    0.5691    2.0298   -0.2921 H   0  0  0  0  0  0  0  0  0  0  0  0
    0.0077    4.3812   -0.2704 H   0  0  0  0  0  0  0  0  0  0  0  0
   -2.0988    5.1331    0.7957 H   0  0  0  0  0  0  0  0  0  0  0  0
   -3.5881    3.4590    1.8270 H   0  0  0  0  0  0  0  0  0  0  0  0
   -3.1725    0.7864   -0.7061 H   0  0  0  0  0  0  0  0  0  0  0  0
   -4.2583   -0.8549   -2.0797 H   0  0  0  0  0  0  0  0  0  0  0  0
   -5.5255   -2.6992   -1.1102 H   0  0  0  0  0  0  0  0  0  0  0  0
   -5.7024   -2.8919    1.3655 H   0  0  0  0  0  0  0  0  0  0  0  0
   -4.5620   -1.1681    2.8031 H   0  0  0  0  0  0  0  0  0  0  0  0
  1  2  2  0
  2  3  1  0
  2  4  1  0
  4  5  2  0
  5  6  1  0
  6  7  1  0
  6  8  2  0
  8  9  1  0
  9 10  2  0
  9 11  1  0
 11 12  2  0
 11 13  2  0
 11 14  1  0
 14 15  1  0
 15 16  1  0
 16 17  1  0
 17 18  2  0
 18 19  1  0
 19 20  2  0
 20 21  1  0
 21 22  2  0
 22 23  1  0
 23 24  1  0
 24 25  2  0
 25 26  1  0
 26 27  2  0
 27 28  1  0
 28 29  2  0
 15 30  2  0
 10  4  1  0
 22 17  1  0
 29 24  1  0
 30  8  1  0
  5 31  1  0
  7 32  1  0
 10 33  1  0
 14 34  1  0
 16 35  1  0
 18 36  1  0
 19 37  1  0
 20 38  1  0
 21 39  1  0
 25 40  1  0
 26 41  1  0
 27 42  1  0
 28 43  1  0
 29 44  1  0
M  CHG  2   2   1   3  -1
M  END
$$$$
