@<TRIPOS>MOLECULE
*****
 48 49 0 0 0
SMALL
GASTEIGER

@<TRIPOS>ATOM
      1 C           6.1422    0.2904    0.8446 C.3     1  UNL1        0.0788
      2 O           5.0479    1.0596    0.4191 O.3     1  UNL1       -0.4950
      3 C           3.8256    0.4657    0.1190 C.ar    1  UNL1        0.1239
      4 C           3.6601   -0.8846    0.2329 C.ar    1  UNL1        0.0224
      5 C           2.4581   -1.4592   -0.0624 C.ar    1  UNL1        0.1346
      6 O           2.3985   -2.8592    0.0792 O.3     1  UNL1       -0.5058
      7 C           1.3218   -0.7287   -0.4941 C.ar    1  UNL1        0.1036
      8 C           1.4963    0.6258   -0.6101 C.ar    1  UNL1       -0.0264
      9 C           2.7409    1.2013   -0.3015 C.ar    1  UNL1       -0.0158
     10 C           0.5054    1.5896   -1.1312 C.3     1  UNL1       -0.0263
     11 C           0.5721    2.9079   -0.4569 C.3     1  UNL1       -0.0419
     12 C          -0.5988    3.8151   -1.0543 C.3     1  UNL1        0.0141
     13 C          -1.7569    2.9301   -1.0018 C.2     1  UNL1        0.2058
     14 O          -2.0539    2.4324   -2.1840 O.2     1  UNL1       -0.2885
     15 C          -2.5998    2.4783    0.0950 C.2     1  UNL1        0.2630
     16 O          -3.4730    3.3043    0.5777 O.2     1  UNL1       -0.2805
     17 C          -2.5610    1.1634    0.7250 C.2     1  UNL1        0.2058
     18 O          -1.4294    0.9210    1.4440 O.2     1  UNL1       -0.2885
     19 C          -3.4562    0.0136    0.7373 C.3     1  UNL1        0.0139
     20 C          -3.5213   -0.4613   -0.7409 C.3     1  UNL1       -0.0426
     21 C          -3.4416   -1.9633   -0.7647 C.3     1  UNL1       -0.0155
     22 C          -2.0943   -2.4627   -0.5276 C.3     1  UNL1        0.1006
     23 C          -2.1508   -3.8030    0.2276 C.3     1  UNL1       -0.0277
     24 O          -1.1014   -1.5981   -0.1510 O.3     1  UNL1       -0.4581
     25 C           0.1724   -1.5520   -0.7427 C.2     1  UNL1        0.3433
     26 O           0.2937   -2.4464   -1.6881 O.2     1  UNL1       -0.2448
     27 H           6.3215   -0.5542    0.1186 H       1  UNL1        0.0660
     28 H           5.8780   -0.1087    1.8552 H       1  UNL1        0.0660
     29 H           7.0473    0.9060    0.8477 H       1  UNL1        0.0660
     30 H           4.5233   -1.4646    0.5664 H       1  UNL1        0.0691
     31 H           2.4025   -3.2756    1.0129 H       1  UNL1        0.2922
     32 H           2.9188    2.2655   -0.3795 H       1  UNL1        0.0657
     33 H          -0.5026    1.1346   -1.2148 H       1  UNL1        0.0314
     34 H           0.7844    1.7731   -2.2228 H       1  UNL1        0.0314
     35 H           0.4828    2.8731    0.6140 H       1  UNL1        0.0273
     36 H           1.4484    3.4775   -0.7693 H       1  UNL1        0.0273
     37 H          -0.5530    4.7244   -0.4991 H       1  UNL1        0.0346
     38 H          -0.3184    4.0248   -2.0964 H       1  UNL1        0.0346
     39 H          -4.4441    0.1324    1.1059 H       1  UNL1        0.0346
     40 H          -2.9939   -0.8614    1.2972 H       1  UNL1        0.0346
     41 H          -2.6253   -0.0568   -1.2324 H       1  UNL1        0.0271
     42 H          -4.4409   -0.0643   -1.1921 H       1  UNL1        0.0271
     43 H          -3.8482   -2.3033   -1.7660 H       1  UNL1        0.0301
     44 H          -4.1520   -2.3159    0.0303 H       1  UNL1        0.0301
     45 H          -1.7121   -2.8970   -1.5588 H       1  UNL1        0.0731
     46 H          -2.9404   -4.3914   -0.2859 H       1  UNL1        0.0265
     47 H          -2.4703   -3.6577    1.2605 H       1  UNL1        0.0265
     48 H          -1.2024   -4.3404    0.0939 H       1  UNL1        0.0265
@<TRIPOS>BOND
     1     1     2    1
     2     2     3    1
     3     3     4   ar
     4     4     5   ar
     5     5     6    1
     6     5     7   ar
     7     7     8   ar
     8     8     9   ar
     9     8    10    1
    10    10    11    1
    11    11    12    1
    12    12    13    1
    13    13    14    2
    14    13    15    1
    15    15    16    2
    16    15    17    1
    17    17    18    2
    18    17    19    1
    19    19    20    1
    20    20    21    1
    21    21    22    1
    22    22    23    1
    23    22    24    1
    24    24    25    1
    25    25    26    2
    26     9     3   ar
    27    25     7    1
    28     1    27    1
    29     1    28    1
    30     1    29    1
    31     4    30    1
    32     6    31    1
    33     9    32    1
    34    10    33    1
    35    10    34    1
    36    11    35    1
    37    11    36    1
    38    12    37    1
    39    12    38    1
    40    19    39    1
    41    19    40    1
    42    20    41    1
    43    20    42    1
    44    21    43    1
    45    21    44    1
    46    22    45    1
    47    23    46    1
    48    23    47    1
    49    23    48    1
