@<TRIPOS>MOLECULE
*****
 59 62 0 0 0
SMALL
GASTEIGER

@<TRIPOS>ATOM
      1 C          -5.7735    2.9154    1.4403 C.3     1  UNL1        0.0490
      2 N          -5.6118    1.4697    1.3669 N.pl3   1  UNL1       -0.2302
      3 C          -5.2506    0.6776    2.5101 C.3     1  UNL1        0.0490
      4 C          -5.8115    0.7661    0.1247 C.cat   1  UNL1        0.3692
      5 N          -6.8769    0.1775   -0.2047 N.2     1  UNL1       -0.1140
      6 C          -6.7336   -0.4156   -1.5005 C.3     1  UNL1        0.1330
      7 C          -5.2467   -0.4057   -1.7471 C.3     1  UNL1        0.0948
      8 N          -4.8099    0.6572   -0.8724 N.pl3   1  UNL1       -0.2176
      9 C          -3.6285    1.4542   -0.9586 C.3     1  UNL1        0.0860
     10 C          -2.3818    0.6301   -0.8990 C.ar    1  UNL1       -0.0158
     11 C          -1.8264    0.1366   -2.0682 C.ar    1  UNL1       -0.0550
     12 C          -0.6801   -0.6283   -2.0520 C.ar    1  UNL1       -0.0493
     13 C          -0.0306   -0.9384   -0.8640 C.ar    1  UNL1        0.0370
     14 C           1.1779   -1.7517   -0.8519 C.2     1  UNL1        0.2483
     15 O           1.6483   -2.1985   -1.9351 O.2     1  UNL1       -0.2699
     16 N           1.9196   -2.1153    0.2924 N.am    1  UNL1       -0.2808
     17 C           3.0781   -2.9026    0.2684 C.ar    1  UNL1        0.0459
     18 C           3.0766   -4.2631    0.3691 C.ar    1  UNL1       -0.0384
     19 C           4.2399   -5.0130    0.3431 C.ar    1  UNL1       -0.0416
     20 C           5.4589   -4.3891    0.2114 C.ar    1  UNL1        0.0418
     21 CL          6.9044   -5.3660    0.1826 Cl      1  UNL1       -0.0835
     22 C           5.4882   -3.0113    0.1074 C.ar    1  UNL1       -0.0295
     23 C           4.3130   -2.2715    0.1350 C.ar    1  UNL1        0.0596
     24 C           4.3206   -0.8268    0.0241 C.2     1  UNL1        0.2511
     25 O           3.2507   -0.1692    0.0418 O.2     1  UNL1       -0.2697
     26 N           5.5191   -0.0891   -0.1086 N.am    1  UNL1       -0.2663
     27 C           5.5029    1.3527   -0.2198 C.ar    1  UNL1        0.1252
     28 C           5.5608    2.0886    0.9371 C.ar    1  UNL1       -0.0201
     29 C           5.5510    3.4677    0.9101 C.ar    1  UNL1       -0.0387
     30 C           5.4815    4.0905   -0.3067 C.ar    1  UNL1        0.0592
     31 CL          5.4661    5.8364   -0.3794 Cl      1  UNL1       -0.0820
     32 C           5.4242    3.3208   -1.4561 C.ar    1  UNL1        0.0480
     33 N           5.4355    1.9803   -1.3981 N.ar    1  UNL1       -0.2387
     34 C          -0.5710   -0.4552    0.2995 C.ar    1  UNL1       -0.0493
     35 C          -1.7389    0.3237    0.2799 C.ar    1  UNL1       -0.0550
     36 H          -6.7404    3.1979    1.8757 H       1  UNL1        0.0597
     37 H          -5.7172    3.3473    0.4025 H       1  UNL1        0.0597
     38 H          -4.9712    3.3464    2.0383 H       1  UNL1        0.0597
     39 H          -5.4361    1.2649    3.4309 H       1  UNL1        0.0597
     40 H          -4.1958    0.3650    2.4248 H       1  UNL1        0.0597
     41 H          -5.8578   -0.2538    2.4626 H       1  UNL1        0.0597
     42 H          -7.1513   -1.4474   -1.5255 H       1  UNL1        0.0723
     43 H          -7.1996    0.2245   -2.2977 H       1  UNL1        0.0723
     44 H          -5.0239   -0.1931   -2.8131 H       1  UNL1        0.0667
     45 H          -4.7860   -1.3927   -1.4565 H       1  UNL1        0.0667
     46 H          -3.5457    2.2075   -0.1475 H       1  UNL1        0.0685
     47 H          -3.6845    2.0403   -1.9006 H       1  UNL1        0.0685
     48 H          -2.3167    0.3660   -3.0098 H       1  UNL1        0.0621
     49 H          -0.2249   -1.0267   -2.9547 H       1  UNL1        0.0625
     50 H           1.5549   -1.7565    1.2132 H       1  UNL1        0.1552
     51 H           2.1092   -4.7329    0.4713 H       1  UNL1        0.0637
     52 H           4.1502   -6.0971    0.4293 H       1  UNL1        0.0633
     53 H           6.4601   -2.5617    0.0059 H       1  UNL1        0.0640
     54 H           6.4222   -0.6068   -0.1251 H       1  UNL1        0.1566
     55 H           5.6162    1.6267    1.9135 H       1  UNL1        0.0652
     56 H           5.5980    4.0355    1.8518 H       1  UNL1        0.0634
     57 H           5.3711    3.8692   -2.3854 H       1  UNL1        0.0845
     58 H          -0.1128   -0.6610    1.2612 H       1  UNL1        0.0625
     59 H          -2.1635    0.7038    1.1970 H       1  UNL1        0.0621
@<TRIPOS>BOND
     1     1     2    1
     2     2     3    1
     3     2     4    1
     4     4     5    2
     5     5     6    1
     6     6     7    1
     7     7     8    1
     8     8     9    1
     9     9    10    1
    10    10    11   ar
    11    11    12   ar
    12    12    13   ar
    13    13    14    1
    14    14    15    2
    15    14    16   am
    16    16    17    1
    17    17    18   ar
    18    18    19   ar
    19    19    20   ar
    20    20    21    1
    21    20    22   ar
    22    22    23   ar
    23    23    24    1
    24    24    25    2
    25    24    26   am
    26    26    27    1
    27    27    28   ar
    28    28    29   ar
    29    29    30   ar
    30    30    31    1
    31    30    32   ar
    32    32    33   ar
    33    13    34   ar
    34    34    35   ar
    35     8     4    1
    36    35    10   ar
    37    23    17   ar
    38    33    27   ar
    39     1    36    1
    40     1    37    1
    41     1    38    1
    42     3    39    1
    43     3    40    1
    44     3    41    1
    45     6    42    1
    46     6    43    1
    47     7    44    1
    48     7    45    1
    49     9    46    1
    50     9    47    1
    51    11    48    1
    52    12    49    1
    53    16    50    1
    54    18    51    1
    55    19    52    1
    56    22    53    1
    57    26    54    1
    58    28    55    1
    59    29    56    1
    60    32    57    1
    61    34    58    1
    62    35    59    1
