
     RDKit          3D

 59 62  0  0  0  0  0  0  0  0999 V2000
   -5.7735    2.9154    1.4403 C   0  0  0  0  0  0  0  0  0  0  0  0
   -5.6118    1.4697    1.3669 N   0  0  0  0  0  0  0  0  0  0  0  0
   -5.2506    0.6776    2.5101 C   0  0  0  0  0  0  0  0  0  0  0  0
   -5.8115    0.7661    0.1247 C   0  0  0  0  0  0  0  0  0  0  0  0
   -6.8769    0.1775   -0.2047 N   0  0  0  0  0  0  0  0  0  0  0  0
   -6.7336   -0.4156   -1.5005 C   0  0  0  0  0  0  0  0  0  0  0  0
   -5.2467   -0.4057   -1.7471 C   0  0  0  0  0  0  0  0  0  0  0  0
   -4.8099    0.6572   -0.8724 N   0  0  0  0  0  0  0  0  0  0  0  0
   -3.6285    1.4542   -0.9586 C   0  0  0  0  0  0  0  0  0  0  0  0
   -2.3818    0.6301   -0.8990 C   0  0  0  0  0  0  0  0  0  0  0  0
   -1.8264    0.1366   -2.0682 C   0  0  0  0  0  0  0  0  0  0  0  0
   -0.6801   -0.6283   -2.0520 C   0  0  0  0  0  0  0  0  0  0  0  0
   -0.0306   -0.9384   -0.8640 C   0  0  0  0  0  0  0  0  0  0  0  0
    1.1779   -1.7517   -0.8519 C   0  0  0  0  0  0  0  0  0  0  0  0
    1.6483   -2.1985   -1.9351 O   0  0  0  0  0  0  0  0  0  0  0  0
    1.9196   -2.1153    0.2924 N   0  0  0  0  0  0  0  0  0  0  0  0
    3.0781   -2.9026    0.2684 C   0  0  0  0  0  0  0  0  0  0  0  0
    3.0766   -4.2631    0.3691 C   0  0  0  0  0  0  0  0  0  0  0  0
    4.2399   -5.0130    0.3431 C   0  0  0  0  0  0  0  0  0  0  0  0
    5.4589   -4.3891    0.2114 C   0  0  0  0  0  0  0  0  0  0  0  0
    6.9044   -5.3660    0.1826 Cl  0  0  0  0  0  0  0  0  0  0  0  0
    5.4882   -3.0113    0.1074 C   0  0  0  0  0  0  0  0  0  0  0  0
    4.3130   -2.2715    0.1350 C   0  0  0  0  0  0  0  0  0  0  0  0
    4.3206   -0.8268    0.0241 C   0  0  0  0  0  0  0  0  0  0  0  0
    3.2507   -0.1692    0.0418 O   0  0  0  0  0  0  0  0  0  0  0  0
    5.5191   -0.0891   -0.1086 N   0  0  0  0  0  0  0  0  0  0  0  0
    5.5029    1.3527   -0.2198 C   0  0  0  0  0  0  0  0  0  0  0  0
    5.5608    2.0886    0.9371 C   0  0  0  0  0  0  0  0  0  0  0  0
    5.5510    3.4677    0.9101 C   0  0  0  0  0  0  0  0  0  0  0  0
    5.4815    4.0905   -0.3067 C   0  0  0  0  0  0  0  0  0  0  0  0
    5.4661    5.8364   -0.3794 Cl  0  0  0  0  0  0  0  0  0  0  0  0
    5.4242    3.3208   -1.4561 C   0  0  0  0  0  0  0  0  0  0  0  0
    5.4355    1.9803   -1.3981 N   0  0  0  0  0  0  0  0  0  0  0  0
   -0.5710   -0.4552    0.2995 C   0  0  0  0  0  0  0  0  0  0  0  0
   -1.7389    0.3237    0.2799 C   0  0  0  0  0  0  0  0  0  0  0  0
   -6.7404    3.1979    1.8757 H   0  0  0  0  0  0  0  0  0  0  0  0
   -5.7172    3.3473    0.4025 H   0  0  0  0  0  0  0  0  0  0  0  0
   -4.9712    3.3464    2.0383 H   0  0  0  0  0  0  0  0  0  0  0  0
   -5.4361    1.2649    3.4309 H   0  0  0  0  0  0  0  0  0  0  0  0
   -4.1958    0.3650    2.4248 H   0  0  0  0  0  0  0  0  0  0  0  0
   -5.8578   -0.2538    2.4626 H   0  0  0  0  0  0  0  0  0  0  0  0
   -7.1513   -1.4474   -1.5255 H   0  0  0  0  0  0  0  0  0  0  0  0
   -7.1996    0.2245   -2.2977 H   0  0  0  0  0  0  0  0  0  0  0  0
   -5.0239   -0.1931   -2.8131 H   0  0  0  0  0  0  0  0  0  0  0  0
   -4.7860   -1.3927   -1.4565 H   0  0  0  0  0  0  0  0  0  0  0  0
   -3.5457    2.2075   -0.1475 H   0  0  0  0  0  0  0  0  0  0  0  0
   -3.6845    2.0403   -1.9006 H   0  0  0  0  0  0  0  0  0  0  0  0
   -2.3167    0.3660   -3.0098 H   0  0  0  0  0  0  0  0  0  0  0  0
   -0.2249   -1.0267   -2.9547 H   0  0  0  0  0  0  0  0  0  0  0  0
    1.5549   -1.7565    1.2132 H   0  0  0  0  0  0  0  0  0  0  0  0
    2.1092   -4.7329    0.4713 H   0  0  0  0  0  0  0  0  0  0  0  0
    4.1502   -6.0971    0.4293 H   0  0  0  0  0  0  0  0  0  0  0  0
    6.4601   -2.5617    0.0059 H   0  0  0  0  0  0  0  0  0  0  0  0
    6.4222   -0.6068   -0.1251 H   0  0  0  0  0  0  0  0  0  0  0  0
    5.6162    1.6267    1.9135 H   0  0  0  0  0  0  0  0  0  0  0  0
    5.5980    4.0355    1.8518 H   0  0  0  0  0  0  0  0  0  0  0  0
    5.3711    3.8692   -2.3854 H   0  0  0  0  0  0  0  0  0  0  0  0
   -0.1128   -0.6610    1.2612 H   0  0  0  0  0  0  0  0  0  0  0  0
   -2.1635    0.7038    1.1970 H   0  0  0  0  0  0  0  0  0  0  0  0
  1  2  1  0
  2  3  1  0
  2  4  1  0
  4  5  2  0
  5  6  1  0
  6  7  1  0
  7  8  1  0
  8  9  1  0
  9 10  1  0
 10 11  2  0
 11 12  1  0
 12 13  2  0
 13 14  1  0
 14 15  2  0
 14 16  1  0
 16 17  1  0
 17 18  2  0
 18 19  1  0
 19 20  2  0
 20 21  1  0
 20 22  1  0
 22 23  2  0
 23 24  1  0
 24 25  2  0
 24 26  1  0
 26 27  1  0
 27 28  2  0
 28 29  1  0
 29 30  2  0
 30 31  1  0
 30 32  1  0
 32 33  2  0
 13 34  1  0
 34 35  2  0
  8  4  1  0
 35 10  1  0
 23 17  1  0
 33 27  1  0
  1 36  1  0
  1 37  1  0
  1 38  1  0
  3 39  1  0
  3 40  1  0
  3 41  1  0
  6 42  1  0
  6 43  1  0
  7 44  1  0
  7 45  1  0
  9 46  1  0
  9 47  1  0
 11 48  1  0
 12 49  1  0
 16 50  1  0
 18 51  1  0
 19 52  1  0
 22 53  1  0
 26 54  1  0
 28 55  1  0
 29 56  1  0
 32 57  1  0
 34 58  1  0
 35 59  1  0
M  END
$$$$
