@<TRIPOS>MOLECULE
*****
 46 49 0 0 0
SMALL
GASTEIGER

@<TRIPOS>ATOM
      1 C           8.3715    1.4156    0.9217 C.3     1  UNL1        0.0789
      2 O           7.4443    0.3939    1.1718 O.3     1  UNL1       -0.4935
      3 C           6.1671    0.3691    0.6342 C.ar    1  UNL1        0.1395
      4 C           5.3370   -0.6843    0.9466 C.ar    1  UNL1        0.0701
      5 N           4.0765   -0.7750    0.4582 N.ar    1  UNL1       -0.2452
      6 C           3.5672    0.1483   -0.3516 C.ar    1  UNL1        0.1441
      7 C           2.2126    0.0808   -0.8956 C.2     1  UNL1        0.2680
      8 O           1.7829    0.9822   -1.6567 O.2     1  UNL1       -0.2681
      9 N           1.3233   -0.9877   -0.5995 N.am    1  UNL1       -0.2802
     10 C           0.0064   -1.0880   -1.1062 C.ar    1  UNL1        0.0342
     11 C          -0.2087   -1.7393   -2.2933 C.ar    1  UNL1       -0.0377
     12 C          -1.4497   -1.8814   -2.8533 C.ar    1  UNL1       -0.0243
     13 C          -2.5112   -1.3326   -2.1653 C.ar    1  UNL1        0.1291
     14 F          -3.7370   -1.4773   -2.7024 F       1  UNL1       -0.2051
     15 C          -2.3789   -0.6578   -0.9581 C.ar    1  UNL1        0.0198
     16 C          -3.5476   -0.0509   -0.2833 C.3     1  UNL1        0.1284
     17 C          -4.2108    0.9723   -1.1345 C.3     1  UNL1        0.1199
     18 F          -5.3064    1.5409   -0.5324 F       1  UNL1       -0.2462
     19 N          -4.4996   -1.1466   -0.0639 N.2     1  UNL1       -0.2225
     20 C          -5.4543   -1.0909    0.7988 C.2     1  UNL1        0.2763
     21 N          -6.3808   -2.1296    1.0242 N.pl3   1  UNL1       -0.3134
     22 O          -5.5004    0.1281    1.5243 O.2     1  UNL1       -0.4622
     23 C          -4.2979    0.6277    2.0348 C.3     1  UNL1        0.1090
     24 C          -3.5444    1.7837    1.5851 C.3     1  UNL1       -0.0065
     25 C          -3.1535    0.4232    1.0939 C.3     1  UNL1        0.0315
     26 C          -1.1157   -0.5522   -0.4572 C.ar    1  UNL1       -0.0322
     27 C           4.3681    1.2170   -0.6864 C.ar    1  UNL1        0.0749
     28 CL          3.8192    2.5036   -1.7451 Cl      1  UNL1       -0.0811
     29 C           5.6709    1.3384   -0.1993 C.ar    1  UNL1        0.0021
     30 H           9.3562    1.0556    1.3397 H       1  UNL1        0.0660
     31 H           8.5066    1.6391   -0.1556 H       1  UNL1        0.0660
     32 H           8.1241    2.3322    1.5157 H       1  UNL1        0.0660
     33 H           5.7139   -1.4543    1.6011 H       1  UNL1        0.0867
     34 H           1.6624   -1.7459    0.0311 H       1  UNL1        0.1552
     35 H           0.6335   -2.1796   -2.8470 H       1  UNL1        0.0637
     36 H          -1.5643   -2.4034   -3.7907 H       1  UNL1        0.0647
     37 H          -3.5429    1.8222   -1.4035 H       1  UNL1        0.0643
     38 H          -4.6113    0.4711   -2.0496 H       1  UNL1        0.0643
     39 H          -6.1206   -3.1147    0.8218 H       1  UNL1        0.1466
     40 H          -7.3172   -1.9276    1.3883 H       1  UNL1        0.1466
     41 H          -4.1611    0.3551    3.1239 H       1  UNL1        0.0737
     42 H          -3.8492    2.5063    0.8250 H       1  UNL1        0.0306
     43 H          -2.8254    2.2638    2.3201 H       1  UNL1        0.0306
     44 H          -2.2956   -0.0802    1.6163 H       1  UNL1        0.0365
     45 H          -0.8646   -0.0413    0.4581 H       1  UNL1        0.0640
     46 H           6.3057    2.1704   -0.4550 H       1  UNL1        0.0670
@<TRIPOS>BOND
     1     1     2    1
     2     2     3    1
     3     3     4   ar
     4     4     5   ar
     5     5     6   ar
     6     6     7    1
     7     7     8    2
     8     7     9   am
     9     9    10    1
    10    10    11   ar
    11    11    12   ar
    12    12    13   ar
    13    13    14    1
    14    13    15   ar
    15    15    16    1
    16    16    17    1
    17    17    18    1
    18    16    19    1
    19    19    20    2
    20    20    21    1
    21    20    22    1
    22    22    23    1
    23    23    24    1
    24    24    25    1
    25    15    26   ar
    26     6    27   ar
    27    27    28    1
    28    27    29   ar
    29    29     3   ar
    30    26    10   ar
    31    25    16    1
    32    25    23    1
    33     1    30    1
    34     1    31    1
    35     1    32    1
    36     4    33    1
    37     9    34    1
    38    11    35    1
    39    12    36    1
    40    17    37    1
    41    17    38    1
    42    21    39    1
    43    21    40    1
    44    23    41    1
    45    24    42    1
    46    24    43    1
    47    25    44    1
    48    26    45    1
    49    29    46    1
