
     RDKit          3D

 46 49  0  0  0  0  0  0  0  0999 V2000
    8.3715    1.4156    0.9217 C   0  0  0  0  0  0  0  0  0  0  0  0
    7.4443    0.3939    1.1718 O   0  0  0  0  0  0  0  0  0  0  0  0
    6.1671    0.3691    0.6342 C   0  0  0  0  0  0  0  0  0  0  0  0
    5.3370   -0.6843    0.9466 C   0  0  0  0  0  0  0  0  0  0  0  0
    4.0765   -0.7750    0.4582 N   0  0  0  0  0  0  0  0  0  0  0  0
    3.5672    0.1483   -0.3516 C   0  0  0  0  0  0  0  0  0  0  0  0
    2.2126    0.0808   -0.8956 C   0  0  0  0  0  0  0  0  0  0  0  0
    1.7829    0.9822   -1.6567 O   0  0  0  0  0  0  0  0  0  0  0  0
    1.3233   -0.9877   -0.5995 N   0  0  0  0  0  0  0  0  0  0  0  0
    0.0064   -1.0880   -1.1062 C   0  0  0  0  0  0  0  0  0  0  0  0
   -0.2087   -1.7393   -2.2933 C   0  0  0  0  0  0  0  0  0  0  0  0
   -1.4497   -1.8814   -2.8533 C   0  0  0  0  0  0  0  0  0  0  0  0
   -2.5112   -1.3326   -2.1653 C   0  0  0  0  0  0  0  0  0  0  0  0
   -3.7370   -1.4773   -2.7024 F   0  0  0  0  0  0  0  0  0  0  0  0
   -2.3789   -0.6578   -0.9581 C   0  0  0  0  0  0  0  0  0  0  0  0
   -3.5476   -0.0509   -0.2833 C   0  0  1  0  0  0  0  0  0  0  0  0
   -4.2108    0.9723   -1.1345 C   0  0  0  0  0  0  0  0  0  0  0  0
   -5.3064    1.5409   -0.5324 F   0  0  0  0  0  0  0  0  0  0  0  0
   -4.4996   -1.1466   -0.0639 N   0  0  0  0  0  0  0  0  0  0  0  0
   -5.4543   -1.0909    0.7988 C   0  0  0  0  0  0  0  0  0  0  0  0
   -6.3808   -2.1296    1.0242 N   0  0  0  0  0  0  0  0  0  0  0  0
   -5.5004    0.1281    1.5243 O   0  0  0  0  0  0  0  0  0  0  0  0
   -4.2979    0.6277    2.0348 C   0  0  2  0  0  0  0  0  0  0  0  0
   -3.5444    1.7837    1.5851 C   0  0  0  0  0  0  0  0  0  0  0  0
   -3.1535    0.4232    1.0939 C   0  0  2  0  0  0  0  0  0  0  0  0
   -1.1157   -0.5522   -0.4572 C   0  0  0  0  0  0  0  0  0  0  0  0
    4.3681    1.2170   -0.6864 C   0  0  0  0  0  0  0  0  0  0  0  0
    3.8192    2.5036   -1.7451 Cl  0  0  0  0  0  0  0  0  0  0  0  0
    5.6709    1.3384   -0.1993 C   0  0  0  0  0  0  0  0  0  0  0  0
    9.3562    1.0556    1.3397 H   0  0  0  0  0  0  0  0  0  0  0  0
    8.5066    1.6391   -0.1556 H   0  0  0  0  0  0  0  0  0  0  0  0
    8.1241    2.3322    1.5157 H   0  0  0  0  0  0  0  0  0  0  0  0
    5.7139   -1.4543    1.6011 H   0  0  0  0  0  0  0  0  0  0  0  0
    1.6624   -1.7459    0.0311 H   0  0  0  0  0  0  0  0  0  0  0  0
    0.6335   -2.1796   -2.8470 H   0  0  0  0  0  0  0  0  0  0  0  0
   -1.5643   -2.4034   -3.7907 H   0  0  0  0  0  0  0  0  0  0  0  0
   -3.5429    1.8222   -1.4035 H   0  0  0  0  0  0  0  0  0  0  0  0
   -4.6113    0.4711   -2.0496 H   0  0  0  0  0  0  0  0  0  0  0  0
   -6.1206   -3.1147    0.8218 H   0  0  0  0  0  0  0  0  0  0  0  0
   -7.3172   -1.9276    1.3883 H   0  0  0  0  0  0  0  0  0  0  0  0
   -4.1611    0.3551    3.1239 H   0  0  0  0  0  0  0  0  0  0  0  0
   -3.8492    2.5063    0.8250 H   0  0  0  0  0  0  0  0  0  0  0  0
   -2.8254    2.2638    2.3201 H   0  0  0  0  0  0  0  0  0  0  0  0
   -2.2956   -0.0802    1.6163 H   0  0  0  0  0  0  0  0  0  0  0  0
   -0.8646   -0.0413    0.4581 H   0  0  0  0  0  0  0  0  0  0  0  0
    6.3057    2.1704   -0.4550 H   0  0  0  0  0  0  0  0  0  0  0  0
  1  2  1  0
  2  3  1  0
  3  4  2  0
  4  5  1  0
  5  6  2  0
  6  7  1  0
  7  8  2  0
  7  9  1  0
  9 10  1  0
 10 11  2  0
 11 12  1  0
 12 13  2  0
 13 14  1  0
 13 15  1  0
 15 16  1  0
 16 17  1  6
 17 18  1  0
 16 19  1  0
 19 20  2  0
 20 21  1  0
 20 22  1  0
 22 23  1  0
 23 24  1  0
 24 25  1  0
 15 26  2  0
  6 27  1  0
 27 28  1  0
 27 29  2  0
 29  3  1  0
 26 10  1  0
 25 16  1  0
 25 23  1  0
  1 30  1  0
  1 31  1  0
  1 32  1  0
  4 33  1  0
  9 34  1  0
 11 35  1  0
 12 36  1  0
 17 37  1  0
 17 38  1  0
 21 39  1  0
 21 40  1  0
 23 41  1  1
 24 42  1  0
 24 43  1  0
 25 44  1  1
 26 45  1  0
 29 46  1  0
M  END
$$$$
