@<TRIPOS>MOLECULE
*****
 56 59 0 0 0
SMALL
GASTEIGER

@<TRIPOS>ATOM
      1 C           8.8301    0.9857   -1.0281 C.3     1  UNL1        0.0817
      2 O           8.1321   -0.1267   -0.4775 O.3     1  UNL1       -0.4677
      3 C           6.8384   -0.4079   -0.9067 C.2     1  UNL1        0.3100
      4 O           6.2998    0.3288   -1.7776 O.2     1  UNL1       -0.2505
      5 C           6.2646   -1.5997   -0.2322 C.3     1  UNL1        0.0593
      6 C           4.8621   -1.9058   -0.6868 C.3     1  UNL1       -0.0242
      7 C           3.9369   -2.0449    0.5292 C.3     1  UNL1        0.0157
      8 N           3.9753   -0.7633    1.2218 N.am    1  UNL1       -0.2975
      9 C           5.2995   -0.3230    1.6862 C.3     1  UNL1        0.0157
     10 C           6.3031   -1.3538    1.2734 C.3     1  UNL1       -0.0242
     11 C           3.0240    0.2393    1.5984 C.2     1  UNL1        0.2466
     12 O           3.1716    1.3459    2.2126 O.2     1  UNL1       -0.2700
     13 C           1.5940    0.3497    1.4218 C.ar    1  UNL1        0.0370
     14 C           1.0627    0.7497    0.1887 C.ar    1  UNL1       -0.0479
     15 C          -0.2999    0.8803   -0.0603 C.ar    1  UNL1       -0.0401
     16 C          -1.1322    0.5883    0.9996 C.ar    1  UNL1        0.0275
     17 N          -2.5521    0.7068    0.8003 N.pl3   1  UNL1       -0.3382
     18 C          -3.1390    1.1218   -0.4723 C.3     1  UNL1        0.0530
     19 C          -4.6394    1.1627   -0.3585 C.ar    1  UNL1        0.0772
     20 N          -5.4589    0.1291   -0.6244 N.ar    1  UNL1       -0.2419
     21 C          -6.7995    0.2650   -0.4782 C.ar    1  UNL1        0.1477
     22 C          -7.2980    1.4779   -0.0548 C.ar    1  UNL1        0.1851
     23 N          -6.4937    2.5218    0.2152 N.ar    1  UNL1       -0.2324
     24 C          -5.1536    2.3921    0.0713 C.ar    1  UNL1        0.0528
     25 N          -8.6544    1.5329    0.0662 N.ar    1  UNL1       -0.1932
     26 C          -9.4246    0.4656   -0.2137 C.ar    1  UNL1        0.2163
     27 N         -10.8379    0.5804   -0.0674 N.pl3   1  UNL1       -0.3274
     28 N          -8.9057   -0.7136   -0.6276 N.ar    1  UNL1       -0.1978
     29 C          -7.5543   -0.8491   -0.7745 C.ar    1  UNL1        0.1491
     30 N          -6.9717   -2.0715   -1.2076 N.pl3   1  UNL1       -0.3413
     31 C          -0.7097    0.1896    2.2416 C.ar    1  UNL1       -0.0401
     32 C           0.6666    0.0837    2.4077 C.ar    1  UNL1       -0.0479
     33 H           8.8369    0.8991   -2.1377 H       1  UNL1        0.0661
     34 H           9.8387    1.0024   -0.5915 H       1  UNL1        0.0661
     35 H           8.3381    1.9354   -0.6767 H       1  UNL1        0.0661
     36 H           6.9387   -2.4556   -0.4312 H       1  UNL1        0.0414
     37 H           4.8073   -2.8073   -1.3234 H       1  UNL1        0.0288
     38 H           4.5013   -1.0296   -1.2589 H       1  UNL1        0.0288
     39 H           4.2172   -2.8702    1.1809 H       1  UNL1        0.0465
     40 H           2.9128   -2.1876    0.0914 H       1  UNL1        0.0465
     41 H           5.5509    0.6605    1.2402 H       1  UNL1        0.0465
     42 H           5.3141   -0.2302    2.7804 H       1  UNL1        0.0465
     43 H           6.1088   -2.2883    1.8461 H       1  UNL1        0.0288
     44 H           7.3156   -0.9795    1.4951 H       1  UNL1        0.0288
     45 H           1.7851    0.9557   -0.5839 H       1  UNL1        0.0626
     46 H          -0.6309    1.1881   -1.0218 H       1  UNL1        0.0636
     47 H          -3.2220    0.4938    1.5768 H       1  UNL1        0.1465
     48 H          -2.7228    2.0936   -0.7542 H       1  UNL1        0.0527
     49 H          -2.8449    0.3979   -1.2799 H       1  UNL1        0.0527
     50 H          -4.5802    3.2776    0.3104 H       1  UNL1        0.0849
     51 H         -11.4976   -0.1001   -0.5477 H       1  UNL1        0.1452
     52 H         -11.2936    1.3336    0.5140 H       1  UNL1        0.1452
     53 H          -6.7698   -2.4373   -0.2292 H       1  UNL1        0.1438
     54 H          -6.7736   -2.5237   -2.1279 H       1  UNL1        0.1438
     55 H          -1.3798   -0.0347    3.0589 H       1  UNL1        0.0636
     56 H           1.0134   -0.2313    3.3860 H       1  UNL1        0.0626
@<TRIPOS>BOND
     1     1     2    1
     2     2     3    1
     3     3     4    2
     4     3     5    1
     5     5     6    1
     6     6     7    1
     7     7     8    1
     8     8     9    1
     9     9    10    1
    10     8    11   am
    11    11    12    2
    12    11    13    1
    13    13    14   ar
    14    14    15   ar
    15    15    16   ar
    16    16    17    1
    17    17    18    1
    18    18    19    1
    19    19    20   ar
    20    20    21   ar
    21    21    22   ar
    22    22    23   ar
    23    23    24   ar
    24    22    25   ar
    25    25    26   ar
    26    26    27    1
    27    26    28   ar
    28    28    29   ar
    29    29    30    1
    30    16    31   ar
    31    31    32   ar
    32    10     5    1
    33    32    13   ar
    34    24    19   ar
    35    29    21   ar
    36     1    33    1
    37     1    34    1
    38     1    35    1
    39     5    36    1
    40     6    37    1
    41     6    38    1
    42     7    39    1
    43     7    40    1
    44     9    41    1
    45     9    42    1
    46    10    43    1
    47    10    44    1
    48    14    45    1
    49    15    46    1
    50    17    47    1
    51    18    48    1
    52    18    49    1
    53    24    50    1
    54    27    51    1
    55    27    52    1
    56    30    53    1
    57    30    54    1
    58    31    55    1
    59    32    56    1
