@<TRIPOS>MOLECULE
*****
 68 71 0 0 0
SMALL
GASTEIGER

@<TRIPOS>ATOM
      1 N          -1.9938    6.3621    0.2571 N.pl3   1  UNL1       -0.2889
      2 C          -1.6975    6.8922   -1.0280 C.cat   1  UNL1        0.3821
      3 N          -1.6684    8.2969   -1.2023 N.pl3   1  UNL1       -0.2889
      4 N          -1.4588    6.1123   -2.0193 N.pl3   1  UNL1       -0.0734
      5 C          -1.4800    4.6987   -1.8770 C.ar    1  UNL1        0.1420
      6 C          -2.5484    4.1077   -1.2369 C.ar    1  UNL1       -0.0194
      7 C          -2.5807    2.7365   -1.0926 C.ar    1  UNL1       -0.0551
      8 C          -1.5536    1.9344   -1.5814 C.ar    1  UNL1       -0.0447
      9 C          -1.6086    0.4758   -1.4276 C.3     1  UNL1        0.0044
     10 C          -1.0348   -0.0621   -0.1609 C.3     1  UNL1        0.1544
     11 N          -1.2040   -1.5238   -0.2227 N.am    1  UNL1       -0.2648
     12 C          -2.0109   -2.2393    0.6809 C.2     1  UNL1        0.4013
     13 O          -2.6170   -1.6036    1.5825 O.2     1  UNL1       -0.2265
     14 O          -2.1854   -3.6117    0.6452 O.3     1  UNL1       -0.4456
     15 C          -3.0226   -4.2842    1.5952 C.3     1  UNL1        0.1191
     16 C          -3.0533   -5.7287    1.3654 C.ar    1  UNL1       -0.0103
     17 C          -2.1368   -6.5531    1.9830 C.ar    1  UNL1       -0.0554
     18 C          -2.1781   -7.9316    1.7517 C.ar    1  UNL1       -0.0614
     19 C          -3.1105   -8.4989    0.9214 C.ar    1  UNL1       -0.0617
     20 C          -4.0303   -7.6718    0.3015 C.ar    1  UNL1       -0.0614
     21 C          -3.9860   -6.3035    0.5337 C.ar    1  UNL1       -0.0554
     22 P           0.7303    0.3254    0.0445 P.3     1  UNL1        0.4540
     23 O           0.8824    1.8111    0.0533 O.2     1  UNL1       -0.2304
     24 O           1.5601   -0.4145   -1.2574 O.3     1  UNL1       -0.4144
     25 C           2.7454    0.0338   -1.7923 C.ar    1  UNL1        0.1309
     26 C           2.7716    0.4869   -3.0920 C.ar    1  UNL1       -0.0194
     27 C           3.9341    0.9472   -3.6763 C.ar    1  UNL1       -0.0583
     28 C           5.1098    0.9624   -2.9580 C.ar    1  UNL1       -0.0615
     29 C           5.0977    0.5163   -1.6698 C.ar    1  UNL1       -0.0583
     30 C           3.9286    0.0561   -1.0904 C.ar    1  UNL1       -0.0194
     31 O           1.1987   -0.3778    1.5385 O.3     1  UNL1       -0.4144
     32 C           2.3146    0.0118    2.2574 C.ar    1  UNL1        0.1309
     33 C           2.6978    1.3196    2.4474 C.ar    1  UNL1       -0.0194
     34 C           3.8173    1.6832    3.1694 C.ar    1  UNL1       -0.0583
     35 C           4.6091    0.6847    3.7408 C.ar    1  UNL1       -0.0615
     36 C           4.2457   -0.6324    3.5644 C.ar    1  UNL1       -0.0583
     37 C           3.1200   -0.9674    2.8369 C.ar    1  UNL1       -0.0194
     38 C          -0.4955    2.5232   -2.2158 C.ar    1  UNL1       -0.0551
     39 C          -0.4569    3.9138   -2.3653 C.ar    1  UNL1       -0.0194
     40 H          -1.5057    5.5387    0.6519 H       1  UNL1        0.2547
     41 H          -2.7458    6.8502    0.8048 H       1  UNL1        0.2547
     42 H          -1.2630    8.7330   -2.0698 H       1  UNL1        0.2547
     43 H          -2.0440    8.9457   -0.4851 H       1  UNL1        0.2547
     44 H          -3.3493    4.7252   -0.8552 H       1  UNL1        0.0653
     45 H          -3.4394    2.3007   -0.5820 H       1  UNL1        0.0621
     46 H          -1.0898   -0.0600   -2.2682 H       1  UNL1        0.0338
     47 H          -2.6839    0.1834   -1.4735 H       1  UNL1        0.0338
     48 H          -1.6370    0.2870    0.6905 H       1  UNL1        0.0652
     49 H          -0.6914   -2.0236   -0.9797 H       1  UNL1        0.1530
     50 H          -4.0425   -3.8390    1.5161 H       1  UNL1        0.0749
     51 H          -2.6592   -4.1009    2.6323 H       1  UNL1        0.0749
     52 H          -1.4126   -6.1128    2.6283 H       1  UNL1        0.0621
     53 H          -1.4528   -8.5531    2.2448 H       1  UNL1        0.0618
     54 H          -3.1053   -9.5798    0.7703 H       1  UNL1        0.0618
     55 H          -4.7774   -8.1173   -0.3625 H       1  UNL1        0.0618
     56 H          -4.7159   -5.6629    0.0400 H       1  UNL1        0.0621
     57 H           1.8896    0.5032   -3.7149 H       1  UNL1        0.0654
     58 H           3.9250    1.3034   -4.7172 H       1  UNL1        0.0619
     59 H           6.0395    1.3287   -3.4191 H       1  UNL1        0.0618
     60 H           6.0407    0.5329   -1.1069 H       1  UNL1        0.0619
     61 H           3.9792   -0.2834   -0.0768 H       1  UNL1        0.0654
     62 H           2.1044    2.1120    2.0174 H       1  UNL1        0.0654
     63 H           4.1149    2.7118    3.3167 H       1  UNL1        0.0619
     64 H           5.5001    0.9134    4.3182 H       1  UNL1        0.0618
     65 H           4.8202   -1.4661    3.9842 H       1  UNL1        0.0619
     66 H           2.8207   -1.9950    2.6883 H       1  UNL1        0.0654
     67 H           0.3338    1.9627   -2.6222 H       1  UNL1        0.0621
     68 H           0.3952    4.3743   -2.8747 H       1  UNL1        0.0653
@<TRIPOS>BOND
     1     1     2    1
     2     2     3    1
     3     2     4    2
     4     4     5    1
     5     5     6   ar
     6     6     7   ar
     7     7     8   ar
     8     8     9    1
     9     9    10    1
    10    10    11    1
    11    11    12   am
    12    12    13    2
    13    12    14    1
    14    14    15    1
    15    15    16    1
    16    16    17   ar
    17    17    18   ar
    18    18    19   ar
    19    19    20   ar
    20    20    21   ar
    21    10    22    1
    22    22    23    2
    23    22    24    1
    24    24    25    1
    25    25    26   ar
    26    26    27   ar
    27    27    28   ar
    28    28    29   ar
    29    29    30   ar
    30    22    31    1
    31    31    32    1
    32    32    33   ar
    33    33    34   ar
    34    34    35   ar
    35    35    36   ar
    36    36    37   ar
    37     8    38   ar
    38    38    39   ar
    39    39     5   ar
    40    21    16   ar
    41    30    25   ar
    42    37    32   ar
    43     1    40    1
    44     1    41    1
    45     3    42    1
    46     3    43    1
    47     6    44    1
    48     7    45    1
    49     9    46    1
    50     9    47    1
    51    10    48    1
    52    11    49    1
    53    15    50    1
    54    15    51    1
    55    17    52    1
    56    18    53    1
    57    19    54    1
    58    20    55    1
    59    21    56    1
    60    26    57    1
    61    27    58    1
    62    28    59    1
    63    29    60    1
    64    30    61    1
    65    33    62    1
    66    34    63    1
    67    35    64    1
    68    36    65    1
    69    37    66    1
    70    38    67    1
    71    39    68    1
