@<TRIPOS>MOLECULE
*****
 45 47 0 0 0
SMALL
GASTEIGER

@<TRIPOS>ATOM
      1 C           3.3500    2.1085   -0.8906 C.3     1  UNL1       -0.0131
      2 N           3.7044    0.7508   -0.6632 N.3     1  UNL1       -0.3083
      3 C           4.5665    0.1776   -1.6383 C.3     1  UNL1       -0.0131
      4 C           2.6175   -0.1024   -0.2204 C.3     1  UNL1       -0.0016
      5 C           1.5757   -0.3353   -1.2482 C.3     1  UNL1       -0.0370
      6 C           0.4378   -1.2309   -0.8595 C.3     1  UNL1       -0.0142
      7 C          -0.3840   -0.7660    0.2976 C.3     1  UNL1        0.1201
      8 O           0.3568   -0.6482    1.4324 O.3     1  UNL1       -0.3595
      9 C          -0.2116    0.3477    2.2205 C.3     1  UNL1        0.0747
     10 C          -0.9055    1.2550    1.2733 C.ar    1  UNL1       -0.0144
     11 C          -1.0134    0.5561    0.0672 C.ar    1  UNL1       -0.0060
     12 C          -1.6321    1.2294   -0.9496 C.ar    1  UNL1       -0.0540
     13 C          -2.1191    2.5283   -0.7804 C.ar    1  UNL1       -0.0440
     14 C          -1.9843    3.1760    0.4425 C.ar    1  UNL1        0.0521
     15 C          -1.3661    2.5158    1.4742 C.ar    1  UNL1       -0.0386
     16 C          -2.4614    4.5116    0.6871 C.1     1  UNL1        0.0992
     17 N          -2.8478    5.5869    0.8813 N.1     1  UNL1       -0.1909
     18 C          -1.4377   -1.8073    0.5698 C.ar    1  UNL1       -0.0113
     19 C          -2.4139   -2.0095   -0.3983 C.ar    1  UNL1       -0.0528
     20 C          -3.4119   -2.9458   -0.2285 C.ar    1  UNL1       -0.0261
     21 C          -3.4635   -3.7127    0.9223 C.ar    1  UNL1        0.1234
     22 F          -4.4452   -4.6430    1.1038 F       1  UNL1       -0.2055
     23 C          -2.4967   -3.5209    1.8947 C.ar    1  UNL1       -0.0261
     24 C          -1.5066   -2.5801    1.7072 C.ar    1  UNL1       -0.0528
     25 H           3.5834    2.7528   -0.0090 H       1  UNL1        0.0391
     26 H           2.2899    2.2091   -1.1312 H       1  UNL1        0.0391
     27 H           4.0151    2.5240   -1.7044 H       1  UNL1        0.0391
     28 H           4.9048    0.9487   -2.3898 H       1  UNL1        0.0391
     29 H           5.5079   -0.1820   -1.1512 H       1  UNL1        0.0391
     30 H           4.0897   -0.6914   -2.1207 H       1  UNL1        0.0391
     31 H           2.2108    0.4282    0.6863 H       1  UNL1        0.0426
     32 H           3.0258   -1.0583    0.1417 H       1  UNL1        0.0426
     33 H           2.0645   -0.7680   -2.1504 H       1  UNL1        0.0279
     34 H           1.0865    0.6366   -1.5680 H       1  UNL1        0.0279
     35 H           0.8755   -2.2295   -0.5923 H       1  UNL1        0.0300
     36 H          -0.1910   -1.4601   -1.7584 H       1  UNL1        0.0300
     37 H           0.5684    0.9177    2.7728 H       1  UNL1        0.0610
     38 H          -0.9846   -0.0914    2.8784 H       1  UNL1        0.0610
     39 H          -1.7375    0.7312   -1.8949 H       1  UNL1        0.0622
     40 H          -2.6125    3.0596   -1.5977 H       1  UNL1        0.0630
     41 H          -1.2508    3.0051    2.4380 H       1  UNL1        0.0634
     42 H          -2.4780   -1.4827   -1.3194 H       1  UNL1        0.0622
     43 H          -4.1984   -3.1478   -0.9467 H       1  UNL1        0.0646
     44 H          -2.5231   -4.1128    2.8006 H       1  UNL1        0.0646
     45 H          -0.7540   -2.4307    2.4605 H       1  UNL1        0.0622
@<TRIPOS>BOND
     1     1     2    1
     2     2     3    1
     3     2     4    1
     4     4     5    1
     5     5     6    1
     6     6     7    1
     7     7     8    1
     8     8     9    1
     9     9    10    1
    10    10    11   ar
    11    11    12   ar
    12    12    13   ar
    13    13    14   ar
    14    14    15   ar
    15    14    16    1
    16    16    17    3
    17     7    18    1
    18    18    19   ar
    19    19    20   ar
    20    20    21   ar
    21    21    22    1
    22    21    23   ar
    23    23    24   ar
    24    11     7    1
    25    24    18   ar
    26    15    10   ar
    27     1    25    1
    28     1    26    1
    29     1    27    1
    30     3    28    1
    31     3    29    1
    32     3    30    1
    33     4    31    1
    34     4    32    1
    35     5    33    1
    36     5    34    1
    37     6    35    1
    38     6    36    1
    39     9    37    1
    40     9    38    1
    41    12    39    1
    42    13    40    1
    43    15    41    1
    44    19    42    1
    45    20    43    1
    46    23    44    1
    47    24    45    1
