@<TRIPOS>MOLECULE
*****
 72 74 0 0 0
SMALL
GASTEIGER

@<TRIPOS>ATOM
      1 C           8.5550    2.4262   -1.3791 C.3     1  UNL1       -0.0224
      2 C           7.6188    1.4529   -0.7341 C.ar    1  UNL1        0.0385
      3 C           6.4907    1.0103   -1.4068 C.ar    1  UNL1       -0.0375
      4 C           5.6184    0.1090   -0.8195 C.ar    1  UNL1       -0.0442
      5 C           4.4251   -0.3372   -1.5745 C.3     1  UNL1       -0.0393
      6 C           5.8510   -0.3725    0.4541 C.ar    1  UNL1       -0.0263
      7 C           4.9482   -1.3392    1.1295 C.3     1  UNL1       -0.0257
      8 C           3.6936   -0.6721    1.6351 C.3     1  UNL1       -0.0461
      9 C           2.7748   -1.6275    2.3183 C.3     1  UNL1       -0.0383
     10 C           1.5470   -0.9357    2.8073 C.3     1  UNL1       -0.0357
     11 C           0.5827   -0.5426    1.7158 C.3     1  UNL1        0.0204
     12 N           0.2630   -1.6976    0.9456 N.3     1  UNL1       -0.1810
     13 S          -0.8981   -1.3171   -0.3467 S.O2    1  UNL1        0.0339
     14 O          -1.0429   -2.6835   -1.0258 O.2     1  UNL1       -0.1580
     15 O          -0.1649   -0.3407   -1.1919 O.2     1  UNL1       -0.1580
     16 C          -2.3200   -0.7651    0.4404 C.3     1  UNL1        0.1053
     17 C          -3.5163   -0.3300   -0.3802 C.3     1  UNL1        0.0821
     18 C          -3.1685    0.8398   -1.2764 C.3     1  UNL1       -0.0396
     19 C          -4.6175   -0.0942    0.5571 C.3     1  UNL1       -0.0183
     20 C          -5.9294    0.3974    0.1501 C.3     1  UNL1        0.0182
     21 C          -6.7628   -0.3465   -0.8194 C.3     1  UNL1       -0.0554
     22 C          -5.9973    1.8924   -0.0945 C.ar    1  UNL1        0.1320
     23 N          -5.8211    2.4259   -1.3019 N.ar    1  UNL1       -0.2372
     24 C          -5.8805    3.7460   -1.4787 C.ar    1  UNL1        0.0663
     25 C          -6.1247    4.5966   -0.4246 C.ar    1  UNL1        0.1594
     26 F          -6.1908    5.9446   -0.5768 F       1  UNL1       -0.2023
     27 C          -6.3088    4.0561    0.8299 C.ar    1  UNL1        0.0663
     28 N          -6.2351    2.7155    0.9331 N.ar    1  UNL1       -0.2372
     29 N          -3.7989   -1.4358   -1.2737 N.am    1  UNL1       -0.1788
     30 O          -4.7688   -2.3019   -0.9467 O.3     1  UNL1       -0.2921
     31 C          -3.0518   -1.6638   -2.4481 C.2     1  UNL1        0.2256
     32 O          -3.3152   -2.6621   -3.1950 O.2     1  UNL1       -0.2772
     33 C           1.4236   -2.3287    0.3516 C.3     1  UNL1        0.0204
     34 C           2.3423   -2.7835    1.4430 C.3     1  UNL1       -0.0357
     35 C           6.9935    0.1020    1.0838 C.ar    1  UNL1        0.0313
     36 N           7.8304    0.9771    0.4995 N.ar    1  UNL1       -0.2599
     37 H           9.0722    3.0525   -0.6271 H       1  UNL1        0.0292
     38 H           9.3282    1.8626   -1.9530 H       1  UNL1        0.0292
     39 H           7.9841    3.0282   -2.1052 H       1  UNL1        0.0292
     40 H           6.3183    1.4010   -2.4178 H       1  UNL1        0.0638
     41 H           4.0970   -1.3497   -1.2967 H       1  UNL1        0.0278
     42 H           4.6550   -0.3969   -2.6780 H       1  UNL1        0.0278
     43 H           3.5939    0.4037   -1.5068 H       1  UNL1        0.0278
     44 H           5.4794   -1.7639    2.0037 H       1  UNL1        0.0314
     45 H           4.6839   -2.1839    0.4658 H       1  UNL1        0.0314
     46 H           3.2029   -0.1060    0.8148 H       1  UNL1        0.0271
     47 H           4.0075    0.0857    2.3810 H       1  UNL1        0.0271
     48 H           3.2949   -2.0607    3.1884 H       1  UNL1        0.0302
     49 H           0.9671   -1.5259    3.5522 H       1  UNL1        0.0281
     50 H           1.8765   -0.0171    3.3583 H       1  UNL1        0.0281
     51 H          -0.3022   -0.0744    2.1423 H       1  UNL1        0.0444
     52 H           1.1546    0.1519    1.0387 H       1  UNL1        0.0444
     53 H          -2.0234    0.0848    1.1374 H       1  UNL1        0.0538
     54 H          -2.6341   -1.5629    1.1827 H       1  UNL1        0.0538
     55 H          -2.1463    0.6579   -1.6763 H       1  UNL1        0.0252
     56 H          -3.8117    0.7689   -2.1892 H       1  UNL1        0.0252
     57 H          -3.1825    1.8063   -0.7726 H       1  UNL1        0.0252
     58 H          -4.7870   -1.0508    1.1413 H       1  UNL1        0.0294
     59 H          -4.2366    0.6066    1.3610 H       1  UNL1        0.0294
     60 H          -6.5546    0.3158    1.1314 H       1  UNL1        0.0377
     61 H          -6.3970   -0.4216   -1.8501 H       1  UNL1        0.0236
     62 H          -7.1705   -1.2954   -0.4730 H       1  UNL1        0.0236
     63 H          -7.7109    0.3039   -0.9430 H       1  UNL1        0.0236
     64 H          -5.7364    4.2038   -2.4735 H       1  UNL1        0.0860
     65 H          -6.5051    4.6980    1.6929 H       1  UNL1        0.0860
     66 H          -4.5392   -2.8916   -0.1990 H       1  UNL1        0.2417
     67 H          -2.2420   -1.0393   -2.7866 H       1  UNL1        0.1274
     68 H           1.9591   -1.5194   -0.2239 H       1  UNL1        0.0444
     69 H           1.1756   -3.1579   -0.3076 H       1  UNL1        0.0444
     70 H           1.7316   -3.4535    2.1147 H       1  UNL1        0.0281
     71 H           3.1701   -3.3975    1.0758 H       1  UNL1        0.0281
     72 H           7.1830   -0.2778    2.0969 H       1  UNL1        0.0832
@<TRIPOS>BOND
     1     1     2    1
     2     2     3   ar
     3     3     4   ar
     4     4     5    1
     5     4     6   ar
     6     6     7    1
     7     7     8    1
     8     8     9    1
     9     9    10    1
    10    10    11    1
    11    11    12    1
    12    12    13    1
    13    13    14    2
    14    13    15    2
    15    13    16    1
    16    16    17    1
    17    17    18    1
    18    17    19    1
    19    19    20    1
    20    20    21    1
    21    20    22    1
    22    22    23   ar
    23    23    24   ar
    24    24    25   ar
    25    25    26    1
    26    25    27   ar
    27    27    28   ar
    28    17    29    1
    29    29    30    1
    30    29    31   am
    31    31    32    2
    32    12    33    1
    33    33    34    1
    34     6    35   ar
    35    35    36   ar
    36    36     2   ar
    37    34     9    1
    38    28    22   ar
    39     1    37    1
    40     1    38    1
    41     1    39    1
    42     3    40    1
    43     5    41    1
    44     5    42    1
    45     5    43    1
    46     7    44    1
    47     7    45    1
    48     8    46    1
    49     8    47    1
    50     9    48    1
    51    10    49    1
    52    10    50    1
    53    11    51    1
    54    11    52    1
    55    16    53    1
    56    16    54    1
    57    18    55    1
    58    18    56    1
    59    18    57    1
    60    19    58    1
    61    19    59    1
    62    20    60    1
    63    21    61    1
    64    21    62    1
    65    21    63    1
    66    24    64    1
    67    27    65    1
    68    30    66    1
    69    31    67    1
    70    33    68    1
    71    33    69    1
    72    34    70    1
    73    34    71    1
    74    35    72    1
