
     RDKit          3D

 72 74  0  0  0  0  0  0  0  0999 V2000
    8.5550    2.4262   -1.3791 C   0  0  0  0  0  0  0  0  0  0  0  0
    7.6188    1.4529   -0.7341 C   0  0  0  0  0  0  0  0  0  0  0  0
    6.4907    1.0103   -1.4068 C   0  0  0  0  0  0  0  0  0  0  0  0
    5.6184    0.1090   -0.8195 C   0  0  0  0  0  0  0  0  0  0  0  0
    4.4251   -0.3372   -1.5745 C   0  0  0  0  0  0  0  0  0  0  0  0
    5.8510   -0.3725    0.4541 C   0  0  0  0  0  0  0  0  0  0  0  0
    4.9482   -1.3392    1.1295 C   0  0  0  0  0  0  0  0  0  0  0  0
    3.6936   -0.6721    1.6351 C   0  0  0  0  0  0  0  0  0  0  0  0
    2.7748   -1.6275    2.3183 C   0  0  0  0  0  0  0  0  0  0  0  0
    1.5470   -0.9357    2.8073 C   0  0  0  0  0  0  0  0  0  0  0  0
    0.5827   -0.5426    1.7158 C   0  0  0  0  0  0  0  0  0  0  0  0
    0.2630   -1.6976    0.9456 N   0  0  0  0  0  0  0  0  0  0  0  0
   -0.8981   -1.3171   -0.3467 S   0  0  0  0  0  6  0  0  0  0  0  0
   -1.0429   -2.6835   -1.0258 O   0  0  0  0  0  0  0  0  0  0  0  0
   -0.1649   -0.3407   -1.1919 O   0  0  0  0  0  0  0  0  0  0  0  0
   -2.3200   -0.7651    0.4404 C   0  0  0  0  0  0  0  0  0  0  0  0
   -3.5163   -0.3300   -0.3802 C   0  0  2  0  0  0  0  0  0  0  0  0
   -3.1685    0.8398   -1.2764 C   0  0  0  0  0  0  0  0  0  0  0  0
   -4.6175   -0.0942    0.5571 C   0  0  0  0  0  0  0  0  0  0  0  0
   -5.9294    0.3974    0.1501 C   0  0  2  0  0  0  0  0  0  0  0  0
   -6.7628   -0.3465   -0.8194 C   0  0  0  0  0  0  0  0  0  0  0  0
   -5.9973    1.8924   -0.0945 C   0  0  0  0  0  0  0  0  0  0  0  0
   -5.8211    2.4259   -1.3019 N   0  0  0  0  0  0  0  0  0  0  0  0
   -5.8805    3.7460   -1.4787 C   0  0  0  0  0  0  0  0  0  0  0  0
   -6.1247    4.5966   -0.4246 C   0  0  0  0  0  0  0  0  0  0  0  0
   -6.1908    5.9446   -0.5768 F   0  0  0  0  0  0  0  0  0  0  0  0
   -6.3088    4.0561    0.8299 C   0  0  0  0  0  0  0  0  0  0  0  0
   -6.2351    2.7155    0.9331 N   0  0  0  0  0  0  0  0  0  0  0  0
   -3.7989   -1.4358   -1.2737 N   0  0  0  0  0  0  0  0  0  0  0  0
   -4.7688   -2.3019   -0.9467 O   0  0  0  0  0  0  0  0  0  0  0  0
   -3.0518   -1.6638   -2.4481 C   0  0  0  0  0  0  0  0  0  0  0  0
   -3.3152   -2.6621   -3.1950 O   0  0  0  0  0  0  0  0  0  0  0  0
    1.4236   -2.3287    0.3516 C   0  0  0  0  0  0  0  0  0  0  0  0
    2.3423   -2.7835    1.4430 C   0  0  0  0  0  0  0  0  0  0  0  0
    6.9935    0.1020    1.0838 C   0  0  0  0  0  0  0  0  0  0  0  0
    7.8304    0.9771    0.4995 N   0  0  0  0  0  0  0  0  0  0  0  0
    9.0722    3.0525   -0.6271 H   0  0  0  0  0  0  0  0  0  0  0  0
    9.3282    1.8626   -1.9530 H   0  0  0  0  0  0  0  0  0  0  0  0
    7.9841    3.0282   -2.1052 H   0  0  0  0  0  0  0  0  0  0  0  0
    6.3183    1.4010   -2.4178 H   0  0  0  0  0  0  0  0  0  0  0  0
    4.0970   -1.3497   -1.2967 H   0  0  0  0  0  0  0  0  0  0  0  0
    4.6550   -0.3969   -2.6780 H   0  0  0  0  0  0  0  0  0  0  0  0
    3.5939    0.4037   -1.5068 H   0  0  0  0  0  0  0  0  0  0  0  0
    5.4794   -1.7639    2.0037 H   0  0  0  0  0  0  0  0  0  0  0  0
    4.6839   -2.1839    0.4658 H   0  0  0  0  0  0  0  0  0  0  0  0
    3.2029   -0.1060    0.8148 H   0  0  0  0  0  0  0  0  0  0  0  0
    4.0075    0.0857    2.3810 H   0  0  0  0  0  0  0  0  0  0  0  0
    3.2949   -2.0607    3.1884 H   0  0  0  0  0  0  0  0  0  0  0  0
    0.9671   -1.5259    3.5522 H   0  0  0  0  0  0  0  0  0  0  0  0
    1.8765   -0.0171    3.3583 H   0  0  0  0  0  0  0  0  0  0  0  0
   -0.3022   -0.0744    2.1423 H   0  0  0  0  0  0  0  0  0  0  0  0
    1.1546    0.1519    1.0387 H   0  0  0  0  0  0  0  0  0  0  0  0
   -2.0234    0.0848    1.1374 H   0  0  0  0  0  0  0  0  0  0  0  0
   -2.6341   -1.5629    1.1827 H   0  0  0  0  0  0  0  0  0  0  0  0
   -2.1463    0.6579   -1.6763 H   0  0  0  0  0  0  0  0  0  0  0  0
   -3.8117    0.7689   -2.1892 H   0  0  0  0  0  0  0  0  0  0  0  0
   -3.1825    1.8063   -0.7726 H   0  0  0  0  0  0  0  0  0  0  0  0
   -4.7870   -1.0508    1.1413 H   0  0  0  0  0  0  0  0  0  0  0  0
   -4.2366    0.6066    1.3610 H   0  0  0  0  0  0  0  0  0  0  0  0
   -6.5546    0.3158    1.1314 H   0  0  0  0  0  0  0  0  0  0  0  0
   -6.3970   -0.4216   -1.8501 H   0  0  0  0  0  0  0  0  0  0  0  0
   -7.1705   -1.2954   -0.4730 H   0  0  0  0  0  0  0  0  0  0  0  0
   -7.7109    0.3039   -0.9430 H   0  0  0  0  0  0  0  0  0  0  0  0
   -5.7364    4.2038   -2.4735 H   0  0  0  0  0  0  0  0  0  0  0  0
   -6.5051    4.6980    1.6929 H   0  0  0  0  0  0  0  0  0  0  0  0
   -4.5392   -2.8916   -0.1990 H   0  0  0  0  0  0  0  0  0  0  0  0
   -2.2420   -1.0393   -2.7866 H   0  0  0  0  0  0  0  0  0  0  0  0
    1.9591   -1.5194   -0.2239 H   0  0  0  0  0  0  0  0  0  0  0  0
    1.1756   -3.1579   -0.3076 H   0  0  0  0  0  0  0  0  0  0  0  0
    1.7316   -3.4535    2.1147 H   0  0  0  0  0  0  0  0  0  0  0  0
    3.1701   -3.3975    1.0758 H   0  0  0  0  0  0  0  0  0  0  0  0
    7.1830   -0.2778    2.0969 H   0  0  0  0  0  0  0  0  0  0  0  0
  1  2  1  0
  2  3  2  0
  3  4  1  0
  4  5  1  0
  4  6  2  0
  6  7  1  0
  7  8  1  0
  8  9  1  0
  9 10  1  0
 10 11  1  0
 11 12  1  0
 12 13  1  0
 13 14  2  0
 13 15  2  0
 13 16  1  0
 16 17  1  0
 17 18  1  0
 17 19  1  0
 19 20  1  0
 20 21  1  0
 20 22  1  0
 22 23  2  0
 23 24  1  0
 24 25  2  0
 25 26  1  0
 25 27  1  0
 27 28  2  0
 17 29  1  6
 29 30  1  0
 29 31  1  0
 31 32  2  0
 12 33  1  0
 33 34  1  0
  6 35  1  0
 35 36  2  0
 36  2  1  0
 34  9  1  0
 28 22  1  0
  1 37  1  0
  1 38  1  0
  1 39  1  0
  3 40  1  0
  5 41  1  0
  5 42  1  0
  5 43  1  0
  7 44  1  0
  7 45  1  0
  8 46  1  0
  8 47  1  0
  9 48  1  0
 10 49  1  0
 10 50  1  0
 11 51  1  0
 11 52  1  0
 16 53  1  0
 16 54  1  0
 18 55  1  0
 18 56  1  0
 18 57  1  0
 19 58  1  0
 19 59  1  0
 20 60  1  1
 21 61  1  0
 21 62  1  0
 21 63  1  0
 24 64  1  0
 27 65  1  0
 30 66  1  0
 31 67  1  0
 33 68  1  0
 33 69  1  0
 34 70  1  0
 34 71  1  0
 35 72  1  0
M  END
$$$$
