@<TRIPOS>MOLECULE
*****
 48 50 0 0 0
SMALL
GASTEIGER

@<TRIPOS>ATOM
      1 C           4.4462   -1.2848   -2.3298 C.3     1  UNL1       -0.0375
      2 C           4.7903   -0.6135   -1.0649 C.ar    1  UNL1       -0.0187
      3 C           6.1021   -0.7016   -0.5806 C.ar    1  UNL1       -0.0378
      4 C           6.4292   -0.0773    0.5988 C.ar    1  UNL1        0.0701
      5 C           7.7573   -0.1264    1.1548 C.1     1  UNL1        0.1007
      6 N           8.8120   -0.1588    1.5932 N.1     1  UNL1       -0.1908
      7 C           5.4676    0.6222    1.2841 C.ar    1  UNL1        0.0458
      8 N           4.2420    0.6765    0.7858 N.ar    1  UNL1       -0.2488
      9 C           3.8423    0.0951   -0.3582 C.ar    1  UNL1        0.1286
     10 C           2.4609    0.2028   -0.8435 C.2     1  UNL1        0.2668
     11 O           2.1213   -0.3531   -1.9163 O.2     1  UNL1       -0.2682
     12 N           1.4691    0.9226   -0.1401 N.am    1  UNL1       -0.2801
     13 C           0.1219    1.0485   -0.5792 C.ar    1  UNL1        0.0369
     14 C          -0.1826    2.1177   -1.3940 C.ar    1  UNL1       -0.0023
     15 C          -1.4793    2.2600   -1.8311 C.ar    1  UNL1        0.1605
     16 F          -1.8465    3.2960   -2.6395 F       1  UNL1       -0.2024
     17 C          -2.4832    1.3838   -1.4913 C.ar    1  UNL1        0.1640
     18 F          -3.7632    1.5386   -1.9297 F       1  UNL1       -0.2021
     19 C          -2.1706    0.3119   -0.6725 C.ar    1  UNL1        0.0197
     20 C          -3.1884   -0.6746   -0.2687 C.3     1  UNL1        0.0952
     21 C          -3.7288   -1.3286   -1.5297 C.3     1  UNL1       -0.0352
     22 C          -4.3146   -0.0418    0.5228 C.3     1  UNL1        0.0223
     23 C          -3.7447    0.6787    1.7026 C.3     1  UNL1        0.1997
     24 C          -4.8485    1.1083    2.6765 C.3     1  UNL1        0.4266
     25 F          -5.7376    1.9520    2.0419 F       1  UNL1       -0.1669
     26 F          -4.3023    1.7997    3.7326 F       1  UNL1       -0.1669
     27 F          -5.5439   -0.0070    3.0946 F       1  UNL1       -0.1669
     28 O          -2.8264   -0.1601    2.3816 O.2     1  UNL1       -0.4534
     29 C          -2.4104   -1.3733    1.8292 C.2     1  UNL1        0.2765
     30 N          -1.8012   -2.2838    2.7486 N.pl3   1  UNL1       -0.3134
     31 N          -2.5610   -1.6586    0.5840 N.2     1  UNL1       -0.2257
     32 C          -0.8774    0.1643   -0.2328 C.ar    1  UNL1       -0.0321
     33 H           4.1228   -0.5469   -3.1023 H       1  UNL1        0.0278
     34 H           5.3467   -1.7777   -2.7567 H       1  UNL1        0.0278
     35 H           3.6683   -2.0765   -2.2123 H       1  UNL1        0.0278
     36 H           6.8694   -1.2463   -1.1056 H       1  UNL1        0.0634
     37 H           5.6853    1.1324    2.2243 H       1  UNL1        0.0843
     38 H           1.7626    1.3832    0.7546 H       1  UNL1        0.1552
     39 H           0.5774    2.8522   -1.7001 H       1  UNL1        0.0666
     40 H          -3.4746   -0.6809   -2.3878 H       1  UNL1        0.0256
     41 H          -3.1521   -2.2857   -1.6492 H       1  UNL1        0.0256
     42 H          -4.8149   -1.5422   -1.4524 H       1  UNL1        0.0256
     43 H          -4.9234   -0.8939    0.9210 H       1  UNL1        0.0330
     44 H          -4.9728    0.5733   -0.0873 H       1  UNL1        0.0330
     45 H          -3.2013    1.6038    1.4255 H       1  UNL1        0.0826
     46 H          -0.7758   -2.2040    2.8951 H       1  UNL1        0.1466
     47 H          -2.4170   -2.9676    3.2133 H       1  UNL1        0.1466
     48 H          -0.5526   -0.6586    0.4152 H       1  UNL1        0.0640
@<TRIPOS>BOND
     1     1     2    1
     2     2     3   ar
     3     3     4   ar
     4     4     5    1
     5     5     6    3
     6     4     7   ar
     7     7     8   ar
     8     8     9   ar
     9     9    10    1
    10    10    11    2
    11    10    12   am
    12    12    13    1
    13    13    14   ar
    14    14    15   ar
    15    15    16    1
    16    15    17   ar
    17    17    18    1
    18    17    19   ar
    19    19    20    1
    20    20    21    1
    21    20    22    1
    22    22    23    1
    23    23    24    1
    24    24    25    1
    25    24    26    1
    26    24    27    1
    27    23    28    1
    28    28    29    1
    29    29    30    1
    30    29    31    2
    31    19    32   ar
    32     9     2   ar
    33    32    13   ar
    34    31    20    1
    35     1    33    1
    36     1    34    1
    37     1    35    1
    38     3    36    1
    39     7    37    1
    40    12    38    1
    41    14    39    1
    42    21    40    1
    43    21    41    1
    44    21    42    1
    45    22    43    1
    46    22    44    1
    47    23    45    1
    48    30    46    1
    49    30    47    1
    50    32    48    1
