
     RDKit          3D

 48 50  0  0  0  0  0  0  0  0999 V2000
    4.4462   -1.2848   -2.3298 C   0  0  0  0  0  0  0  0  0  0  0  0
    4.7903   -0.6135   -1.0649 C   0  0  0  0  0  0  0  0  0  0  0  0
    6.1021   -0.7016   -0.5806 C   0  0  0  0  0  0  0  0  0  0  0  0
    6.4292   -0.0773    0.5988 C   0  0  0  0  0  0  0  0  0  0  0  0
    7.7573   -0.1264    1.1548 C   0  0  0  0  0  0  0  0  0  0  0  0
    8.8120   -0.1588    1.5932 N   0  0  0  0  0  0  0  0  0  0  0  0
    5.4676    0.6222    1.2841 C   0  0  0  0  0  0  0  0  0  0  0  0
    4.2420    0.6765    0.7858 N   0  0  0  0  0  0  0  0  0  0  0  0
    3.8423    0.0951   -0.3582 C   0  0  0  0  0  0  0  0  0  0  0  0
    2.4609    0.2028   -0.8435 C   0  0  0  0  0  0  0  0  0  0  0  0
    2.1213   -0.3531   -1.9163 O   0  0  0  0  0  0  0  0  0  0  0  0
    1.4691    0.9226   -0.1401 N   0  0  0  0  0  0  0  0  0  0  0  0
    0.1219    1.0485   -0.5792 C   0  0  0  0  0  0  0  0  0  0  0  0
   -0.1826    2.1177   -1.3940 C   0  0  0  0  0  0  0  0  0  0  0  0
   -1.4793    2.2600   -1.8311 C   0  0  0  0  0  0  0  0  0  0  0  0
   -1.8465    3.2960   -2.6395 F   0  0  0  0  0  0  0  0  0  0  0  0
   -2.4832    1.3838   -1.4913 C   0  0  0  0  0  0  0  0  0  0  0  0
   -3.7632    1.5386   -1.9297 F   0  0  0  0  0  0  0  0  0  0  0  0
   -2.1706    0.3119   -0.6725 C   0  0  0  0  0  0  0  0  0  0  0  0
   -3.1884   -0.6746   -0.2687 C   0  0  2  0  0  0  0  0  0  0  0  0
   -3.7288   -1.3286   -1.5297 C   0  0  0  0  0  0  0  0  0  0  0  0
   -4.3146   -0.0418    0.5228 C   0  0  0  0  0  0  0  0  0  0  0  0
   -3.7447    0.6787    1.7026 C   0  0  1  0  0  0  0  0  0  0  0  0
   -4.8485    1.1083    2.6765 C   0  0  0  0  0  0  0  0  0  0  0  0
   -5.7376    1.9520    2.0419 F   0  0  0  0  0  0  0  0  0  0  0  0
   -4.3023    1.7997    3.7326 F   0  0  0  0  0  0  0  0  0  0  0  0
   -5.5439   -0.0070    3.0946 F   0  0  0  0  0  0  0  0  0  0  0  0
   -2.8264   -0.1601    2.3816 O   0  0  0  0  0  0  0  0  0  0  0  0
   -2.4104   -1.3733    1.8292 C   0  0  0  0  0  0  0  0  0  0  0  0
   -1.8012   -2.2838    2.7486 N   0  0  0  0  0  0  0  0  0  0  0  0
   -2.5610   -1.6586    0.5840 N   0  0  0  0  0  0  0  0  0  0  0  0
   -0.8774    0.1643   -0.2328 C   0  0  0  0  0  0  0  0  0  0  0  0
    4.1228   -0.5469   -3.1023 H   0  0  0  0  0  0  0  0  0  0  0  0
    5.3467   -1.7777   -2.7567 H   0  0  0  0  0  0  0  0  0  0  0  0
    3.6683   -2.0765   -2.2123 H   0  0  0  0  0  0  0  0  0  0  0  0
    6.8694   -1.2463   -1.1056 H   0  0  0  0  0  0  0  0  0  0  0  0
    5.6853    1.1324    2.2243 H   0  0  0  0  0  0  0  0  0  0  0  0
    1.7626    1.3832    0.7546 H   0  0  0  0  0  0  0  0  0  0  0  0
    0.5774    2.8522   -1.7001 H   0  0  0  0  0  0  0  0  0  0  0  0
   -3.4746   -0.6809   -2.3878 H   0  0  0  0  0  0  0  0  0  0  0  0
   -3.1521   -2.2857   -1.6492 H   0  0  0  0  0  0  0  0  0  0  0  0
   -4.8149   -1.5422   -1.4524 H   0  0  0  0  0  0  0  0  0  0  0  0
   -4.9234   -0.8939    0.9210 H   0  0  0  0  0  0  0  0  0  0  0  0
   -4.9728    0.5733   -0.0873 H   0  0  0  0  0  0  0  0  0  0  0  0
   -3.2013    1.6038    1.4255 H   0  0  0  0  0  0  0  0  0  0  0  0
   -0.7758   -2.2040    2.8951 H   0  0  0  0  0  0  0  0  0  0  0  0
   -2.4170   -2.9676    3.2133 H   0  0  0  0  0  0  0  0  0  0  0  0
   -0.5526   -0.6586    0.4152 H   0  0  0  0  0  0  0  0  0  0  0  0
  1  2  1  0
  2  3  2  0
  3  4  1  0
  4  5  1  0
  5  6  3  0
  4  7  2  0
  7  8  1  0
  8  9  2  0
  9 10  1  0
 10 11  2  0
 10 12  1  0
 12 13  1  0
 13 14  2  0
 14 15  1  0
 15 16  1  0
 15 17  2  0
 17 18  1  0
 17 19  1  0
 19 20  1  0
 20 21  1  6
 20 22  1  0
 22 23  1  0
 23 24  1  0
 24 25  1  0
 24 26  1  0
 24 27  1  0
 23 28  1  0
 28 29  1  0
 29 30  1  0
 29 31  2  0
 19 32  2  0
  9  2  1  0
 32 13  1  0
 31 20  1  0
  1 33  1  0
  1 34  1  0
  1 35  1  0
  3 36  1  0
  7 37  1  0
 12 38  1  0
 14 39  1  0
 21 40  1  0
 21 41  1  0
 21 42  1  0
 22 43  1  0
 22 44  1  0
 23 45  1  6
 30 46  1  0
 30 47  1  0
 32 48  1  0
M  END
$$$$
