@<TRIPOS>MOLECULE
*****
 26 27 0 0 0
SMALL
GASTEIGER

@<TRIPOS>ATOM
      1 O          -2.8992   -1.0426   -0.3145 O.3     1  UNL1       -0.3929
      2 C          -2.2660    0.1722   -0.1061 C.3     1  UNL1        0.0675
      3 C          -0.7927   -0.0348   -0.3677 C.3     1  UNL1        0.0870
      4 C          -0.2410   -1.0973    0.5937 C.3     1  UNL1        0.1067
      5 O          -1.0077   -2.2397    0.5765 O.3     1  UNL1       -0.3870
      6 C           1.1599   -1.4026    0.1098 C.3     1  UNL1        0.1158
      7 O           1.0879   -1.7291   -1.2446 O.3     1  UNL1       -0.3861
      8 C           2.0252   -0.1966    0.3191 C.3     1  UNL1        0.1409
      9 O           3.0813   -0.2636   -0.6180 O.3     1  UNL1       -0.3814
     10 C           1.2738    1.0728    0.1921 C.ar    1  UNL1        0.1414
     11 N           1.7056    2.3296    0.3561 N.ar    1  UNL1       -0.2378
     12 C           0.6986    3.1971    0.1479 C.ar    1  UNL1        0.0458
     13 C          -0.4122    2.4424   -0.1603 C.ar    1  UNL1        0.0248
     14 N          -0.0133    1.1610   -0.1209 N.ar    1  UNL1       -0.3244
     15 H          -3.8123   -0.8433   -0.6445 H       1  UNL1        0.2095
     16 H          -2.6209    0.9562   -0.7994 H       1  UNL1        0.0579
     17 H          -2.3592    0.5197    0.9447 H       1  UNL1        0.0579
     18 H          -0.6280   -0.4422   -1.3842 H       1  UNL1        0.0577
     19 H          -0.2154   -0.6060    1.5928 H       1  UNL1        0.0642
     20 H          -0.9170   -2.6737    1.4752 H       1  UNL1        0.2100
     21 H           1.5970   -2.2778    0.6297 H       1  UNL1        0.0650
     22 H           0.6349   -2.6115   -1.2977 H       1  UNL1        0.2100
     23 H           2.5110   -0.2990    1.3177 H       1  UNL1        0.0702
     24 H           3.1543   -1.1932   -0.9980 H       1  UNL1        0.2105
     25 H           0.6762    4.2760    0.1919 H       1  UNL1        0.0845
     26 H          -1.4209    2.8259   -0.3912 H       1  UNL1        0.0825
@<TRIPOS>BOND
     1     1     2    1
     2     2     3    1
     3     3     4    1
     4     4     5    1
     5     4     6    1
     6     6     7    1
     7     6     8    1
     8     8     9    1
     9     8    10    1
    10    10    11   ar
    11    11    12   ar
    12    12    13   ar
    13    13    14   ar
    14    14     3    1
    15    14    10   ar
    16     1    15    1
    17     2    16    1
    18     2    17    1
    19     3    18    1
    20     4    19    1
    21     5    20    1
    22     6    21    1
    23     7    22    1
    24     8    23    1
    25     9    24    1
    26    12    25    1
    27    13    26    1
