
     RDKit          3D

 26 27  0  0  0  0  0  0  0  0999 V2000
   -2.8992   -1.0426   -0.3145 O   0  0  0  0  0  0  0  0  0  0  0  0
   -2.2660    0.1722   -0.1061 C   0  0  0  0  0  0  0  0  0  0  0  0
   -0.7927   -0.0348   -0.3677 C   0  0  0  0  0  0  0  0  0  0  0  0
   -0.2410   -1.0973    0.5937 C   0  0  0  0  0  0  0  0  0  0  0  0
   -1.0077   -2.2397    0.5765 O   0  0  0  0  0  0  0  0  0  0  0  0
    1.1599   -1.4026    0.1098 C   0  0  0  0  0  0  0  0  0  0  0  0
    1.0879   -1.7291   -1.2446 O   0  0  0  0  0  0  0  0  0  0  0  0
    2.0252   -0.1966    0.3191 C   0  0  0  0  0  0  0  0  0  0  0  0
    3.0813   -0.2636   -0.6180 O   0  0  0  0  0  0  0  0  0  0  0  0
    1.2738    1.0728    0.1921 C   0  0  0  0  0  0  0  0  0  0  0  0
    1.7056    2.3296    0.3561 N   0  0  0  0  0  0  0  0  0  0  0  0
    0.6986    3.1971    0.1479 C   0  0  0  0  0  0  0  0  0  0  0  0
   -0.4122    2.4424   -0.1603 C   0  0  0  0  0  0  0  0  0  0  0  0
   -0.0133    1.1610   -0.1209 N   0  0  0  0  0  0  0  0  0  0  0  0
   -3.8123   -0.8433   -0.6445 H   0  0  0  0  0  0  0  0  0  0  0  0
   -2.6209    0.9562   -0.7994 H   0  0  0  0  0  0  0  0  0  0  0  0
   -2.3592    0.5197    0.9447 H   0  0  0  0  0  0  0  0  0  0  0  0
   -0.6280   -0.4422   -1.3842 H   0  0  0  0  0  0  0  0  0  0  0  0
   -0.2154   -0.6060    1.5928 H   0  0  0  0  0  0  0  0  0  0  0  0
   -0.9170   -2.6737    1.4752 H   0  0  0  0  0  0  0  0  0  0  0  0
    1.5970   -2.2778    0.6297 H   0  0  0  0  0  0  0  0  0  0  0  0
    0.6349   -2.6115   -1.2977 H   0  0  0  0  0  0  0  0  0  0  0  0
    2.5110   -0.2990    1.3177 H   0  0  0  0  0  0  0  0  0  0  0  0
    3.1543   -1.1932   -0.9980 H   0  0  0  0  0  0  0  0  0  0  0  0
    0.6762    4.2760    0.1919 H   0  0  0  0  0  0  0  0  0  0  0  0
   -1.4209    2.8259   -0.3912 H   0  0  0  0  0  0  0  0  0  0  0  0
  1  2  1  0
  2  3  1  0
  3  4  1  0
  4  5  1  0
  4  6  1  0
  6  7  1  0
  6  8  1  0
  8  9  1  0
  8 10  1  0
 10 11  2  0
 11 12  1  0
 12 13  2  0
 13 14  1  0
 14  3  1  0
 14 10  1  0
  1 15  1  0
  2 16  1  0
  2 17  1  0
  3 18  1  0
  4 19  1  0
  5 20  1  0
  6 21  1  0
  7 22  1  0
  8 23  1  0
  9 24  1  0
 12 25  1  0
 13 26  1  0
M  END
$$$$
