@<TRIPOS>MOLECULE
*****
 56 60 0 0 0
SMALL
GASTEIGER

@<TRIPOS>ATOM
      1 C          -2.3735    1.3318    2.0771 C.3     1  UNL1       -0.0199
      2 C          -3.7752    1.3416    1.6066 C.ar    1  UNL1        0.0708
      3 N          -4.8526    1.8731    2.1801 N.ar    1  UNL1       -0.1758
      4 N          -5.9257    1.6691    1.4426 N.ar    1  UNL1       -0.2707
      5 C          -7.2698    2.1027    1.7486 C.3     1  UNL1        0.0305
      6 C          -5.5432    0.9826    0.3506 C.ar    1  UNL1        0.0467
      7 C          -6.4534    0.5474   -0.7423 C.3     1  UNL1       -0.0220
      8 C          -4.1890    0.7554    0.4163 C.ar    1  UNL1        0.0605
      9 C          -3.3194    0.0525   -0.5355 C.ar    1  UNL1        0.1440
     10 N          -1.9937   -0.1185   -0.3786 N.ar    1  UNL1       -0.2241
     11 C          -1.4672   -0.7948   -1.4024 C.ar    1  UNL1        0.1304
     12 C          -0.2030   -1.2514   -1.7768 C.ar    1  UNL1        0.0748
     13 N           0.8632   -0.9772   -0.9151 N.pl3   1  UNL1       -0.3248
     14 C           1.6349    0.2448   -1.0649 C.3     1  UNL1        0.0251
     15 C           3.1071   -0.0416   -0.7405 C.3     1  UNL1        0.0150
     16 N           3.1848   -0.3358    0.6533 N.3     1  UNL1       -0.2951
     17 C           4.3773   -1.0663    0.9621 C.3     1  UNL1        0.0256
     18 C           5.5879   -0.2887    0.5951 C.ar    1  UNL1       -0.0153
     19 C           6.1946    0.5795    1.5081 C.ar    1  UNL1       -0.0545
     20 C           7.3191    1.3008    1.1652 C.ar    1  UNL1       -0.0433
     21 C           7.8812    1.1867   -0.0940 C.ar    1  UNL1        0.0276
     22 N           7.2938    0.3560   -0.9552 N.ar    1  UNL1       -0.2629
     23 C           6.1902   -0.3629   -0.6438 C.ar    1  UNL1        0.0320
     24 C           2.0010   -0.9231    1.1942 C.3     1  UNL1        0.0150
     25 C           1.3014   -1.8304    0.1687 C.3     1  UNL1        0.0251
     26 C          -0.0479   -1.9439   -2.9591 C.ar    1  UNL1        0.0591
     27 BR          1.6972   -2.5437   -3.4216 Br      1  UNL1       -0.0467
     28 C          -1.1193   -2.1967   -3.7841 C.ar    1  UNL1        0.0458
     29 N          -2.3244   -1.7489   -3.4049 N.ar    1  UNL1       -0.2347
     30 C          -2.5094   -1.0708   -2.2586 C.ar    1  UNL1        0.1600
     31 N          -3.6117   -0.5386   -1.6928 N.ar    1  UNL1       -0.3226
     32 H          -1.6893    1.8681    1.4050 H       1  UNL1        0.0293
     33 H          -2.0003    0.2903    2.1577 H       1  UNL1        0.0293
     34 H          -2.3447    1.7343    3.1271 H       1  UNL1        0.0293
     35 H          -7.3429    2.3349    2.8507 H       1  UNL1        0.0473
     36 H          -7.5146    3.0632    1.2379 H       1  UNL1        0.0473
     37 H          -8.0214    1.3131    1.5411 H       1  UNL1        0.0473
     38 H          -7.5059    0.8834   -0.4994 H       1  UNL1        0.0293
     39 H          -6.5309   -0.5619   -0.8130 H       1  UNL1        0.0293
     40 H          -6.2260    1.0356   -1.7122 H       1  UNL1        0.0293
     41 H           1.2907    1.0346   -0.3511 H       1  UNL1        0.0476
     42 H           1.6201    0.6516   -2.0772 H       1  UNL1        0.0476
     43 H           3.3934   -0.8852   -1.4007 H       1  UNL1        0.0442
     44 H           3.6727    0.8588   -0.9878 H       1  UNL1        0.0442
     45 H           4.4130   -2.0282    0.3737 H       1  UNL1        0.0476
     46 H           4.4272   -1.3634    2.0240 H       1  UNL1        0.0476
     47 H           5.7650    0.6777    2.4956 H       1  UNL1        0.0622
     48 H           7.8188    1.9852    1.8465 H       1  UNL1        0.0633
     49 H           8.7679    1.7476   -0.3824 H       1  UNL1        0.0829
     50 H           5.7904   -0.9987   -1.3913 H       1  UNL1        0.0833
     51 H           1.2759   -0.1917    1.5896 H       1  UNL1        0.0442
     52 H           2.2938   -1.5798    2.0394 H       1  UNL1        0.0442
     53 H           2.0627   -2.5554   -0.1300 H       1  UNL1        0.0476
     54 H           0.4401   -2.2545    0.6948 H       1  UNL1        0.0476
     55 H          -0.9654   -2.7487   -4.7161 H       1  UNL1        0.0842
     56 H          -4.5458   -0.6014   -2.1307 H       1  UNL1        0.1688
@<TRIPOS>BOND
     1     1     2    1
     2     2     3   ar
     3     3     4   ar
     4     4     5    1
     5     4     6   ar
     6     6     7    1
     7     6     8   ar
     8     8     9    1
     9     9    10   ar
    10    10    11   ar
    11    11    12   ar
    12    12    13    1
    13    13    14    1
    14    14    15    1
    15    15    16    1
    16    16    17    1
    17    17    18    1
    18    18    19   ar
    19    19    20   ar
    20    20    21   ar
    21    21    22   ar
    22    22    23   ar
    23    16    24    1
    24    24    25    1
    25    12    26   ar
    26    26    27    1
    27    26    28   ar
    28    28    29   ar
    29    29    30   ar
    30    30    31   ar
    31     8     2   ar
    32    31     9   ar
    33    30    11   ar
    34    25    13    1
    35    23    18   ar
    36     1    32    1
    37     1    33    1
    38     1    34    1
    39     5    35    1
    40     5    36    1
    41     5    37    1
    42     7    38    1
    43     7    39    1
    44     7    40    1
    45    14    41    1
    46    14    42    1
    47    15    43    1
    48    15    44    1
    49    17    45    1
    50    17    46    1
    51    19    47    1
    52    20    48    1
    53    21    49    1
    54    23    50    1
    55    24    51    1
    56    24    52    1
    57    25    53    1
    58    25    54    1
    59    28    55    1
    60    31    56    1
