@<TRIPOS>MOLECULE
*****
 53 55 0 0 0
SMALL
GASTEIGER

@<TRIPOS>ATOM
      1 CA         -2.0178   -2.5175   -1.1824 C.3     1  UNL1        0.0461
      2 C          -3.2217   -3.3287   -1.6266 C.3     1  UNL1       -0.0352
      3 C          -4.3310   -3.2726   -0.6153 C.3     1  UNL1       -0.0635
      4 C          -1.4772   -3.0453    0.1304 C.3     1  UNL1        0.0626
      5 O          -2.3914   -2.8876    1.1586 O.3     1  UNL1       -0.3932
      6 N          -2.3333   -1.1003   -1.0833 N.pl3   1  UNL1       -0.3083
      7 C          -1.4197   -0.0437   -0.7221 C.ar    1  UNL1        0.2191
      8 N          -1.8624    1.2391   -0.6481 N.ar    1  UNL1       -0.1947
      9 C          -0.9968    2.2060   -0.3140 C.ar    1  UNL1        0.1674
     10 C           0.3087    1.8450   -0.0607 C.ar    1  UNL1        0.1476
     11 N           0.9941    2.9474    0.2502 N.ar    1  UNL1       -0.2306
     12 C           0.1452    3.9940    0.1974 C.ar    1  UNL1        0.0985
     13 N          -1.0821    3.5398   -0.1500 N.ar    1  UNL1       -0.3123
     14 C          -2.2920    4.2862   -0.3284 C.3     1  UNL1        0.0317
     15 C          -3.5287    3.4363   -0.0651 C.3     1  UNL1       -0.0444
     16 C          -2.3630    5.4708    0.6061 C.3     1  UNL1       -0.0444
     17 C           0.7559    0.5418   -0.1368 C.ar    1  UNL1        0.1519
     18 N           2.1212    0.1622    0.1236 N.pl3   1  UNL1       -0.3230
     19 C           2.5617   -1.2047    0.0372 C.3     1  UNL1        0.0392
     20 C           4.0255   -1.2243    0.3571 C.ar    1  UNL1        0.0110
     21 C           4.8839   -1.3616   -0.7290 C.ar    1  UNL1       -0.0536
     22 C           6.2555   -1.3905   -0.5566 C.ar    1  UNL1       -0.0612
     23 C           6.7534   -1.2794    0.7239 C.ar    1  UNL1       -0.0583
     24 C           5.9102   -1.1414    1.8220 C.ar    1  UNL1       -0.0199
     25 C           4.5445   -1.1148    1.6285 C.ar    1  UNL1        0.1215
     26 O           3.5585   -0.9850    2.5961 O.3     1  UNL1       -0.5064
     27 N          -0.1466   -0.3956   -0.4754 N.ar    1  UNL1       -0.1974
     28 HA         -1.2208   -2.6387   -1.9409 H       1  UNL1        0.0521
     29 H          -3.5820   -2.8734   -2.5817 H       1  UNL1        0.0281
     30 H          -2.8676   -4.3601   -1.8200 H       1  UNL1        0.0281
     31 H          -5.2906   -3.3133   -1.1820 H       1  UNL1        0.0230
     32 H          -4.3146   -2.3116   -0.0620 H       1  UNL1        0.0230
     33 H          -4.2744   -4.1509    0.0446 H       1  UNL1        0.0230
     34 H1         -1.3111   -4.1413   -0.0067 H       1  UNL1        0.0575
     35 H2         -0.5096   -2.5897    0.3355 H       1  UNL1        0.0575
     36 H          -1.9815   -3.2127    1.9972 H       1  UNL1        0.2095
     37 H          -3.3348   -0.8293   -1.2997 H       1  UNL1        0.1493
     38 H           0.3691    5.0405    0.3933 H       1  UNL1        0.1029
     39 H          -2.3206    4.6713   -1.3697 H       1  UNL1        0.0523
     40 H          -3.7620    2.8611   -0.9819 H       1  UNL1        0.0249
     41 H          -4.4079    4.0817    0.1544 H       1  UNL1        0.0249
     42 H          -3.3991    2.7357    0.7647 H       1  UNL1        0.0249
     43 H          -2.5809    5.0621    1.6122 H       1  UNL1        0.0249
     44 H          -1.4265    6.0398    0.5462 H       1  UNL1        0.0249
     45 H          -3.1687    6.1348    0.2295 H       1  UNL1        0.0249
     46 H           2.7646    0.9542    0.3796 H       1  UNL1        0.1479
     47 H           2.3495   -1.6991   -0.9181 H       1  UNL1        0.0512
     48 H           2.0324   -1.7519    0.8528 H       1  UNL1        0.0512
     49 H           4.5083   -1.4520   -1.7594 H       1  UNL1        0.0622
     50 H           6.9963   -1.4934   -1.3373 H       1  UNL1        0.0618
     51 H           7.8280   -1.2914    0.9666 H       1  UNL1        0.0619
     52 H           6.2135   -1.0488    2.8553 H       1  UNL1        0.0654
     53 H           3.3371   -1.7993    3.1902 H       1  UNL1        0.2921
@<TRIPOS>BOND
     1     1     2    1
     2     2     3    1
     3     1     4    1
     4     4     5    1
     5     1     6    1
     6     6     7    1
     7     7     8   ar
     8     8     9   ar
     9     9    10   ar
    10    10    11   ar
    11    11    12   ar
    12    12    13   ar
    13    13    14    1
    14    14    15    1
    15    14    16    1
    16    10    17   ar
    17    17    18    1
    18    18    19    1
    19    19    20    1
    20    20    21   ar
    21    21    22   ar
    22    22    23   ar
    23    23    24   ar
    24    24    25   ar
    25    25    26    1
    26    17    27   ar
    27    27     7   ar
    28    13     9   ar
    29    25    20   ar
    30     1    28    1
    31     2    29    1
    32     2    30    1
    33     3    31    1
    34     3    32    1
    35     3    33    1
    36     4    34    1
    37     4    35    1
    38     5    36    1
    39     6    37    1
    40    12    38    1
    41    14    39    1
    42    15    40    1
    43    15    41    1
    44    15    42    1
    45    16    43    1
    46    16    44    1
    47    16    45    1
    48    18    46    1
    49    19    47    1
    50    19    48    1
    51    21    49    1
    52    22    50    1
    53    23    51    1
    54    24    52    1
    55    26    53    1
