
     RDKit          3D

 53 55  0  0  0  0  0  0  0  0999 V2000
   -2.0178   -2.5175   -1.1824 C   0  0  2  0  0  0  0  0  0  0  0  0
   -3.2217   -3.3287   -1.6266 C   0  0  0  0  0  0  0  0  0  0  0  0
   -4.3310   -3.2726   -0.6153 C   0  0  0  0  0  0  0  0  0  0  0  0
   -1.4772   -3.0453    0.1304 C   0  0  0  0  0  0  0  0  0  0  0  0
   -2.3914   -2.8876    1.1586 O   0  0  0  0  0  0  0  0  0  0  0  0
   -2.3333   -1.1003   -1.0833 N   0  0  0  0  0  0  0  0  0  0  0  0
   -1.4197   -0.0437   -0.7221 C   0  0  0  0  0  0  0  0  0  0  0  0
   -1.8624    1.2391   -0.6481 N   0  0  0  0  0  0  0  0  0  0  0  0
   -0.9968    2.2060   -0.3140 C   0  0  0  0  0  0  0  0  0  0  0  0
    0.3087    1.8450   -0.0607 C   0  0  0  0  0  0  0  0  0  0  0  0
    0.9941    2.9474    0.2502 N   0  0  0  0  0  0  0  0  0  0  0  0
    0.1452    3.9940    0.1974 C   0  0  0  0  0  0  0  0  0  0  0  0
   -1.0821    3.5398   -0.1500 N   0  0  0  0  0  0  0  0  0  0  0  0
   -2.2920    4.2862   -0.3284 C   0  0  0  0  0  0  0  0  0  0  0  0
   -3.5287    3.4363   -0.0651 C   0  0  0  0  0  0  0  0  0  0  0  0
   -2.3630    5.4708    0.6061 C   0  0  0  0  0  0  0  0  0  0  0  0
    0.7559    0.5418   -0.1368 C   0  0  0  0  0  0  0  0  0  0  0  0
    2.1212    0.1622    0.1236 N   0  0  0  0  0  0  0  0  0  0  0  0
    2.5617   -1.2047    0.0372 C   0  0  0  0  0  0  0  0  0  0  0  0
    4.0255   -1.2243    0.3571 C   0  0  0  0  0  0  0  0  0  0  0  0
    4.8839   -1.3616   -0.7290 C   0  0  0  0  0  0  0  0  0  0  0  0
    6.2555   -1.3905   -0.5566 C   0  0  0  0  0  0  0  0  0  0  0  0
    6.7534   -1.2794    0.7239 C   0  0  0  0  0  0  0  0  0  0  0  0
    5.9102   -1.1414    1.8220 C   0  0  0  0  0  0  0  0  0  0  0  0
    4.5445   -1.1148    1.6285 C   0  0  0  0  0  0  0  0  0  0  0  0
    3.5585   -0.9850    2.5961 O   0  0  0  0  0  0  0  0  0  0  0  0
   -0.1466   -0.3956   -0.4754 N   0  0  0  0  0  0  0  0  0  0  0  0
   -1.2208   -2.6387   -1.9409 H   0  0  0  0  0  0  0  0  0  0  0  0
   -3.5820   -2.8734   -2.5817 H   0  0  0  0  0  0  0  0  0  0  0  0
   -2.8676   -4.3601   -1.8200 H   0  0  0  0  0  0  0  0  0  0  0  0
   -5.2906   -3.3133   -1.1820 H   0  0  0  0  0  0  0  0  0  0  0  0
   -4.3146   -2.3116   -0.0620 H   0  0  0  0  0  0  0  0  0  0  0  0
   -4.2744   -4.1509    0.0446 H   0  0  0  0  0  0  0  0  0  0  0  0
   -1.3111   -4.1413   -0.0067 H   0  0  0  0  0  0  0  0  0  0  0  0
   -0.5096   -2.5897    0.3355 H   0  0  0  0  0  0  0  0  0  0  0  0
   -1.9815   -3.2127    1.9972 H   0  0  0  0  0  0  0  0  0  0  0  0
   -3.3348   -0.8293   -1.2997 H   0  0  0  0  0  0  0  0  0  0  0  0
    0.3691    5.0405    0.3933 H   0  0  0  0  0  0  0  0  0  0  0  0
   -2.3206    4.6713   -1.3697 H   0  0  0  0  0  0  0  0  0  0  0  0
   -3.7620    2.8611   -0.9819 H   0  0  0  0  0  0  0  0  0  0  0  0
   -4.4079    4.0817    0.1544 H   0  0  0  0  0  0  0  0  0  0  0  0
   -3.3991    2.7357    0.7647 H   0  0  0  0  0  0  0  0  0  0  0  0
   -2.5809    5.0621    1.6122 H   0  0  0  0  0  0  0  0  0  0  0  0
   -1.4265    6.0398    0.5462 H   0  0  0  0  0  0  0  0  0  0  0  0
   -3.1687    6.1348    0.2295 H   0  0  0  0  0  0  0  0  0  0  0  0
    2.7646    0.9542    0.3796 H   0  0  0  0  0  0  0  0  0  0  0  0
    2.3495   -1.6991   -0.9181 H   0  0  0  0  0  0  0  0  0  0  0  0
    2.0324   -1.7519    0.8528 H   0  0  0  0  0  0  0  0  0  0  0  0
    4.5083   -1.4520   -1.7594 H   0  0  0  0  0  0  0  0  0  0  0  0
    6.9963   -1.4934   -1.3373 H   0  0  0  0  0  0  0  0  0  0  0  0
    7.8280   -1.2914    0.9666 H   0  0  0  0  0  0  0  0  0  0  0  0
    6.2135   -1.0488    2.8553 H   0  0  0  0  0  0  0  0  0  0  0  0
    3.3371   -1.7993    3.1902 H   0  0  0  0  0  0  0  0  0  0  0  0
  1  2  1  0
  2  3  1  0
  1  4  1  0
  4  5  1  0
  1  6  1  0
  6  7  1  0
  7  8  2  0
  8  9  1  0
  9 10  2  0
 10 11  1  0
 11 12  2  0
 12 13  1  0
 13 14  1  0
 14 15  1  0
 14 16  1  0
 10 17  1  0
 17 18  1  0
 18 19  1  0
 19 20  1  0
 20 21  2  0
 21 22  1  0
 22 23  2  0
 23 24  1  0
 24 25  2  0
 25 26  1  0
 17 27  2  0
 27  7  1  0
 13  9  1  0
 25 20  1  0
  1 28  1  6
  2 29  1  0
  2 30  1  0
  3 31  1  0
  3 32  1  0
  3 33  1  0
  4 34  1  0
  4 35  1  0
  5 36  1  0
  6 37  1  0
 12 38  1  0
 14 39  1  0
 15 40  1  0
 15 41  1  0
 15 42  1  0
 16 43  1  0
 16 44  1  0
 16 45  1  0
 18 46  1  0
 19 47  1  0
 19 48  1  0
 21 49  1  0
 22 50  1  0
 23 51  1  0
 24 52  1  0
 26 53  1  0
M  END
$$$$
