
     RDKit          3D

 51 53  0  0  0  0  0  0  0  0999 V2000
    1.4378    2.3463    0.8111 C   0  0  0  0  0  0  0  0  0  0  0  0
    1.5024    1.4255   -0.3777 C   0  0  1  0  0  0  0  0  0  0  0  0
    2.7699    0.6607   -0.3951 C   0  0  0  0  0  0  0  0  0  0  0  0
    3.0277   -0.3477   -1.3037 C   0  0  0  0  0  0  0  0  0  0  0  0
    4.1960   -1.0527   -1.3198 C   0  0  0  0  0  0  0  0  0  0  0  0
    5.2065   -0.7761   -0.3932 C   0  0  0  0  0  0  0  0  0  0  0  0
    6.3692   -1.5045   -0.4377 O   0  0  0  0  0  0  0  0  0  0  0  0
    7.4618   -1.3657    0.3943 C   0  0  0  0  0  0  0  0  0  0  0  0
    7.6813   -2.5685    1.0651 F   0  0  0  0  0  0  0  0  0  0  0  0
    8.5917   -1.0868   -0.3707 F   0  0  0  0  0  0  0  0  0  0  0  0
    4.9667    0.2228    0.5167 C   0  0  0  0  0  0  0  0  0  0  0  0
    3.7666    0.9291    0.5142 C   0  0  0  0  0  0  0  0  0  0  0  0
    0.3446    0.5920   -0.5096 N   0  0  0  0  0  0  0  0  0  0  0  0
   -0.5656    0.6734   -1.6575 C   0  0  0  0  0  0  0  0  0  0  0  0
   -1.9483    0.8649   -1.0705 C   0  0  0  0  0  0  0  0  0  0  0  0
   -2.3454   -0.4522   -0.4292 C   0  0  2  0  0  0  0  0  0  0  0  0
   -2.8984   -1.3208   -1.5288 C   0  0  0  0  0  0  0  0  0  0  0  0
   -3.3409   -2.6828   -1.0257 C   0  0  0  0  0  0  0  0  0  0  0  0
   -3.8321   -3.3869   -2.1387 O   0  0  0  0  0  0  0  0  0  0  0  0
   -3.3466   -0.1377    0.6080 C   0  0  0  0  0  0  0  0  0  0  0  0
   -4.7055   -0.0983    0.3973 C   0  0  0  0  0  0  0  0  0  0  0  0
   -5.5748    0.2057    1.4221 C   0  0  0  0  0  0  0  0  0  0  0  0
   -5.1221    0.4848    2.7076 C   0  0  0  0  0  0  0  0  0  0  0  0
   -5.9926    0.7836    3.7107 F   0  0  0  0  0  0  0  0  0  0  0  0
   -3.7737    0.4442    2.9104 C   0  0  0  0  0  0  0  0  0  0  0  0
   -2.8900    0.1381    1.8807 C   0  0  0  0  0  0  0  0  0  0  0  0
   -1.2327   -1.0519    0.2076 O   0  0  0  0  0  0  0  0  0  0  0  0
   -0.0389   -0.3952    0.4546 C   0  0  0  0  0  0  0  0  0  0  0  0
    0.7005   -0.6046    1.4357 O   0  0  0  0  0  0  0  0  0  0  0  0
    2.1860    3.1581    0.6272 H   0  0  0  0  0  0  0  0  0  0  0  0
    1.6151    1.8526    1.7684 H   0  0  0  0  0  0  0  0  0  0  0  0
    0.4473    2.8386    0.7984 H   0  0  0  0  0  0  0  0  0  0  0  0
    1.5273    2.0854   -1.2846 H   0  0  0  0  0  0  0  0  0  0  0  0
    2.2268   -0.5443   -2.0142 H   0  0  0  0  0  0  0  0  0  0  0  0
    4.3610   -1.8265   -2.0377 H   0  0  0  0  0  0  0  0  0  0  0  0
    7.3412   -0.5850    1.1473 H   0  0  0  0  0  0  0  0  0  0  0  0
    5.7093    0.4804    1.2553 H   0  0  0  0  0  0  0  0  0  0  0  0
    3.6126    1.7022    1.2382 H   0  0  0  0  0  0  0  0  0  0  0  0
   -0.2691    1.5203   -2.3074 H   0  0  0  0  0  0  0  0  0  0  0  0
   -0.4553   -0.2952   -2.1859 H   0  0  0  0  0  0  0  0  0  0  0  0
   -1.9332    1.6750   -0.3336 H   0  0  0  0  0  0  0  0  0  0  0  0
   -2.6812    1.0821   -1.8762 H   0  0  0  0  0  0  0  0  0  0  0  0
   -3.7128   -0.8034   -2.0614 H   0  0  0  0  0  0  0  0  0  0  0  0
   -2.0950   -1.4997   -2.2717 H   0  0  0  0  0  0  0  0  0  0  0  0
   -4.0954   -2.6359   -0.2418 H   0  0  0  0  0  0  0  0  0  0  0  0
   -2.4880   -3.2779   -0.6502 H   0  0  0  0  0  0  0  0  0  0  0  0
   -4.7903   -3.1508   -2.2973 H   0  0  0  0  0  0  0  0  0  0  0  0
   -5.0479   -0.3164   -0.6041 H   0  0  0  0  0  0  0  0  0  0  0  0
   -6.6312    0.2273    1.2209 H   0  0  0  0  0  0  0  0  0  0  0  0
   -3.3864    0.6572    3.9028 H   0  0  0  0  0  0  0  0  0  0  0  0
   -1.8556    0.1294    2.1295 H   0  0  0  0  0  0  0  0  0  0  0  0
  1  2  1  0
  2  3  1  0
  3  4  2  0
  4  5  1  0
  5  6  2  0
  6  7  1  0
  7  8  1  0
  8  9  1  0
  8 10  1  0
  6 11  1  0
 11 12  2  0
  2 13  1  0
 13 14  1  0
 14 15  1  0
 15 16  1  0
 16 17  1  6
 17 18  1  0
 18 19  1  0
 16 20  1  0
 20 21  2  0
 21 22  1  0
 22 23  2  0
 23 24  1  0
 23 25  1  0
 25 26  2  0
 16 27  1  0
 27 28  1  0
 28 29  2  0
 12  3  1  0
 28 13  1  0
 26 20  1  0
  1 30  1  0
  1 31  1  0
  1 32  1  0
  2 33  1  6
  4 34  1  0
  5 35  1  0
  8 36  1  0
 11 37  1  0
 12 38  1  0
 14 39  1  0
 14 40  1  0
 15 41  1  0
 15 42  1  0
 17 43  1  0
 17 44  1  0
 18 45  1  0
 18 46  1  0
 19 47  1  0
 21 48  1  0
 22 49  1  0
 25 50  1  0
 26 51  1  0
M  END
$$$$
