@<TRIPOS>MOLECULE
*****
 51 53 0 0 0
SMALL
GASTEIGER

@<TRIPOS>ATOM
      1 C           1.4378    2.3463    0.8111 C.3     1  UNL1       -0.0421
      2 C           1.5024    1.4255   -0.3777 C.3     1  UNL1        0.0515
      3 C           2.7699    0.6607   -0.3951 C.ar    1  UNL1       -0.0269
      4 C           3.0277   -0.3477   -1.3037 C.ar    1  UNL1       -0.0534
      5 C           4.1960   -1.0527   -1.3198 C.ar    1  UNL1       -0.0194
      6 C           5.2065   -0.7761   -0.3932 C.ar    1  UNL1        0.1269
      7 O           6.3692   -1.5045   -0.4377 O.3     1  UNL1       -0.4342
      8 C           7.4618   -1.3657    0.3943 C.3     1  UNL1        0.3893
      9 F           7.6813   -2.5685    1.0651 F       1  UNL1       -0.1663
     10 F           8.5917   -1.0868   -0.3707 F       1  UNL1       -0.1663
     11 C           4.9667    0.2228    0.5167 C.ar    1  UNL1       -0.0194
     12 C           3.7666    0.9291    0.5142 C.ar    1  UNL1       -0.0534
     13 N           0.3446    0.5920   -0.5096 N.am    1  UNL1       -0.2605
     14 C          -0.5656    0.6734   -1.6575 C.3     1  UNL1        0.0224
     15 C          -1.9483    0.8649   -1.0705 C.3     1  UNL1        0.0075
     16 C          -2.3454   -0.4522   -0.4292 C.3     1  UNL1        0.1435
     17 C          -2.8984   -1.3208   -1.5288 C.3     1  UNL1        0.0148
     18 C          -3.3409   -2.6828   -1.0257 C.3     1  UNL1        0.0482
     19 O          -3.8321   -3.3869   -2.1387 O.3     1  UNL1       -0.3949
     20 C          -3.3466   -0.1377    0.6080 C.ar    1  UNL1       -0.0039
     21 C          -4.7055   -0.0983    0.3973 C.ar    1  UNL1       -0.0521
     22 C          -5.5748    0.2057    1.4221 C.ar    1  UNL1       -0.0261
     23 C          -5.1221    0.4848    2.7076 C.ar    1  UNL1        0.1234
     24 F          -5.9926    0.7836    3.7107 F       1  UNL1       -0.2055
     25 C          -3.7737    0.4442    2.9104 C.ar    1  UNL1       -0.0261
     26 C          -2.8900    0.1381    1.8807 C.ar    1  UNL1       -0.0521
     27 O          -1.2327   -1.0519    0.2076 O.3     1  UNL1       -0.4388
     28 C          -0.0389   -0.3952    0.4546 C.2     1  UNL1        0.4042
     29 O           0.7005   -0.6046    1.4357 O.2     1  UNL1       -0.2262
     30 H           2.1860    3.1581    0.6272 H       1  UNL1        0.0251
     31 H           1.6151    1.8526    1.7684 H       1  UNL1        0.0251
     32 H           0.4473    2.8386    0.7984 H       1  UNL1        0.0251
     33 H           1.5273    2.0854   -1.2846 H       1  UNL1        0.0549
     34 H           2.2268   -0.5443   -2.0142 H       1  UNL1        0.0622
     35 H           4.3610   -1.8265   -2.0377 H       1  UNL1        0.0654
     36 H           7.3412   -0.5850    1.1473 H       1  UNL1        0.1520
     37 H           5.7093    0.4804    1.2553 H       1  UNL1        0.0654
     38 H           3.6126    1.7022    1.2382 H       1  UNL1        0.0622
     39 H          -0.2691    1.5203   -2.3074 H       1  UNL1        0.0467
     40 H          -0.4553   -0.2952   -2.1859 H       1  UNL1        0.0467
     41 H          -1.9332    1.6750   -0.3336 H       1  UNL1        0.0322
     42 H          -2.6812    1.0821   -1.8762 H       1  UNL1        0.0322
     43 H          -3.7128   -0.8034   -2.0614 H       1  UNL1        0.0329
     44 H          -2.0950   -1.4997   -2.2717 H       1  UNL1        0.0329
     45 H          -4.0954   -2.6359   -0.2418 H       1  UNL1        0.0558
     46 H          -2.4880   -3.2779   -0.6502 H       1  UNL1        0.0558
     47 H          -4.7903   -3.1508   -2.2973 H       1  UNL1        0.2094
     48 H          -5.0479   -0.3164   -0.6041 H       1  UNL1        0.0622
     49 H          -6.6312    0.2273    1.2209 H       1  UNL1        0.0646
     50 H          -3.3864    0.6572    3.9028 H       1  UNL1        0.0646
     51 H          -1.8556    0.1294    2.1295 H       1  UNL1        0.0622
@<TRIPOS>BOND
     1     1     2    1
     2     2     3    1
     3     3     4   ar
     4     4     5   ar
     5     5     6   ar
     6     6     7    1
     7     7     8    1
     8     8     9    1
     9     8    10    1
    10     6    11   ar
    11    11    12   ar
    12     2    13    1
    13    13    14    1
    14    14    15    1
    15    15    16    1
    16    16    17    1
    17    17    18    1
    18    18    19    1
    19    16    20    1
    20    20    21   ar
    21    21    22   ar
    22    22    23   ar
    23    23    24    1
    24    23    25   ar
    25    25    26   ar
    26    16    27    1
    27    27    28    1
    28    28    29    2
    29    12     3   ar
    30    28    13   am
    31    26    20   ar
    32     1    30    1
    33     1    31    1
    34     1    32    1
    35     2    33    1
    36     4    34    1
    37     5    35    1
    38     8    36    1
    39    11    37    1
    40    12    38    1
    41    14    39    1
    42    14    40    1
    43    15    41    1
    44    15    42    1
    45    17    43    1
    46    17    44    1
    47    18    45    1
    48    18    46    1
    49    19    47    1
    50    21    48    1
    51    22    49    1
    52    25    50    1
    53    26    51    1
