@<TRIPOS>MOLECULE
*****
 14 13 0 0 0
SMALL
GASTEIGER

@<TRIPOS>ATOM
      1 N          -0.5715    1.2957    0.7354 N.3     1  SER1       -0.3166
      2 CA         -0.0540    0.4292   -0.2853 C.3     1  SER1        0.1265
      3 CB         -1.0525   -0.6774   -0.5497 C.3     1  SER1        0.0697
      4 OG         -1.2619   -1.4075    0.6244 O.3     1  SER1       -0.3929
      5 C           1.2726   -0.1122    0.0875 C.2     1  SER1        0.3240
      6 O           1.9114   -0.9705   -0.7969 O.3     1  SER1       -0.4795
      7 OXT         1.8142    0.1959    1.1815 O.2     1  SER1       -0.2492
      8 H1          0.1416    1.6059    1.4288 H       1  SER1        0.1190
      9 H2         -1.1311    2.0771    0.3307 H       1  SER1        0.1190
     10 HA          0.0283    1.0343   -1.2160 H       1  SER1        0.0597
     11 HB1        -0.7327   -1.3752   -1.3308 H       1  SER1        0.0578
     12 HB2        -2.0122   -0.2397   -0.8351 H       1  SER1        0.0578
     13 H          -1.2882   -0.7683    1.3865 H       1  SER1        0.2095
     14 H           2.9360   -1.0871   -0.7609 H       1  SER1        0.2951
@<TRIPOS>BOND
     1     1     2    1
     2     2     3    1
     3     3     4    1
     4     2     5    1
     5     5     6    1
     6     5     7    2
     7     1     8    1
     8     1     9    1
     9     2    10    1
    10     3    11    1
    11     3    12    1
    12     4    13    1
    13     6    14    1
