@<TRIPOS>MOLECULE
*****
 57 60 0 0 0
SMALL
GASTEIGER

@<TRIPOS>ATOM
      1 N           6.6830    2.7563    1.2882 N.2     1  UNL1       -0.0994
      2 C           6.6873    1.7854    2.1327 C.2     1  UNL1        0.3082
      3 N           7.3791    1.9757    3.3568 N.pl3   1  UNL1       -0.2466
      4 C           5.9999    0.5470    1.8199 C.ar    1  UNL1        0.0682
      5 C           6.4816   -0.6307    2.3439 C.ar    1  UNL1       -0.0467
      6 C           5.8297   -1.8187    2.0501 C.ar    1  UNL1       -0.0575
      7 C           4.7005   -1.8003    1.2311 C.ar    1  UNL1       -0.0193
      8 C           4.2051   -0.6303    0.6983 C.ar    1  UNL1        0.1293
      9 O           3.0793   -0.6831   -0.1075 O.3     1  UNL1       -0.4541
     10 C           3.2015   -0.8502   -1.4611 C.ar    1  UNL1        0.1495
     11 C           4.4358   -0.9696   -2.0627 C.ar    1  UNL1       -0.0175
     12 C           4.5815   -1.1383   -3.4218 C.ar    1  UNL1       -0.0582
     13 C           3.4409   -1.1868   -4.1889 C.ar    1  UNL1       -0.0598
     14 C           2.1771   -1.0667   -3.5906 C.ar    1  UNL1       -0.0369
     15 C           2.0572   -0.8987   -2.2299 C.ar    1  UNL1        0.0764
     16 N           0.8216   -0.7736   -1.5757 N.am    1  UNL1       -0.2785
     17 C          -0.4727   -0.7924   -2.1341 C.2     1  UNL1        0.2483
     18 O          -0.5945   -0.9365   -3.3693 O.2     1  UNL1       -0.2699
     19 C          -1.7165   -0.6519   -1.3524 C.ar    1  UNL1        0.0371
     20 C          -2.9194   -0.6851   -2.0015 C.ar    1  UNL1       -0.0490
     21 C          -4.0883   -0.5580   -1.3040 C.ar    1  UNL1       -0.0533
     22 C          -4.1578   -0.3910    0.0574 C.ar    1  UNL1       -0.0160
     23 C          -5.4155   -0.2300    0.7589 C.ar    1  UNL1        0.0084
     24 C          -5.9227   -1.2462    1.5739 C.ar    1  UNL1       -0.0522
     25 C          -7.1321   -1.1332    2.2228 C.ar    1  UNL1       -0.0611
     26 C          -7.8908    0.0099    2.0825 C.ar    1  UNL1       -0.0599
     27 C          -7.4123    1.0155    1.2905 C.ar    1  UNL1       -0.0348
     28 C          -6.1805    0.9024    0.6296 C.ar    1  UNL1        0.1127
     29 S          -5.6572    2.2552   -0.3040 S.O2    1  UNL1        0.0565
     30 N          -6.8415    3.5161   -0.2121 N.3     1  UNL1       -0.2035
     31 O          -5.3706    1.9923   -1.7282 O.2     1  UNL1       -0.1532
     32 O          -4.4199    2.8073    0.3852 O.2     1  UNL1       -0.1532
     33 C          -2.9326   -0.3576    0.7198 C.ar    1  UNL1       -0.0533
     34 C          -1.7334   -0.4875    0.0133 C.ar    1  UNL1       -0.0490
     35 C           4.8788    0.5381    1.0109 C.ar    1  UNL1       -0.0045
     36 H           6.2102    2.7281    0.3638 H       1  UNL1        0.3633
     37 H           7.6715    1.1860    3.9740 H       1  UNL1        0.2884
     38 H           7.6253    2.9249    3.6916 H       1  UNL1        0.2884
     39 H           7.3540   -0.6712    2.9805 H       1  UNL1        0.0626
     40 H           6.2228   -2.7391    2.4717 H       1  UNL1        0.0619
     41 H           4.1948   -2.7283    1.0041 H       1  UNL1        0.0654
     42 H           5.3334   -0.9274   -1.4257 H       1  UNL1        0.0655
     43 H           5.5478   -1.2302   -3.8794 H       1  UNL1        0.0619
     44 H           3.5498   -1.3177   -5.2452 H       1  UNL1        0.0618
     45 H           1.3594   -1.1166   -4.2670 H       1  UNL1        0.0637
     46 H           0.8193   -0.6455   -0.5135 H       1  UNL1        0.1552
     47 H          -2.9396   -0.8128   -3.0724 H       1  UNL1        0.0625
     48 H          -5.0235   -0.6144   -1.8522 H       1  UNL1        0.0624
     49 H          -5.3127   -2.1221    1.6648 H       1  UNL1        0.0624
     50 H          -7.5147   -1.9358    2.8560 H       1  UNL1        0.0618
     51 H          -8.8394    0.0669    2.6068 H       1  UNL1        0.0618
     52 H          -8.0146    1.9056    1.1879 H       1  UNL1        0.0637
     53 H          -7.1086    3.7124    0.7619 H       1  UNL1        0.1442
     54 H          -7.6177    3.3856   -0.8733 H       1  UNL1        0.1442
     55 H          -2.9570   -0.2287    1.7874 H       1  UNL1        0.0624
     56 H          -0.8200   -0.4548    0.5713 H       1  UNL1        0.0625
     57 H           4.4777    1.4504    0.5847 H       1  UNL1        0.0663
@<TRIPOS>BOND
     1     1     2    2
     2     2     3    1
     3     2     4    1
     4     4     5   ar
     5     5     6   ar
     6     6     7   ar
     7     7     8   ar
     8     8     9    1
     9     9    10    1
    10    10    11   ar
    11    11    12   ar
    12    12    13   ar
    13    13    14   ar
    14    14    15   ar
    15    15    16    1
    16    16    17   am
    17    17    18    2
    18    17    19    1
    19    19    20   ar
    20    20    21   ar
    21    21    22   ar
    22    22    23    1
    23    23    24   ar
    24    24    25   ar
    25    25    26   ar
    26    26    27   ar
    27    27    28   ar
    28    28    29    1
    29    29    30    1
    30    29    31    2
    31    29    32    2
    32    22    33   ar
    33    33    34   ar
    34     8    35   ar
    35    35     4   ar
    36    15    10   ar
    37    34    19   ar
    38    28    23   ar
    39     1    36    1
    40     3    37    1
    41     3    38    1
    42     5    39    1
    43     6    40    1
    44     7    41    1
    45    11    42    1
    46    12    43    1
    47    13    44    1
    48    14    45    1
    49    16    46    1
    50    20    47    1
    51    21    48    1
    52    24    49    1
    53    25    50    1
    54    26    51    1
    55    27    52    1
    56    30    53    1
    57    30    54    1
    58    33    55    1
    59    34    56    1
    60    35    57    1
