@<TRIPOS>MOLECULE
*****
 48 52 0 0 0
SMALL
GASTEIGER

@<TRIPOS>ATOM
      1 O          -0.0967    1.2690   -0.7376 O.2     1  UNL1       -0.2666
      2 C           0.1758    0.1492   -0.2813 C.ar    1  UNL1        0.2704
      3 C          -0.7693   -0.6567    0.3095 C.ar    1  UNL1        0.1734
      4 C          -2.1750   -0.2337    0.4243 C.2     1  UNL1        0.3512
      5 N          -2.7116    0.3733   -0.5685 N.2     1  UNL1       -0.0372
      6 C          -4.0367    0.8478   -0.6437 C.ar    1  UNL1        0.2049
      7 C          -4.4708    1.5158   -1.7982 C.ar    1  UNL1       -0.0088
      8 C          -5.7441    2.0175   -1.9284 C.ar    1  UNL1       -0.0575
      9 C          -6.6419    1.8711   -0.9031 C.ar    1  UNL1       -0.0596
     10 C          -6.2223    1.2131    0.2395 C.ar    1  UNL1       -0.0288
     11 C          -4.9703    0.7251    0.3550 C.ar    1  UNL1        0.1791
     12 S          -4.5223   -0.1115    1.8198 S.O2    1  UNL1        0.1360
     13 O          -5.3570   -1.3158    2.0789 O.2     1  UNL1       -0.1302
     14 O          -4.6632    0.8070    3.0084 O.2     1  UNL1       -0.1302
     15 N          -2.8446   -0.4903    1.6439 N.pl3   1  UNL1       -0.0896
     16 C          -0.4288   -1.8910    0.8028 C.ar    1  UNL1        0.1463
     17 O          -1.3681   -2.6995    1.3908 O.3     1  UNL1       -0.5051
     18 C           0.8837   -2.3134    0.6976 C.ar    1  UNL1        0.0437
     19 C           1.2203   -3.5427    1.1970 C.ar    1  UNL1       -0.0138
     20 C           2.5299   -3.9552    1.0954 C.ar    1  UNL1        0.1242
     21 F           2.9088   -5.1812    1.5836 F       1  UNL1       -0.2055
     22 C           3.4935   -3.1632    0.5084 C.ar    1  UNL1       -0.0245
     23 C           3.1478   -1.9232    0.0059 C.ar    1  UNL1       -0.0347
     24 C           1.8393   -1.4970    0.1000 C.ar    1  UNL1        0.0557
     25 N           1.4692   -0.2847   -0.3777 N.ar    1  UNL1       -0.3072
     26 C           2.4219    0.5665   -1.0200 C.3     1  UNL1        0.0270
     27 C           3.1734    1.4681   -0.0445 C.3     1  UNL1       -0.0320
     28 C           4.1514    2.3263   -0.7932 C.3     1  UNL1       -0.0394
     29 C           5.2364    1.7382   -1.5977 C.3     1  UNL1       -0.0499
     30 C           5.5883    2.3106   -0.2645 C.3     1  UNL1       -0.0499
     31 H          -3.7622    1.6271   -2.5980 H       1  UNL1        0.0661
     32 H          -6.0149    2.5245   -2.8498 H       1  UNL1        0.0619
     33 H          -7.6409    2.2677   -1.0112 H       1  UNL1        0.0618
     34 H          -6.9364    1.0966    1.0549 H       1  UNL1        0.0639
     35 H          -2.3137   -0.8947    2.4203 H       1  UNL1        0.3258
     36 H          -1.3130   -3.0744    2.3096 H       1  UNL1        0.2922
     37 H           0.4608   -4.1454    1.6499 H       1  UNL1        0.0654
     38 H           4.5278   -3.4755    0.4220 H       1  UNL1        0.0647
     39 H           3.8628   -1.2673   -0.4522 H       1  UNL1        0.0639
     40 H           3.1807    0.0574   -1.6262 H       1  UNL1        0.0493
     41 H           1.8766    1.3022   -1.6932 H       1  UNL1        0.0493
     42 H           2.4683    2.0649    0.5694 H       1  UNL1        0.0285
     43 H           3.7423    0.8422    0.6714 H       1  UNL1        0.0285
     44 H           3.7687    3.3179   -1.1343 H       1  UNL1        0.0301
     45 H           5.3167    0.6354   -1.7727 H       1  UNL1        0.0268
     46 H           5.6066    2.3109   -2.4846 H       1  UNL1        0.0268
     47 H           6.1053    3.3109   -0.2352 H       1  UNL1        0.0268
     48 H           5.8476    1.5603    0.5073 H       1  UNL1        0.0268
@<TRIPOS>BOND
     1     1     2    2
     2     2     3   ar
     3     3     4    1
     4     4     5    2
     5     5     6    1
     6     6     7   ar
     7     7     8   ar
     8     8     9   ar
     9     9    10   ar
    10    10    11   ar
    11    11    12    1
    12    12    13    2
    13    12    14    2
    14    12    15    1
    15     3    16   ar
    16    16    17    1
    17    16    18   ar
    18    18    19   ar
    19    19    20   ar
    20    20    21    1
    21    20    22   ar
    22    22    23   ar
    23    23    24   ar
    24    24    25   ar
    25    25    26    1
    26    26    27    1
    27    27    28    1
    28    28    29    1
    29    29    30    1
    30    25     2   ar
    31    30    28    1
    32    15     4    1
    33    24    18   ar
    34    11     6   ar
    35     7    31    1
    36     8    32    1
    37     9    33    1
    38    10    34    1
    39    15    35    1
    40    17    36    1
    41    19    37    1
    42    22    38    1
    43    23    39    1
    44    26    40    1
    45    26    41    1
    46    27    42    1
    47    27    43    1
    48    28    44    1
    49    29    45    1
    50    29    46    1
    51    30    47    1
    52    30    48    1
