@<TRIPOS>MOLECULE
*****
 46 50 0 0 0
SMALL
GASTEIGER

@<TRIPOS>ATOM
      1 O         -10.7821   -1.2659   -0.2546 O.3     1  UNL1       -0.5066
      2 C          -9.4631   -0.8793   -0.0361 C.ar    1  UNL1        0.1204
      3 C          -8.4568   -1.5591   -0.6664 C.ar    1  UNL1       -0.0193
      4 C          -7.1456   -1.1769   -0.4509 C.ar    1  UNL1       -0.0450
      5 C          -6.8153   -0.1454    0.3682 C.ar    1  UNL1        0.0506
      6 C          -5.4078    0.2960    0.6250 C.ar    1  UNL1        0.1360
      7 N          -4.7469    1.0691    1.2085 N.ar    1  UNL1       -0.1408
      8 N          -3.4501    1.1327    1.1645 N.ar    1  UNL1       -0.1409
      9 C          -2.7437    0.4409    0.5464 C.ar    1  UNL1        0.1325
     10 C          -1.3438    0.1991    0.2449 C.ar    1  UNL1        0.0090
     11 C          -0.9245   -0.8154   -0.6159 C.ar    1  UNL1       -0.0514
     12 C           0.4109   -1.0233   -0.8850 C.ar    1  UNL1       -0.0514
     13 C           1.3898   -0.2395   -0.3166 C.ar    1  UNL1        0.0090
     14 C           2.7778   -0.3957   -0.5476 C.ar    1  UNL1        0.1325
     15 N           3.4984   -1.2712   -1.3172 N.ar    1  UNL1       -0.1409
     16 N           4.7344   -1.2037   -1.3539 N.ar    1  UNL1       -0.1408
     17 C           5.4576   -0.3601   -0.7177 C.ar    1  UNL1        0.1360
     18 C           6.8780   -0.0711   -0.5870 C.ar    1  UNL1        0.0506
     19 C           7.8129   -0.8053   -1.2574 C.ar    1  UNL1       -0.0450
     20 C           9.1479   -0.5072   -1.1129 C.ar    1  UNL1       -0.0193
     21 C           9.6091    0.5261   -0.3017 C.ar    1  UNL1        0.1204
     22 O          10.9609    0.8134   -0.1674 O.3     1  UNL1       -0.5066
     23 C           8.6608    1.2626    0.3715 C.ar    1  UNL1        0.0220
     24 C           7.3251    0.9705    0.2319 C.ar    1  UNL1        0.1300
     25 O           6.3556    1.7177    0.9156 O.3     1  UNL1       -0.5060
     26 S           4.1265    0.5661    0.1388 S.2     1  UNL1       -0.0454
     27 C           0.9562    0.7649    0.5370 C.ar    1  UNL1       -0.0514
     28 C          -0.3797    0.9723    0.8057 C.ar    1  UNL1       -0.0514
     29 S          -4.0490   -0.6698   -0.2654 S.2     1  UNL1       -0.0454
     30 C          -7.8394    0.5385    1.0034 C.ar    1  UNL1        0.1300
     31 O          -7.5391    1.6001    1.8493 O.3     1  UNL1       -0.5060
     32 C          -9.1543    0.1875    0.8136 C.ar    1  UNL1        0.0220
     33 H         -11.0235   -1.7633   -1.1009 H       1  UNL1        0.2921
     34 H          -8.6747   -2.3709   -1.3143 H       1  UNL1        0.0654
     35 H          -6.3427   -1.7205   -0.9549 H       1  UNL1        0.0627
     36 H          -1.6632   -1.4383   -1.0705 H       1  UNL1        0.0624
     37 H           0.7542   -1.8122   -1.5557 H       1  UNL1        0.0624
     38 H           7.4642   -1.6185   -1.8968 H       1  UNL1        0.0627
     39 H           9.9125   -1.0696   -1.6300 H       1  UNL1        0.0654
     40 H          11.4106    1.2559   -0.9566 H       1  UNL1        0.2921
     41 H           8.9615    2.0795    1.0176 H       1  UNL1        0.0691
     42 H           5.9820    1.3105    1.7775 H       1  UNL1        0.2922
     43 H           1.6656    1.4337    1.0313 H       1  UNL1        0.0624
     44 H          -0.7205    1.7631    1.4778 H       1  UNL1        0.0624
     45 H          -7.6369    2.5671    1.5641 H       1  UNL1        0.2922
     46 H          -9.9498    0.7147    1.3037 H       1  UNL1        0.0691
@<TRIPOS>BOND
     1     1     2    1
     2     2     3   ar
     3     3     4   ar
     4     4     5   ar
     5     5     6    1
     6     6     7   ar
     7     7     8   ar
     8     8     9   ar
     9     9    10    1
    10    10    11   ar
    11    11    12   ar
    12    12    13   ar
    13    13    14    1
    14    14    15   ar
    15    15    16   ar
    16    16    17   ar
    17    17    18    1
    18    18    19   ar
    19    19    20   ar
    20    20    21   ar
    21    21    22    1
    22    21    23   ar
    23    23    24   ar
    24    24    25    1
    25    17    26   ar
    26    13    27   ar
    27    27    28   ar
    28     9    29   ar
    29     5    30   ar
    30    30    31    1
    31    30    32   ar
    32    32     2   ar
    33    29     6   ar
    34    28    10   ar
    35    26    14   ar
    36    24    18   ar
    37     1    33    1
    38     3    34    1
    39     4    35    1
    40    11    36    1
    41    12    37    1
    42    19    38    1
    43    20    39    1
    44    22    40    1
    45    23    41    1
    46    25    42    1
    47    27    43    1
    48    28    44    1
    49    31    45    1
    50    32    46    1
