
     RDKit          3D

 58 62  0  0  0  0  0  0  0  0999 V2000
    7.6153   -0.5990    1.0556 C   0  0  0  0  0  0  0  0  0  0  0  0
    6.1410   -0.6693    0.8813 C   0  0  0  0  0  0  0  0  0  0  0  0
    5.4295   -1.4629    1.7492 C   0  0  0  0  0  0  0  0  0  0  0  0
    4.0667   -1.5459    1.6108 C   0  0  0  0  0  0  0  0  0  0  0  0
    3.4367   -0.8441    0.6192 C   0  0  0  0  0  0  0  0  0  0  0  0
    1.9652   -0.9519    0.4925 C   0  0  0  0  0  0  0  0  0  0  0  0
    1.5675   -1.8700   -0.2547 O   0  0  0  0  0  0  0  0  0  0  0  0
    1.0969   -0.0893    1.1605 N   0  0  0  0  0  0  0  0  0  0  0  0
    1.6134    0.9590    2.0111 C   0  0  0  0  0  0  0  0  0  0  0  0
    1.1914    2.2754    1.3430 C   0  0  0  0  0  0  0  0  0  0  0  0
    0.2122    2.0410    0.3541 O   0  0  0  0  0  0  0  0  0  0  0  0
   -0.8254    1.2439    0.8962 C   0  0  0  0  0  0  0  0  0  0  0  0
   -0.3297   -0.1764    1.0495 C   0  0  1  0  0  0  0  0  0  0  0  0
   -0.8530   -1.1464    0.0532 C   0  0  0  0  0  0  0  0  0  0  0  0
   -2.3523   -1.1353    0.0212 C   0  0  0  0  0  0  0  0  0  0  0  0
   -3.0735   -1.8968    0.9433 C   0  0  0  0  0  0  0  0  0  0  0  0
   -4.4634   -1.9354    0.9355 C   0  0  0  0  0  0  0  0  0  0  0  0
   -5.1637   -1.2178    0.0109 C   0  0  0  0  0  0  0  0  0  0  0  0
   -6.6436   -1.2736    0.0214 C   0  0  0  0  0  0  0  0  0  0  0  0
   -4.4805   -0.4574   -0.9119 C   0  0  0  0  0  0  0  0  0  0  0  0
   -5.2386    0.2770   -1.8599 N   0  0  0  0  0  0  0  0  0  0  0  0
   -5.2839   -0.0452   -3.1463 N   0  0  0  0  0  0  0  0  0  0  0  0
   -6.0679    0.8089   -3.8099 C   0  0  0  0  0  0  0  0  0  0  0  0
   -6.5338    1.7094   -2.8841 C   0  0  0  0  0  0  0  0  0  0  0  0
   -5.9993    1.3442   -1.7026 N   0  0  0  0  0  0  0  0  0  0  0  0
   -3.0899   -0.4246   -0.8972 C   0  0  0  0  0  0  0  0  0  0  0  0
    4.1785   -0.0626   -0.2281 C   0  0  0  0  0  0  0  0  0  0  0  0
    3.5119    0.6694   -1.2640 N   0  0  0  0  0  0  0  0  0  0  0  0
    3.9214    1.8150   -1.7547 N   0  0  0  0  0  0  0  0  0  0  0  0
    3.0887    2.2561   -2.7141 C   0  0  0  0  0  0  0  0  0  0  0  0
    2.1129    1.2878   -2.7892 C   0  0  0  0  0  0  0  0  0  0  0  0
    2.4069    0.3396   -1.8906 N   0  0  0  0  0  0  0  0  0  0  0  0
    5.5585    0.0577   -0.1334 C   0  0  0  0  0  0  0  0  0  0  0  0
    8.0809   -0.2800    0.0891 H   0  0  0  0  0  0  0  0  0  0  0  0
    8.0537   -1.5659    1.3122 H   0  0  0  0  0  0  0  0  0  0  0  0
    7.9169    0.1646    1.8024 H   0  0  0  0  0  0  0  0  0  0  0  0
    5.9439   -2.0273    2.5481 H   0  0  0  0  0  0  0  0  0  0  0  0
    3.4817   -2.1738    2.2935 H   0  0  0  0  0  0  0  0  0  0  0  0
    1.1214    0.8508    3.0043 H   0  0  0  0  0  0  0  0  0  0  0  0
    2.6961    0.9119    2.1511 H   0  0  0  0  0  0  0  0  0  0  0  0
    0.6940    2.9102    2.1064 H   0  0  0  0  0  0  0  0  0  0  0  0
    2.0470    2.7508    0.8640 H   0  0  0  0  0  0  0  0  0  0  0  0
   -1.1266    1.7026    1.8656 H   0  0  0  0  0  0  0  0  0  0  0  0
   -1.6645    1.2446    0.1881 H   0  0  0  0  0  0  0  0  0  0  0  0
   -0.7593   -0.4898    2.0722 H   0  0  0  0  0  0  0  0  0  0  0  0
   -0.5958   -2.2006    0.3086 H   0  0  0  0  0  0  0  0  0  0  0  0
   -0.4313   -0.9208   -0.9383 H   0  0  0  0  0  0  0  0  0  0  0  0
   -2.5396   -2.4684    1.6787 H   0  0  0  0  0  0  0  0  0  0  0  0
   -4.9936   -2.5402    1.6696 H   0  0  0  0  0  0  0  0  0  0  0  0
   -6.9487   -2.0690   -0.7032 H   0  0  0  0  0  0  0  0  0  0  0  0
   -7.0565   -1.4833    1.0319 H   0  0  0  0  0  0  0  0  0  0  0  0
   -7.1145   -0.3315   -0.3213 H   0  0  0  0  0  0  0  0  0  0  0  0
   -6.3156    0.8232   -4.8783 H   0  0  0  0  0  0  0  0  0  0  0  0
   -7.1974    2.5375   -3.0925 H   0  0  0  0  0  0  0  0  0  0  0  0
   -2.6106    0.1714   -1.6437 H   0  0  0  0  0  0  0  0  0  0  0  0
    3.1910    3.1814   -3.2882 H   0  0  0  0  0  0  0  0  0  0  0  0
    1.2754    1.3387   -3.4767 H   0  0  0  0  0  0  0  0  0  0  0  0
    6.1359    0.6823   -0.8133 H   0  0  0  0  0  0  0  0  0  0  0  0
  1  2  1  0
  2  3  2  0
  3  4  1  0
  4  5  2  0
  5  6  1  0
  6  7  2  0
  6  8  1  0
  8  9  1  0
  9 10  1  0
 10 11  1  0
 11 12  1  0
 12 13  1  0
 13 14  1  0
 14 15  1  0
 15 16  2  0
 16 17  1  0
 17 18  2  0
 18 19  1  0
 18 20  1  0
 20 21  1  0
 21 22  1  0
 22 23  2  0
 23 24  1  0
 24 25  2  0
 20 26  2  0
  5 27  1  0
 27 28  1  0
 28 29  1  0
 29 30  2  0
 30 31  1  0
 31 32  2  0
 27 33  2  0
 33  2  1  0
 13  8  1  0
 26 15  1  0
 32 28  1  0
 25 21  1  0
  1 34  1  0
  1 35  1  0
  1 36  1  0
  3 37  1  0
  4 38  1  0
  9 39  1  0
  9 40  1  0
 10 41  1  0
 10 42  1  0
 12 43  1  0
 12 44  1  0
 13 45  1  1
 14 46  1  0
 14 47  1  0
 16 48  1  0
 17 49  1  0
 19 50  1  0
 19 51  1  0
 19 52  1  0
 23 53  1  0
 24 54  1  0
 26 55  1  0
 30 56  1  0
 31 57  1  0
 33 58  1  0
M  END
$$$$
