@<TRIPOS>MOLECULE
*****
 58 62 0 0 0
SMALL
GASTEIGER

@<TRIPOS>ATOM
      1 C           7.6153   -0.5990    1.0556 C.3     1  UNL1       -0.0396
      2 C           6.1410   -0.6693    0.8813 C.ar    1  UNL1       -0.0483
      3 C           5.4295   -1.4629    1.7492 C.ar    1  UNL1       -0.0580
      4 C           4.0667   -1.5459    1.6108 C.ar    1  UNL1       -0.0473
      5 C           3.4367   -0.8441    0.6192 C.ar    1  UNL1        0.0640
      6 C           1.9652   -0.9519    0.4925 C.2     1  UNL1        0.2491
      7 O           1.5675   -1.8700   -0.2547 O.2     1  UNL1       -0.2699
      8 N           1.0969   -0.0893    1.1605 N.am    1  UNL1       -0.2897
      9 C           1.6134    0.9590    2.0111 C.3     1  UNL1        0.0388
     10 C           1.1914    2.2754    1.3430 C.3     1  UNL1        0.0635
     11 O           0.2122    2.0410    0.3541 O.3     1  UNL1       -0.3764
     12 C          -0.8254    1.2439    0.8962 C.3     1  UNL1        0.0666
     13 C          -0.3297   -0.1764    1.0495 C.3     1  UNL1        0.0537
     14 C          -0.8530   -1.1464    0.0532 C.3     1  UNL1       -0.0068
     15 C          -2.3523   -1.1353    0.0212 C.ar    1  UNL1       -0.0435
     16 C          -3.0735   -1.8968    0.9433 C.ar    1  UNL1       -0.0581
     17 C          -4.4634   -1.9354    0.9355 C.ar    1  UNL1       -0.0565
     18 C          -5.1637   -1.2178    0.0109 C.ar    1  UNL1       -0.0233
     19 C          -6.6436   -1.2736    0.0214 C.3     1  UNL1       -0.0376
     20 C          -4.4805   -0.4574   -0.9119 C.ar    1  UNL1        0.0893
     21 N          -5.2386    0.2770   -1.8599 N.ar    1  UNL1       -0.1501
     22 N          -5.2839   -0.0452   -3.1463 N.ar    1  UNL1       -0.1556
     23 C          -6.0679    0.8089   -3.8099 C.ar    1  UNL1        0.0697
     24 C          -6.5338    1.7094   -2.8841 C.ar    1  UNL1        0.0697
     25 N          -5.9993    1.3442   -1.7026 N.ar    1  UNL1       -0.1556
     26 C          -3.0899   -0.4246   -0.8972 C.ar    1  UNL1       -0.0310
     27 C           4.1785   -0.0626   -0.2281 C.ar    1  UNL1        0.0985
     28 N           3.5119    0.6694   -1.2640 N.ar    1  UNL1       -0.1496
     29 N           3.9214    1.8150   -1.7547 N.ar    1  UNL1       -0.1556
     30 C           3.0887    2.2561   -2.7141 C.ar    1  UNL1        0.0697
     31 C           2.1129    1.2878   -2.7892 C.ar    1  UNL1        0.0697
     32 N           2.4069    0.3396   -1.8906 N.ar    1  UNL1       -0.1556
     33 C           5.5585    0.0577   -0.1334 C.ar    1  UNL1       -0.0309
     34 H           8.0809   -0.2800    0.0891 H       1  UNL1        0.0278
     35 H           8.0537   -1.5659    1.3122 H       1  UNL1        0.0278
     36 H           7.9169    0.1646    1.8024 H       1  UNL1        0.0278
     37 H           5.9439   -2.0273    2.5481 H       1  UNL1        0.0620
     38 H           3.4817   -2.1738    2.2935 H       1  UNL1        0.0626
     39 H           1.1214    0.8508    3.0043 H       1  UNL1        0.0487
     40 H           2.6961    0.9119    2.1511 H       1  UNL1        0.0487
     41 H           0.6940    2.9102    2.1064 H       1  UNL1        0.0575
     42 H           2.0470    2.7508    0.8640 H       1  UNL1        0.0575
     43 H          -1.1266    1.7026    1.8656 H       1  UNL1        0.0578
     44 H          -1.6645    1.2446    0.1881 H       1  UNL1        0.0578
     45 H          -0.7593   -0.4898    2.0722 H       1  UNL1        0.0526
     46 H          -0.5958   -2.2006    0.3086 H       1  UNL1        0.0332
     47 H          -0.4313   -0.9208   -0.9383 H       1  UNL1        0.0332
     48 H          -2.5396   -2.4684    1.6787 H       1  UNL1        0.0620
     49 H          -4.9936   -2.5402    1.6696 H       1  UNL1        0.0621
     50 H          -6.9487   -2.0690   -0.7032 H       1  UNL1        0.0278
     51 H          -7.0565   -1.4833    1.0319 H       1  UNL1        0.0278
     52 H          -7.1145   -0.3315   -0.3213 H       1  UNL1        0.0278
     53 H          -6.3156    0.8232   -4.8783 H       1  UNL1        0.0864
     54 H          -7.1974    2.5375   -3.0925 H       1  UNL1        0.0864
     55 H          -2.6106    0.1714   -1.6437 H       1  UNL1        0.0642
     56 H           3.1910    3.1814   -3.2882 H       1  UNL1        0.0864
     57 H           1.2754    1.3387   -3.4767 H       1  UNL1        0.0864
     58 H           6.1359    0.6823   -0.8133 H       1  UNL1        0.0642
@<TRIPOS>BOND
     1     1     2    1
     2     2     3   ar
     3     3     4   ar
     4     4     5   ar
     5     5     6    1
     6     6     7    2
     7     6     8   am
     8     8     9    1
     9     9    10    1
    10    10    11    1
    11    11    12    1
    12    12    13    1
    13    13    14    1
    14    14    15    1
    15    15    16   ar
    16    16    17   ar
    17    17    18   ar
    18    18    19    1
    19    18    20   ar
    20    20    21    1
    21    21    22   ar
    22    22    23   ar
    23    23    24   ar
    24    24    25   ar
    25    20    26   ar
    26     5    27   ar
    27    27    28    1
    28    28    29   ar
    29    29    30   ar
    30    30    31   ar
    31    31    32   ar
    32    27    33   ar
    33    33     2   ar
    34    13     8    1
    35    26    15   ar
    36    32    28   ar
    37    25    21   ar
    38     1    34    1
    39     1    35    1
    40     1    36    1
    41     3    37    1
    42     4    38    1
    43     9    39    1
    44     9    40    1
    45    10    41    1
    46    10    42    1
    47    12    43    1
    48    12    44    1
    49    13    45    1
    50    14    46    1
    51    14    47    1
    52    16    48    1
    53    17    49    1
    54    19    50    1
    55    19    51    1
    56    19    52    1
    57    23    53    1
    58    24    54    1
    59    26    55    1
    60    30    56    1
    61    31    57    1
    62    33    58    1
