
     RDKit          3D

 63 66  0  0  0  0  0  0  0  0999 V2000
   -0.6161    0.3967    2.5783 C   0  0  0  0  0  0  0  0  0  0  0  0
   -0.1659    0.9386    1.2653 C   0  0  1  0  0  0  0  0  0  0  0  0
    1.2888    0.7242    1.1125 C   0  0  0  0  0  0  0  0  0  0  0  0
    2.0277    0.2816    2.1784 C   0  0  0  0  0  0  0  0  0  0  0  0
    3.4054    0.0644    2.0772 C   0  0  0  0  0  0  0  0  0  0  0  0
    4.0452    0.2963    0.8867 C   0  0  0  0  0  0  0  0  0  0  0  0
    5.4929    0.0718    0.7555 C   0  0  0  0  0  0  0  0  0  0  0  0
    6.1074   -0.9215    1.4908 C   0  0  0  0  0  0  0  0  0  0  0  0
    7.4705   -1.1331    1.3632 C   0  0  0  0  0  0  0  0  0  0  0  0
    8.1577   -0.3256    0.4917 C   0  0  0  0  0  0  0  0  0  0  0  0
    9.4117   -0.5162    0.3705 O   0  0  0  0  0  0  0  0  0  0  0  0
    7.5812    0.6485   -0.2352 N   0  0  0  0  0  0  0  0  0  0  0  0
    8.3962    1.4409   -1.1287 C   0  0  0  0  0  0  0  0  0  0  0  0
    6.2553    0.8339   -0.0931 C   0  0  0  0  0  0  0  0  0  0  0  0
    3.3194    0.7422   -0.1987 C   0  0  0  0  0  0  0  0  0  0  0  0
    1.9564    0.9528   -0.0833 C   0  0  0  0  0  0  0  0  0  0  0  0
   -0.9160    0.4129    0.1443 N   0  0  0  0  0  0  0  0  0  0  0  0
   -1.6586    1.3088   -0.7057 C   0  0  0  0  0  0  0  0  0  0  0  0
   -2.6380    0.6702   -1.6381 C   0  0  0  0  0  0  0  0  0  0  0  0
   -3.0560   -0.6968   -1.2321 C   0  0  2  0  0  0  0  0  0  0  0  0
   -3.8580   -1.4558   -2.2593 C   0  0  0  0  0  0  0  0  0  0  0  0
   -5.1429   -0.8925   -2.6882 C   0  0  0  0  0  0  0  0  0  0  0  0
   -5.1562    0.3767   -3.4206 C   0  0  0  0  0  0  0  0  0  0  0  0
   -6.2487    1.3116   -3.2699 N   0  0  0  0  0  0  0  0  0  0  0  0
   -4.2049    0.6674   -4.2055 O   0  0  0  0  0  0  0  0  0  0  0  0
   -3.7982   -0.6972    0.0722 C   0  0  0  0  0  0  0  0  0  0  0  0
   -3.9442   -1.8701    0.8034 C   0  0  0  0  0  0  0  0  0  0  0  0
   -4.6445   -1.9165    1.9911 C   0  0  0  0  0  0  0  0  0  0  0  0
   -5.2279   -0.7539    2.4817 C   0  0  0  0  0  0  0  0  0  0  0  0
   -5.0847    0.4074    1.7594 C   0  0  0  0  0  0  0  0  0  0  0  0
   -4.3658    0.4258    0.5512 C   0  0  0  0  0  0  0  0  0  0  0  0
   -1.8520   -1.4878   -1.0832 O   0  0  0  0  0  0  0  0  0  0  0  0
   -0.9273   -0.9772   -0.1433 C   0  0  0  0  0  0  0  0  0  0  0  0
   -0.1032   -1.7066    0.4586 O   0  0  0  0  0  0  0  0  0  0  0  0
   -0.2585   -0.6574    2.7441 H   0  0  0  0  0  0  0  0  0  0  0  0
   -0.1903    1.0073    3.3971 H   0  0  0  0  0  0  0  0  0  0  0  0
   -1.7256    0.4444    2.6584 H   0  0  0  0  0  0  0  0  0  0  0  0
   -0.3023    2.0553    1.3040 H   0  0  0  0  0  0  0  0  0  0  0  0
    1.5929    0.0786    3.1434 H   0  0  0  0  0  0  0  0  0  0  0  0
    3.9931   -0.2843    2.9156 H   0  0  0  0  0  0  0  0  0  0  0  0
    5.5179   -1.5237    2.1594 H   0  0  0  0  0  0  0  0  0  0  0  0
    7.9309   -1.9119    1.9428 H   0  0  0  0  0  0  0  0  0  0  0  0
    8.7560    2.3454   -0.5765 H   0  0  0  0  0  0  0  0  0  0  0  0
    7.8577    1.7094   -2.0608 H   0  0  0  0  0  0  0  0  0  0  0  0
    9.2943    0.8463   -1.3903 H   0  0  0  0  0  0  0  0  0  0  0  0
    5.7789    1.6210   -0.6780 H   0  0  0  0  0  0  0  0  0  0  0  0
    3.8341    0.9204   -1.1304 H   0  0  0  0  0  0  0  0  0  0  0  0
    1.3475    1.3038   -0.9097 H   0  0  0  0  0  0  0  0  0  0  0  0
   -2.1771    2.1018   -0.1185 H   0  0  0  0  0  0  0  0  0  0  0  0
   -0.9255    1.8812   -1.3811 H   0  0  0  0  0  0  0  0  0  0  0  0
   -2.1239    0.5271   -2.6552 H   0  0  0  0  0  0  0  0  0  0  0  0
   -3.4859    1.3808   -1.7404 H   0  0  0  0  0  0  0  0  0  0  0  0
   -3.2102   -1.6284   -3.1713 H   0  0  0  0  0  0  0  0  0  0  0  0
   -4.0573   -2.5118   -1.9077 H   0  0  0  0  0  0  0  0  0  0  0  0
   -5.6915   -1.6345   -3.3649 H   0  0  0  0  0  0  0  0  0  0  0  0
   -5.8816   -0.7760   -1.8457 H   0  0  0  0  0  0  0  0  0  0  0  0
   -7.0499    1.0655   -2.6551 H   0  0  0  0  0  0  0  0  0  0  0  0
   -6.1802    2.2030   -3.7941 H   0  0  0  0  0  0  0  0  0  0  0  0
   -3.5011   -2.7879    0.4456 H   0  0  0  0  0  0  0  0  0  0  0  0
   -4.7697   -2.8175    2.5754 H   0  0  0  0  0  0  0  0  0  0  0  0
   -5.7841   -0.7388    3.4039 H   0  0  0  0  0  0  0  0  0  0  0  0
   -5.5481    1.3030    2.1598 H   0  0  0  0  0  0  0  0  0  0  0  0
   -4.3471    1.3972    0.0826 H   0  0  0  0  0  0  0  0  0  0  0  0
  1  2  1  0
  2  3  1  0
  3  4  2  0
  4  5  1  0
  5  6  2  0
  6  7  1  0
  7  8  1  0
  8  9  2  0
  9 10  1  0
 10 11  2  0
 10 12  1  0
 12 13  1  0
 12 14  1  0
  6 15  1  0
 15 16  2  0
  2 17  1  0
 17 18  1  0
 18 19  1  0
 19 20  1  0
 20 21  1  6
 21 22  1  0
 22 23  1  0
 23 24  1  0
 23 25  2  0
 20 26  1  0
 26 27  2  0
 27 28  1  0
 28 29  2  0
 29 30  1  0
 30 31  2  0
 20 32  1  0
 32 33  1  0
 33 34  2  0
 16  3  1  0
 33 17  1  0
 14  7  2  0
 31 26  1  0
  1 35  1  0
  1 36  1  0
  1 37  1  0
  2 38  1  1
  4 39  1  0
  5 40  1  0
  8 41  1  0
  9 42  1  0
 13 43  1  0
 13 44  1  0
 13 45  1  0
 14 46  1  0
 15 47  1  0
 16 48  1  0
 18 49  1  0
 18 50  1  0
 19 51  1  0
 19 52  1  0
 21 53  1  0
 21 54  1  0
 22 55  1  0
 22 56  1  0
 24 57  1  0
 24 58  1  0
 27 59  1  0
 28 60  1  0
 29 61  1  0
 30 62  1  0
 31 63  1  0
M  END
$$$$
