@<TRIPOS>MOLECULE
*****
 63 66 0 0 0
SMALL
GASTEIGER

@<TRIPOS>ATOM
      1 C          -0.6161    0.3967    2.5783 C.3     1  UNL1       -0.0421
      2 C          -0.1659    0.9386    1.2653 C.3     1  UNL1        0.0515
      3 C           1.2888    0.7242    1.1125 C.ar    1  UNL1       -0.0271
      4 C           2.0277    0.2816    2.1784 C.ar    1  UNL1       -0.0562
      5 C           3.4054    0.0644    2.0772 C.ar    1  UNL1       -0.0537
      6 C           4.0452    0.2963    0.8867 C.ar    1  UNL1       -0.0165
      7 C           5.4929    0.0718    0.7555 C.ar    1  UNL1       -0.0015
      8 C           6.1074   -0.9215    1.4908 C.ar    1  UNL1       -0.0475
      9 C           7.4705   -1.1331    1.3632 C.ar    1  UNL1        0.0036
     10 C           8.1577   -0.3256    0.4917 C.ar    1  UNL1        0.2511
     11 O           9.4117   -0.5162    0.3705 O.2     1  UNL1       -0.2677
     12 N           7.5812    0.6485   -0.2352 N.ar    1  UNL1       -0.3177
     13 C           8.3962    1.4409   -1.1287 C.3     1  UNL1        0.0147
     14 C           6.2553    0.8339   -0.0931 C.ar    1  UNL1        0.0153
     15 C           3.3194    0.7422   -0.1987 C.ar    1  UNL1       -0.0537
     16 C           1.9564    0.9528   -0.0833 C.ar    1  UNL1       -0.0562
     17 N          -0.9160    0.4129    0.1443 N.am    1  UNL1       -0.2605
     18 C          -1.6586    1.3088   -0.7057 C.3     1  UNL1        0.0224
     19 C          -2.6380    0.6702   -1.6381 C.3     1  UNL1        0.0075
     20 C          -3.0560   -0.6968   -1.2321 C.3     1  UNL1        0.1418
     21 C          -3.8580   -1.4558   -2.2593 C.3     1  UNL1       -0.0002
     22 C          -5.1429   -0.8925   -2.6882 C.3     1  UNL1        0.0277
     23 C          -5.1562    0.3767   -3.4206 C.2     1  UNL1        0.2106
     24 N          -6.2487    1.3116   -3.2699 N.am    1  UNL1       -0.3293
     25 O          -4.2049    0.6674   -4.2055 O.2     1  UNL1       -0.2760
     26 C          -3.7982   -0.6972    0.0722 C.ar    1  UNL1       -0.0041
     27 C          -3.9442   -1.8701    0.8034 C.ar    1  UNL1       -0.0548
     28 C          -4.6445   -1.9165    1.9911 C.ar    1  UNL1       -0.0614
     29 C          -5.2279   -0.7539    2.4817 C.ar    1  UNL1       -0.0617
     30 C          -5.0847    0.4074    1.7594 C.ar    1  UNL1       -0.0614
     31 C          -4.3658    0.4258    0.5512 C.ar    1  UNL1       -0.0548
     32 O          -1.8520   -1.4878   -1.0832 O.3     1  UNL1       -0.4388
     33 C          -0.9273   -0.9772   -0.1433 C.2     1  UNL1        0.4042
     34 O          -0.1032   -1.7066    0.4586 O.2     1  UNL1       -0.2262
     35 H          -0.2585   -0.6574    2.7441 H       1  UNL1        0.0251
     36 H          -0.1903    1.0073    3.3971 H       1  UNL1        0.0251
     37 H          -1.7256    0.4444    2.6584 H       1  UNL1        0.0251
     38 H          -0.3023    2.0553    1.3040 H       1  UNL1        0.0549
     39 H           1.5929    0.0786    3.1434 H       1  UNL1        0.0621
     40 H           3.9931   -0.2843    2.9156 H       1  UNL1        0.0624
     41 H           5.5179   -1.5237    2.1594 H       1  UNL1        0.0626
     42 H           7.9309   -1.9119    1.9428 H       1  UNL1        0.0672
     43 H           8.7560    2.3454   -0.5765 H       1  UNL1        0.0457
     44 H           7.8577    1.7094   -2.0608 H       1  UNL1        0.0457
     45 H           9.2943    0.8463   -1.3903 H       1  UNL1        0.0457
     46 H           5.7789    1.6210   -0.6780 H       1  UNL1        0.0816
     47 H           3.8341    0.9204   -1.1304 H       1  UNL1        0.0624
     48 H           1.3475    1.3038   -0.9097 H       1  UNL1        0.0621
     49 H          -2.1771    2.1018   -0.1185 H       1  UNL1        0.0467
     50 H          -0.9255    1.8812   -1.3811 H       1  UNL1        0.0467
     51 H          -2.1239    0.5271   -2.6552 H       1  UNL1        0.0322
     52 H          -3.4859    1.3808   -1.7404 H       1  UNL1        0.0322
     53 H          -3.2102   -1.6284   -3.1713 H       1  UNL1        0.0312
     54 H          -4.0573   -2.5118   -1.9077 H       1  UNL1        0.0312
     55 H          -5.6915   -1.6345   -3.3649 H       1  UNL1        0.0360
     56 H          -5.8816   -0.7760   -1.8457 H       1  UNL1        0.0360
     57 H          -7.0499    1.0655   -2.6551 H       1  UNL1        0.1449
     58 H          -6.1802    2.2030   -3.7941 H       1  UNL1        0.1449
     59 H          -3.5011   -2.7879    0.4456 H       1  UNL1        0.0622
     60 H          -4.7697   -2.8175    2.5754 H       1  UNL1        0.0618
     61 H          -5.7841   -0.7388    3.4039 H       1  UNL1        0.0618
     62 H          -5.5481    1.3030    2.1598 H       1  UNL1        0.0618
     63 H          -4.3471    1.3972    0.0826 H       1  UNL1        0.0622
@<TRIPOS>BOND
     1     1     2    1
     2     2     3    1
     3     3     4   ar
     4     4     5   ar
     5     5     6   ar
     6     6     7    1
     7     7     8   ar
     8     8     9   ar
     9     9    10   ar
    10    10    11    2
    11    10    12   ar
    12    12    13    1
    13    12    14   ar
    14     6    15   ar
    15    15    16   ar
    16     2    17    1
    17    17    18    1
    18    18    19    1
    19    19    20    1
    20    20    21    1
    21    21    22    1
    22    22    23    1
    23    23    24   am
    24    23    25    2
    25    20    26    1
    26    26    27   ar
    27    27    28   ar
    28    28    29   ar
    29    29    30   ar
    30    30    31   ar
    31    20    32    1
    32    32    33    1
    33    33    34    2
    34    16     3   ar
    35    33    17   am
    36    14     7   ar
    37    31    26   ar
    38     1    35    1
    39     1    36    1
    40     1    37    1
    41     2    38    1
    42     4    39    1
    43     5    40    1
    44     8    41    1
    45     9    42    1
    46    13    43    1
    47    13    44    1
    48    13    45    1
    49    14    46    1
    50    15    47    1
    51    16    48    1
    52    18    49    1
    53    18    50    1
    54    19    51    1
    55    19    52    1
    56    21    53    1
    57    21    54    1
    58    22    55    1
    59    22    56    1
    60    24    57    1
    61    24    58    1
    62    27    59    1
    63    28    60    1
    64    29    61    1
    65    30    62    1
    66    31    63    1
