@<TRIPOS>MOLECULE
*****
 32 35 0 0 0
SMALL
GASTEIGER

@<TRIPOS>ATOM
      1 C          -1.8714   -3.1912    0.4310 C.3     1  UNL1        0.0083
      2 N          -1.0616   -1.9733    0.5804 N.am    1  UNL1       -0.2733
      3 C           0.3165   -1.8831    0.8616 C.2     1  UNL1        0.2360
      4 O           1.0596   -2.9034    1.0276 O.2     1  UNL1       -0.2741
      5 C           0.6603   -0.4639    0.9130 C.3     1  UNL1        0.1391
      6 C           1.7646   -0.0944   -0.0033 C.2     1  UNL1        0.2351
      7 O           1.5292    0.7631   -0.8809 O.2     1  UNL1       -0.2742
      8 N           3.0471   -0.6569    0.0689 N.am    1  UNL1       -0.2624
      9 C           4.1155   -0.2672   -0.8543 C.ar    1  UNL1        0.1875
     10 N           4.6310   -0.4790   -1.8633 N.ar    1  UNL1       -0.1259
     11 N           5.6439    0.1543   -2.3666 N.ar    1  UNL1       -0.1481
     12 C           6.1902    1.0539   -1.8517 C.ar    1  UNL1        0.0902
     13 S           5.2042    1.2117   -0.2703 S.2     1  UNL1       -0.0387
     14 C          -0.5792    0.2487    0.6493 C.ar    1  UNL1       -0.0018
     15 C          -0.9295    1.5988    0.5593 C.ar    1  UNL1       -0.0126
     16 C          -2.1991    2.0478    0.2930 C.ar    1  UNL1        0.1352
     17 O          -2.7421    3.2524    0.1655 O.2     1  UNL1       -0.4629
     18 C          -4.0031    3.1608   -0.0917 C.ar    1  UNL1        0.0931
     19 C          -4.3577    1.8133   -0.1461 C.ar    1  UNL1       -0.0161
     20 C          -3.2020    1.1248    0.1000 C.ar    1  UNL1        0.0219
     21 C          -2.9007   -0.2146    0.1798 C.ar    1  UNL1       -0.0292
     22 C          -1.5891   -0.6519    0.4545 C.ar    1  UNL1        0.0411
     23 H          -2.5043   -3.3617    1.3235 H       1  UNL1        0.0433
     24 H          -1.1572   -4.0340    0.3399 H       1  UNL1        0.0433
     25 H          -2.4684   -3.0553   -0.4980 H       1  UNL1        0.0433
     26 H           0.9424   -0.2409    1.9773 H       1  UNL1        0.0540
     27 H           3.2888   -1.3637    0.7712 H       1  UNL1        0.1568
     28 H           7.0369    1.7595   -2.0239 H       1  UNL1        0.0927
     29 H          -0.1201    2.3042    0.7156 H       1  UNL1        0.0658
     30 H          -4.7548    3.9260   -0.2560 H       1  UNL1        0.1029
     31 H          -5.3050    1.3592   -0.3341 H       1  UNL1        0.0655
     32 H          -3.6849   -0.9436    0.0290 H       1  UNL1        0.0643
@<TRIPOS>BOND
     1     1     2    1
     2     2     3   am
     3     3     4    2
     4     3     5    1
     5     5     6    1
     6     6     7    2
     7     6     8   am
     8     8     9    1
     9     9    10   ar
    10    10    11   ar
    11    11    12   ar
    12    12    13   ar
    13     5    14    1
    14    14    15   ar
    15    15    16   ar
    16    16    17   ar
    17    17    18   ar
    18    18    19   ar
    19    19    20   ar
    20    20    21   ar
    21    21    22   ar
    22    22     2    1
    23    13     9   ar
    24    22    14   ar
    25    20    16   ar
    26     1    23    1
    27     1    24    1
    28     1    25    1
    29     5    26    1
    30     8    27    1
    31    12    28    1
    32    15    29    1
    33    18    30    1
    34    19    31    1
    35    21    32    1
