
     RDKit          3D

 35 38  0  0  0  0  0  0  0  0999 V2000
    4.9281    2.7463    0.4999 C   0  0  0  0  0  0  0  0  0  0  0  0
    3.7101    1.8992    0.3283 C   0  0  0  0  0  0  0  0  0  0  0  0
    2.6178    2.4709   -0.1382 N   0  0  0  0  0  0  0  0  0  0  0  0
    1.6647    1.5790   -0.2170 N   0  0  0  0  0  0  0  0  0  0  0  0
    2.1549    0.3696    0.2159 C   0  0  0  0  0  0  0  0  0  0  0  0
    3.4105    0.6116    0.5400 N   0  0  0  0  0  0  0  0  0  0  0  0
    1.4983   -0.9151    0.3190 C   0  0  0  0  0  0  0  0  0  0  0  0
    2.2355   -2.0012    0.8026 C   0  0  0  0  0  0  0  0  0  0  0  0
    1.8150   -3.2938    0.9825 C   0  0  0  0  0  0  0  0  0  0  0  0
    0.4957   -3.5520    0.6441 C   0  0  0  0  0  0  0  0  0  0  0  0
   -0.2923   -2.5318    0.1616 C   0  0  0  0  0  0  0  0  0  0  0  0
    0.2121   -1.2619    0.0115 C   0  0  0  0  0  0  0  0  0  0  0  0
   -0.6357   -0.2482   -0.4745 N   0  0  0  0  0  0  0  0  0  0  0  0
   -1.9990   -0.3943   -0.8459 C   0  0  0  0  0  0  0  0  0  0  0  0
   -2.5394   -1.3637   -1.6052 N   0  0  0  0  0  0  0  0  0  0  0  0
   -3.8501   -1.4038   -1.8742 C   0  0  0  0  0  0  0  0  0  0  0  0
   -4.7276   -0.4837   -1.4096 N   0  0  0  0  0  0  0  0  0  0  0  0
   -4.3225    0.5558   -0.6264 C   0  0  0  0  0  0  0  0  0  0  0  0
   -2.9624    0.5236   -0.3974 C   0  0  0  0  0  0  0  0  0  0  0  0
   -2.7221    1.6395    0.4157 C   0  0  0  0  0  0  0  0  0  0  0  0
   -3.8934    2.3182    0.6683 C   0  0  0  0  0  0  0  0  0  0  0  0
   -4.8204    1.6126    0.0106 N   0  0  0  0  0  0  0  0  0  0  0  0
    5.2167    3.2543   -0.4482 H   0  0  0  0  0  0  0  0  0  0  0  0
    5.7641    2.0248    0.6970 H   0  0  0  0  0  0  0  0  0  0  0  0
    4.7400    3.4421    1.3365 H   0  0  0  0  0  0  0  0  0  0  0  0
    4.1587   -0.0132    0.9169 H   0  0  0  0  0  0  0  0  0  0  0  0
    3.2895   -1.8463    1.0802 H   0  0  0  0  0  0  0  0  0  0  0  0
    2.4524   -4.0653    1.3589 H   0  0  0  0  0  0  0  0  0  0  0  0
    0.0417   -4.5271    0.7391 H   0  0  0  0  0  0  0  0  0  0  0  0
   -1.3313   -2.7347   -0.0992 H   0  0  0  0  0  0  0  0  0  0  0  0
   -0.4059    0.7501   -0.6466 H   0  0  0  0  0  0  0  0  0  0  0  0
   -4.2589   -2.2101   -2.4992 H   0  0  0  0  0  0  0  0  0  0  0  0
   -1.7688    1.9970    0.8338 H   0  0  0  0  0  0  0  0  0  0  0  0
   -4.0199    3.2130    1.2585 H   0  0  0  0  0  0  0  0  0  0  0  0
   -5.8560    1.8387   -0.0230 H   0  0  0  0  0  0  0  0  0  0  0  0
  1  2  1  0
  2  3  2  0
  3  4  1  0
  4  5  2  0
  5  6  1  0
  5  7  1  0
  7  8  2  0
  8  9  1  0
  9 10  2  0
 10 11  1  0
 11 12  2  0
 12 13  1  0
 13 14  1  0
 14 15  2  0
 15 16  1  0
 16 17  2  0
 17 18  1  0
 18 19  2  0
 19 20  1  0
 20 21  2  0
 21 22  1  0
  6  2  1  0
 12  7  1  0
 19 14  1  0
 22 18  1  0
  1 23  1  0
  1 24  1  0
  1 25  1  0
  6 26  1  0
  8 27  1  0
  9 28  1  0
 10 29  1  0
 11 30  1  0
 13 31  1  0
 16 32  1  0
 20 33  1  0
 21 34  1  0
 22 35  1  0
M  END
$$$$
