
     RDKit          3D

 81 86  0  0  0  0  0  0  0  0999 V2000
    2.7532    2.4206   -3.4376 C   0  0  0  0  0  0  0  0  0  0  0  0
    3.5885    1.5296   -2.5789 C   0  0  0  0  0  0  0  0  0  0  0  0
    4.8135    1.8952   -2.1448 N   0  0  0  0  0  0  0  0  0  0  0  0
    5.5829    1.0961   -1.3645 C   0  0  0  0  0  0  0  0  0  0  0  0
    6.8474    1.5230   -0.9412 O   0  0  0  0  0  0  0  0  0  0  0  0
    7.6057    0.6794   -0.1471 C   0  0  0  0  0  0  0  0  0  0  0  0
    7.4623    0.7787    1.2205 C   0  0  0  0  0  0  0  0  0  0  0  0
    8.2089   -0.0537    2.0569 C   0  0  0  0  0  0  0  0  0  0  0  0
    9.0904   -0.9773    1.5477 C   0  0  0  0  0  0  0  0  0  0  0  0
    9.8627   -1.8377    2.4218 C   0  0  0  0  0  0  0  0  0  0  0  0
    9.6983   -1.7117    3.8225 N   0  0  0  0  0  0  0  0  0  0  0  0
   10.6643   -2.6813    1.9608 O   0  0  0  0  0  0  0  0  0  0  0  0
    9.2302   -1.0728    0.1826 C   0  0  0  0  0  0  0  0  0  0  0  0
    8.4869   -0.2444   -0.6409 C   0  0  0  0  0  0  0  0  0  0  0  0
    5.0601   -0.1331   -1.0200 C   0  0  0  0  0  0  0  0  0  0  0  0
    3.8000   -0.5219   -1.4603 C   0  0  0  0  0  0  0  0  0  0  0  0
    3.0340    0.3056   -2.2530 C   0  0  0  0  0  0  0  0  0  0  0  0
    1.7050   -0.1077   -2.7177 C   0  0  0  0  0  0  0  0  0  0  0  0
    0.6140    0.5303   -2.0069 N   0  0  0  0  0  0  0  0  0  0  0  0
   -0.6248    0.0134   -2.5931 C   0  0  0  0  0  0  0  0  0  0  0  0
   -1.7161    0.9771   -2.1299 C   0  0  0  0  0  0  0  0  0  0  0  0
   -1.7088    0.9970   -0.6133 C   0  0  0  0  0  0  0  0  0  0  0  0
   -3.0616    0.7407   -0.1900 N   0  0  0  0  0  0  0  0  0  0  0  0
   -3.8509   -0.4358   -0.4228 C   0  0  0  0  0  0  0  0  0  0  0  0
   -3.3360   -1.5148   -0.8129 O   0  0  0  0  0  0  0  0  0  0  0  0
   -5.2104   -0.1429   -0.1430 N   0  0  0  0  0  0  0  0  0  0  0  0
   -6.2938   -1.0687   -0.2457 C   0  0  0  0  0  0  0  0  0  0  0  0
   -6.1242   -2.2721    0.6568 C   0  0  0  0  0  0  0  0  0  0  0  0
   -7.3702   -3.1260    0.4793 C   0  0  0  0  0  0  0  0  0  0  0  0
   -7.3452   -3.5791   -0.8433 O   0  0  0  0  0  0  0  0  0  0  0  0
   -7.5475   -2.5401   -1.7389 C   0  0  0  0  0  0  0  0  0  0  0  0
   -6.4253   -1.5398   -1.6787 C   0  0  0  0  0  0  0  0  0  0  0  0
   -5.2965    1.2363    0.2554 C   0  0  0  0  0  0  0  0  0  0  0  0
   -3.8861    1.6583    0.5679 C   0  0  1  0  0  0  0  0  0  0  0  0
   -3.6324    1.4790    2.0091 C   0  0  0  0  0  0  0  0  0  0  0  0
   -3.5570    0.2474    2.6062 C   0  0  0  0  0  0  0  0  0  0  0  0
   -3.3139    0.1132    3.9781 C   0  0  0  0  0  0  0  0  0  0  0  0
   -3.1474    1.2521    4.7398 C   0  0  0  0  0  0  0  0  0  0  0  0
   -3.2225    2.4938    4.1438 C   0  0  0  0  0  0  0  0  0  0  0  0
   -3.4627    2.5994    2.7925 C   0  0  0  0  0  0  0  0  0  0  0  0
   -0.7468   -0.0052   -0.0370 C   0  0  0  0  0  0  0  0  0  0  0  0
    0.6327    0.2070   -0.6139 C   0  0  0  0  0  0  0  0  0  0  0  0
    3.2961    3.3940   -3.5082 H   0  0  0  0  0  0  0  0  0  0  0  0
    1.7798    2.5991   -2.9018 H   0  0  0  0  0  0  0  0  0  0  0  0
    2.6199    2.0310   -4.4462 H   0  0  0  0  0  0  0  0  0  0  0  0
    6.7925    1.4772    1.6882 H   0  0  0  0  0  0  0  0  0  0  0  0
    8.0752    0.0467    3.1394 H   0  0  0  0  0  0  0  0  0  0  0  0
    9.5997   -2.5569    4.4048 H   0  0  0  0  0  0  0  0  0  0  0  0
    9.6800   -0.7626    4.2422 H   0  0  0  0  0  0  0  0  0  0  0  0
    9.9172   -1.7916   -0.2338 H   0  0  0  0  0  0  0  0  0  0  0  0
    8.6162   -0.3403   -1.7215 H   0  0  0  0  0  0  0  0  0  0  0  0
    5.6719   -0.7719   -0.3978 H   0  0  0  0  0  0  0  0  0  0  0  0
    3.4147   -1.4987   -1.1715 H   0  0  0  0  0  0  0  0  0  0  0  0
    1.6263    0.0163   -3.8079 H   0  0  0  0  0  0  0  0  0  0  0  0
    1.5954   -1.2032   -2.5257 H   0  0  0  0  0  0  0  0  0  0  0  0
   -0.8288   -1.0005   -2.2241 H   0  0  0  0  0  0  0  0  0  0  0  0
   -0.5990    0.0759   -3.6951 H   0  0  0  0  0  0  0  0  0  0  0  0
   -2.6738    0.5888   -2.5433 H   0  0  0  0  0  0  0  0  0  0  0  0
   -1.5148    1.9595   -2.5585 H   0  0  0  0  0  0  0  0  0  0  0  0
   -1.4156    2.0013   -0.2618 H   0  0  0  0  0  0  0  0  0  0  0  0
   -7.2334   -0.5613    0.0333 H   0  0  0  0  0  0  0  0  0  0  0  0
   -5.2492   -2.8335    0.3303 H   0  0  0  0  0  0  0  0  0  0  0  0
   -6.0655   -1.9002    1.7005 H   0  0  0  0  0  0  0  0  0  0  0  0
   -8.2786   -2.5308    0.6894 H   0  0  0  0  0  0  0  0  0  0  0  0
   -7.2926   -3.9751    1.1611 H   0  0  0  0  0  0  0  0  0  0  0  0
   -8.5349   -2.1024   -1.5452 H   0  0  0  0  0  0  0  0  0  0  0  0
   -7.6047   -2.9988   -2.7564 H   0  0  0  0  0  0  0  0  0  0  0  0
   -5.4908   -2.0501   -1.9868 H   0  0  0  0  0  0  0  0  0  0  0  0
   -6.6006   -0.7123   -2.3675 H   0  0  0  0  0  0  0  0  0  0  0  0
   -5.7101    1.8199   -0.6124 H   0  0  0  0  0  0  0  0  0  0  0  0
   -5.9609    1.3785    1.1448 H   0  0  0  0  0  0  0  0  0  0  0  0
   -3.7050    2.7175    0.2480 H   0  0  0  0  0  0  0  0  0  0  0  0
   -3.6882   -0.6416    2.0076 H   0  0  0  0  0  0  0  0  0  0  0  0
   -3.2580   -0.8613    4.4291 H   0  0  0  0  0  0  0  0  0  0  0  0
   -2.9542    1.2047    5.8203 H   0  0  0  0  0  0  0  0  0  0  0  0
   -3.0857    3.3796    4.7777 H   0  0  0  0  0  0  0  0  0  0  0  0
   -3.5082    3.6084    2.3927 H   0  0  0  0  0  0  0  0  0  0  0  0
   -0.6765    0.2184    1.0599 H   0  0  0  0  0  0  0  0  0  0  0  0
   -1.0609   -1.0440   -0.1260 H   0  0  0  0  0  0  0  0  0  0  0  0
    1.2565   -0.7218   -0.4698 H   0  0  0  0  0  0  0  0  0  0  0  0
    1.1879    1.0188   -0.0743 H   0  0  0  0  0  0  0  0  0  0  0  0
  1  2  1  0
  2  3  2  0
  3  4  1  0
  4  5  1  0
  5  6  1  0
  6  7  2  0
  7  8  1  0
  8  9  2  0
  9 10  1  0
 10 11  1  0
 10 12  2  0
  9 13  1  0
 13 14  2  0
  4 15  2  0
 15 16  1  0
 16 17  2  0
 17 18  1  0
 18 19  1  0
 19 20  1  0
 20 21  1  0
 21 22  1  0
 22 23  1  0
 23 24  1  0
 24 25  2  0
 24 26  1  0
 26 27  1  0
 27 28  1  0
 28 29  1  0
 29 30  1  0
 30 31  1  0
 31 32  1  0
 26 33  1  0
 33 34  1  0
 34 35  1  0
 35 36  2  0
 36 37  1  0
 37 38  2  0
 38 39  1  0
 39 40  2  0
 22 41  1  0
 41 42  1  0
 17  2  1  0
 42 19  1  0
 14  6  1  0
 34 23  1  0
 40 35  1  0
 32 27  1  0
  1 43  1  0
  1 44  1  0
  1 45  1  0
  7 46  1  0
  8 47  1  0
 11 48  1  0
 11 49  1  0
 13 50  1  0
 14 51  1  0
 15 52  1  0
 16 53  1  0
 18 54  1  0
 18 55  1  0
 20 56  1  0
 20 57  1  0
 21 58  1  0
 21 59  1  0
 22 60  1  0
 27 61  1  0
 28 62  1  0
 28 63  1  0
 29 64  1  0
 29 65  1  0
 31 66  1  0
 31 67  1  0
 32 68  1  0
 32 69  1  0
 33 70  1  0
 33 71  1  0
 34 72  1  6
 36 73  1  0
 37 74  1  0
 38 75  1  0
 39 76  1  0
 40 77  1  0
 41 78  1  0
 41 79  1  0
 42 80  1  0
 42 81  1  0
M  END
$$$$
