@<TRIPOS>MOLECULE
*****
 81 86 0 0 0
SMALL
GASTEIGER

@<TRIPOS>ATOM
      1 C           2.7532    2.4206   -3.4376 C.3     1  UNL1       -0.0219
      2 C           3.5885    1.5296   -2.5789 C.ar    1  UNL1        0.0464
      3 N           4.8135    1.8952   -2.1448 N.ar    1  UNL1       -0.2175
      4 C           5.5829    1.0961   -1.3645 C.ar    1  UNL1        0.2207
      5 O           6.8474    1.5230   -0.9412 O.3     1  UNL1       -0.4380
      6 C           7.6057    0.6794   -0.1471 C.ar    1  UNL1        0.1304
      7 C           7.4623    0.7787    1.2205 C.ar    1  UNL1       -0.0186
      8 C           8.2089   -0.0537    2.0569 C.ar    1  UNL1       -0.0462
      9 C           9.0904   -0.9773    1.5477 C.ar    1  UNL1        0.0367
     10 C           9.8627   -1.8377    2.4218 C.2     1  UNL1        0.2415
     11 N           9.6983   -1.7117    3.8225 N.am    1  UNL1       -0.3253
     12 O          10.6643   -2.6813    1.9608 O.2     1  UNL1       -0.2704
     13 C           9.2302   -1.0728    0.1826 C.ar    1  UNL1       -0.0462
     14 C           8.4869   -0.2444   -0.6409 C.ar    1  UNL1       -0.0186
     15 C           5.0601   -0.1331   -1.0200 C.ar    1  UNL1        0.0007
     16 C           3.8000   -0.5219   -1.4603 C.ar    1  UNL1       -0.0506
     17 C           3.0340    0.3056   -2.2530 C.ar    1  UNL1       -0.0121
     18 C           1.7050   -0.1077   -2.7177 C.3     1  UNL1        0.0257
     19 N           0.6140    0.5303   -2.0069 N.3     1  UNL1       -0.2980
     20 C          -0.6248    0.0134   -2.5931 C.3     1  UNL1        0.0009
     21 C          -1.7161    0.9771   -2.1299 C.3     1  UNL1       -0.0213
     22 C          -1.7088    0.9970   -0.6133 C.3     1  UNL1        0.0305
     23 N          -3.0616    0.7407   -0.1900 N.am    1  UNL1       -0.2738
     24 C          -3.8509   -0.4358   -0.4228 C.2     1  UNL1        0.3059
     25 O          -3.3360   -1.5148   -0.8129 O.2     1  UNL1       -0.2524
     26 N          -5.2104   -0.1429   -0.1430 N.am    1  UNL1       -0.2802
     27 C          -6.2938   -1.0687   -0.2457 C.3     1  UNL1        0.0317
     28 C          -6.1242   -2.2721    0.6568 C.3     1  UNL1       -0.0106
     29 C          -7.3702   -3.1260    0.4793 C.3     1  UNL1        0.0493
     30 O          -7.3452   -3.5791   -0.8433 O.3     1  UNL1       -0.3796
     31 C          -7.5475   -2.5401   -1.7389 C.3     1  UNL1        0.0493
     32 C          -6.4253   -1.5398   -1.6787 C.3     1  UNL1       -0.0106
     33 C          -5.2965    1.2363    0.2554 C.3     1  UNL1        0.0393
     34 C          -3.8861    1.6583    0.5679 C.3     1  UNL1        0.0687
     35 C          -3.6324    1.4790    2.0091 C.ar    1  UNL1       -0.0255
     36 C          -3.5570    0.2474    2.6062 C.ar    1  UNL1       -0.0567
     37 C          -3.3139    0.1132    3.9781 C.ar    1  UNL1       -0.0614
     38 C          -3.1474    1.2521    4.7398 C.ar    1  UNL1       -0.0617
     39 C          -3.2225    2.4938    4.1438 C.ar    1  UNL1       -0.0614
     40 C          -3.4627    2.5994    2.7925 C.ar    1  UNL1       -0.0567
     41 C          -0.7468   -0.0052   -0.0370 C.3     1  UNL1       -0.0213
     42 C           0.6327    0.2070   -0.6139 C.3     1  UNL1        0.0009
     43 H           3.2961    3.3940   -3.5082 H       1  UNL1        0.0293
     44 H           1.7798    2.5991   -2.9018 H       1  UNL1        0.0293
     45 H           2.6199    2.0310   -4.4462 H       1  UNL1        0.0293
     46 H           6.7925    1.4772    1.6882 H       1  UNL1        0.0654
     47 H           8.0752    0.0467    3.1394 H       1  UNL1        0.0626
     48 H           9.5997   -2.5569    4.4048 H       1  UNL1        0.1453
     49 H           9.6800   -0.7626    4.2422 H       1  UNL1        0.1453
     50 H           9.9172   -1.7916   -0.2338 H       1  UNL1        0.0626
     51 H           8.6162   -0.3403   -1.7215 H       1  UNL1        0.0654
     52 H           5.6719   -0.7719   -0.3978 H       1  UNL1        0.0671
     53 H           3.4147   -1.4987   -1.1715 H       1  UNL1        0.0623
     54 H           1.6263    0.0163   -3.8079 H       1  UNL1        0.0476
     55 H           1.5954   -1.2032   -2.5257 H       1  UNL1        0.0476
     56 H          -0.8288   -1.0005   -2.2241 H       1  UNL1        0.0427
     57 H          -0.5990    0.0759   -3.6951 H       1  UNL1        0.0427
     58 H          -2.6738    0.5888   -2.5433 H       1  UNL1        0.0295
     59 H          -1.5148    1.9595   -2.5585 H       1  UNL1        0.0295
     60 H          -1.4156    2.0013   -0.2618 H       1  UNL1        0.0502
     61 H          -7.2334   -0.5613    0.0333 H       1  UNL1        0.0502
     62 H          -5.2492   -2.8335    0.3303 H       1  UNL1        0.0305
     63 H          -6.0655   -1.9002    1.7005 H       1  UNL1        0.0305
     64 H          -8.2786   -2.5308    0.6894 H       1  UNL1        0.0560
     65 H          -7.2926   -3.9751    1.1611 H       1  UNL1        0.0560
     66 H          -8.5349   -2.1024   -1.5452 H       1  UNL1        0.0560
     67 H          -7.6047   -2.9988   -2.7564 H       1  UNL1        0.0560
     68 H          -5.4908   -2.0501   -1.9868 H       1  UNL1        0.0305
     69 H          -6.6006   -0.7123   -2.3675 H       1  UNL1        0.0305
     70 H          -5.7101    1.8199   -0.6124 H       1  UNL1        0.0487
     71 H          -5.9609    1.3785    1.1448 H       1  UNL1        0.0487
     72 H          -3.7050    2.7175    0.2480 H       1  UNL1        0.0567
     73 H          -3.6882   -0.6416    2.0076 H       1  UNL1        0.0621
     74 H          -3.2580   -0.8613    4.4291 H       1  UNL1        0.0618
     75 H          -2.9542    1.2047    5.8203 H       1  UNL1        0.0618
     76 H          -3.0857    3.3796    4.7777 H       1  UNL1        0.0618
     77 H          -3.5082    3.6084    2.3927 H       1  UNL1        0.0621
     78 H          -0.6765    0.2184    1.0599 H       1  UNL1        0.0295
     79 H          -1.0609   -1.0440   -0.1260 H       1  UNL1        0.0295
     80 H           1.2565   -0.7218   -0.4698 H       1  UNL1        0.0427
     81 H           1.1879    1.0188   -0.0743 H       1  UNL1        0.0427
@<TRIPOS>BOND
     1     1     2    1
     2     2     3   ar
     3     3     4   ar
     4     4     5    1
     5     5     6    1
     6     6     7   ar
     7     7     8   ar
     8     8     9   ar
     9     9    10    1
    10    10    11   am
    11    10    12    2
    12     9    13   ar
    13    13    14   ar
    14     4    15   ar
    15    15    16   ar
    16    16    17   ar
    17    17    18    1
    18    18    19    1
    19    19    20    1
    20    20    21    1
    21    21    22    1
    22    22    23    1
    23    23    24   am
    24    24    25    2
    25    24    26   am
    26    26    27    1
    27    27    28    1
    28    28    29    1
    29    29    30    1
    30    30    31    1
    31    31    32    1
    32    26    33    1
    33    33    34    1
    34    34    35    1
    35    35    36   ar
    36    36    37   ar
    37    37    38   ar
    38    38    39   ar
    39    39    40   ar
    40    22    41    1
    41    41    42    1
    42    17     2   ar
    43    42    19    1
    44    14     6   ar
    45    34    23    1
    46    40    35   ar
    47    32    27    1
    48     1    43    1
    49     1    44    1
    50     1    45    1
    51     7    46    1
    52     8    47    1
    53    11    48    1
    54    11    49    1
    55    13    50    1
    56    14    51    1
    57    15    52    1
    58    16    53    1
    59    18    54    1
    60    18    55    1
    61    20    56    1
    62    20    57    1
    63    21    58    1
    64    21    59    1
    65    22    60    1
    66    27    61    1
    67    28    62    1
    68    28    63    1
    69    29    64    1
    70    29    65    1
    71    31    66    1
    72    31    67    1
    73    32    68    1
    74    32    69    1
    75    33    70    1
    76    33    71    1
    77    34    72    1
    78    36    73    1
    79    37    74    1
    80    38    75    1
    81    39    76    1
    82    40    77    1
    83    41    78    1
    84    41    79    1
    85    42    80    1
    86    42    81    1
