
     RDKit          3D

 51 54  0  0  0  0  0  0  0  0999 V2000
   -7.1581    0.5398    1.3292 C   0  0  0  0  0  0  0  0  0  0  0  0
   -6.2595   -0.3866    0.6007 C   0  0  0  0  0  0  0  0  0  0  0  0
   -4.9470   -0.1294    0.3119 C   0  0  0  0  0  0  0  0  0  0  0  0
   -4.0827    0.9328    0.5529 C   0  0  0  0  0  0  0  0  0  0  0  0
   -2.7755    0.8839    0.1164 C   0  0  0  0  0  0  0  0  0  0  0  0
   -2.3087   -0.2250   -0.5680 C   0  0  0  0  0  0  0  0  0  0  0  0
   -0.9665   -0.3011   -1.0359 N   0  0  0  0  0  0  0  0  0  0  0  0
   -0.5429   -1.4814   -1.7619 C   0  0  0  0  0  0  0  0  0  0  0  0
   -0.0389    0.7653   -0.7864 C   0  0  0  0  0  0  0  0  0  0  0  0
   -0.2254    2.0398   -1.2791 C   0  0  0  0  0  0  0  0  0  0  0  0
    0.6911    3.0370   -1.0229 C   0  0  0  0  0  0  0  0  0  0  0  0
    1.7709    2.7178   -0.2755 N   0  0  0  0  0  0  0  0  0  0  0  0
    1.9861    1.4837    0.2223 C   0  0  0  0  0  0  0  0  0  0  0  0
    3.1182    1.1551    1.0004 N   0  0  0  0  0  0  0  0  0  0  0  0
    4.3091    0.7645    0.3487 C   0  0  0  0  0  0  0  0  0  0  0  0
    4.4154    0.7178   -1.0277 C   0  0  0  0  0  0  0  0  0  0  0  0
    5.5772    0.3402   -1.6529 C   0  0  0  0  0  0  0  0  0  0  0  0
    6.6913   -0.0101   -0.9359 C   0  0  0  0  0  0  0  0  0  0  0  0
    6.6183    0.0256    0.4370 C   0  0  0  0  0  0  0  0  0  0  0  0
    8.0120   -0.4130    1.4373 S   0  0  0  0  0  6  0  0  0  0  0  0
    7.8598   -2.1386    1.6741 N   0  0  0  0  0  0  0  0  0  0  0  0
    9.2874   -0.1484    0.7025 O   0  0  0  0  0  0  0  0  0  0  0  0
    7.8946    0.3248    2.7171 O   0  0  0  0  0  0  0  0  0  0  0  0
    5.4513    0.4051    1.0648 C   0  0  0  0  0  0  0  0  0  0  0  0
    1.0658    0.5392   -0.0518 N   0  0  0  0  0  0  0  0  0  0  0  0
   -3.1863   -1.2604   -0.7912 C   0  0  0  0  0  0  0  0  0  0  0  0
   -4.4906   -1.2368   -0.3677 C   0  0  0  0  0  0  0  0  0  0  0  0
   -5.5381   -2.1000   -0.4551 N   0  0  0  0  0  0  0  0  0  0  0  0
   -6.6135   -1.6053    0.1229 N   0  0  0  0  0  0  0  0  0  0  0  0
   -7.9252   -2.2090    0.2436 C   0  0  0  0  0  0  0  0  0  0  0  0
   -8.2214    0.3767    1.0560 H   0  0  0  0  0  0  0  0  0  0  0  0
   -6.8688    1.5737    1.0517 H   0  0  0  0  0  0  0  0  0  0  0  0
   -7.0749    0.3377    2.4057 H   0  0  0  0  0  0  0  0  0  0  0  0
   -4.4185    1.7978    1.0775 H   0  0  0  0  0  0  0  0  0  0  0  0
   -2.0873    1.7183    0.3018 H   0  0  0  0  0  0  0  0  0  0  0  0
   -0.7083   -2.3859   -1.1139 H   0  0  0  0  0  0  0  0  0  0  0  0
    0.5226   -1.3720   -2.0138 H   0  0  0  0  0  0  0  0  0  0  0  0
   -1.1047   -1.5856   -2.7089 H   0  0  0  0  0  0  0  0  0  0  0  0
   -1.0983    2.2716   -1.8745 H   0  0  0  0  0  0  0  0  0  0  0  0
    0.5227    4.0378   -1.4227 H   0  0  0  0  0  0  0  0  0  0  0  0
    3.0826    1.1965    2.0254 H   0  0  0  0  0  0  0  0  0  0  0  0
    3.5372    0.9939   -1.6093 H   0  0  0  0  0  0  0  0  0  0  0  0
    5.6233    0.3188   -2.7342 H   0  0  0  0  0  0  0  0  0  0  0  0
    7.6306   -0.3150   -1.3825 H   0  0  0  0  0  0  0  0  0  0  0  0
    6.8515   -2.2603    1.9814 H   0  0  0  0  0  0  0  0  0  0  0  0
    8.4354   -2.3597    2.5155 H   0  0  0  0  0  0  0  0  0  0  0  0
    5.3665    0.4417    2.1538 H   0  0  0  0  0  0  0  0  0  0  0  0
   -2.8505   -2.1559   -1.3298 H   0  0  0  0  0  0  0  0  0  0  0  0
   -8.3746   -1.9952    1.2123 H   0  0  0  0  0  0  0  0  0  0  0  0
   -7.8738   -3.3041    0.0775 H   0  0  0  0  0  0  0  0  0  0  0  0
   -8.5808   -1.7278   -0.5386 H   0  0  0  0  0  0  0  0  0  0  0  0
  1  2  1  0
  2  3  2  0
  3  4  1  0
  4  5  2  0
  5  6  1  0
  6  7  1  0
  7  8  1  0
  7  9  1  0
  9 10  2  0
 10 11  1  0
 11 12  2  0
 12 13  1  0
 13 14  1  0
 14 15  1  0
 15 16  2  0
 16 17  1  0
 17 18  2  0
 18 19  1  0
 19 20  1  0
 20 21  1  0
 20 22  2  0
 20 23  2  0
 19 24  2  0
 13 25  2  0
  6 26  2  0
 26 27  1  0
 27 28  2  0
 28 29  1  0
 29 30  1  0
 29  2  1  0
 27  3  1  0
 25  9  1  0
 24 15  1  0
  1 31  1  0
  1 32  1  0
  1 33  1  0
  4 34  1  0
  5 35  1  0
  8 36  1  0
  8 37  1  0
  8 38  1  0
 10 39  1  0
 11 40  1  0
 14 41  1  0
 16 42  1  0
 17 43  1  0
 18 44  1  0
 21 45  1  0
 21 46  1  0
 24 47  1  0
 26 48  1  0
 30 49  1  0
 30 50  1  0
 30 51  1  0
M  END
$$$$
