@<TRIPOS>MOLECULE
*****
 51 54 0 0 0
SMALL
GASTEIGER

@<TRIPOS>ATOM
      1 C          -7.1581    0.5398    1.3292 C.3     1  UNL1       -0.0221
      2 C          -6.2595   -0.3866    0.6007 C.ar    1  UNL1        0.0436
      3 C          -4.9470   -0.1294    0.3119 C.ar    1  UNL1        0.0228
      4 C          -4.0827    0.9328    0.5529 C.ar    1  UNL1       -0.0491
      5 C          -2.7755    0.8839    0.1164 C.ar    1  UNL1       -0.0396
      6 C          -2.3087   -0.2250   -0.5680 C.ar    1  UNL1        0.0369
      7 N          -0.9665   -0.3011   -1.0359 N.pl3   1  UNL1       -0.2880
      8 C          -0.5429   -1.4814   -1.7619 C.3     1  UNL1        0.0071
      9 C          -0.0389    0.7653   -0.7864 C.ar    1  UNL1        0.1303
     10 C          -0.2254    2.0398   -1.2791 C.ar    1  UNL1       -0.0031
     11 C           0.6911    3.0370   -1.0229 C.ar    1  UNL1        0.0345
     12 N           1.7709    2.7178   -0.2755 N.ar    1  UNL1       -0.2225
     13 C           1.9861    1.4837    0.2223 C.ar    1  UNL1        0.2212
     14 N           3.1182    1.1551    1.0004 N.pl3   1  UNL1       -0.2835
     15 C           4.3091    0.7645    0.3487 C.ar    1  UNL1        0.0354
     16 C           4.4154    0.7178   -1.0277 C.ar    1  UNL1       -0.0404
     17 C           5.5772    0.3402   -1.6529 C.ar    1  UNL1       -0.0582
     18 C           6.6913   -0.0101   -0.9359 C.ar    1  UNL1       -0.0352
     19 C           6.6183    0.0256    0.4370 C.ar    1  UNL1        0.1068
     20 S           8.0120   -0.4130    1.4373 S.O2    1  UNL1        0.0560
     21 N           7.8598   -2.1386    1.6741 N.3     1  UNL1       -0.2035
     22 O           9.2874   -0.1484    0.7025 O.2     1  UNL1       -0.1533
     23 O           7.8946    0.3248    2.7171 O.2     1  UNL1       -0.1533
     24 C           5.4513    0.4051    1.0648 C.ar    1  UNL1       -0.0141
     25 N           1.0658    0.5392   -0.0518 N.ar    1  UNL1       -0.1990
     26 C          -3.1863   -1.2604   -0.7912 C.ar    1  UNL1       -0.0126
     27 C          -4.4906   -1.2368   -0.3677 C.ar    1  UNL1        0.0947
     28 N          -5.5381   -2.1000   -0.4551 N.ar    1  UNL1       -0.1712
     29 N          -6.6135   -1.6053    0.1229 N.ar    1  UNL1       -0.2705
     30 C          -7.9252   -2.2090    0.2436 C.3     1  UNL1        0.0305
     31 H          -8.2214    0.3767    1.0560 H       1  UNL1        0.0293
     32 H          -6.8688    1.5737    1.0517 H       1  UNL1        0.0293
     33 H          -7.0749    0.3377    2.4057 H       1  UNL1        0.0293
     34 H          -4.4185    1.7978    1.0775 H       1  UNL1        0.0625
     35 H          -2.0873    1.7183    0.3018 H       1  UNL1        0.0636
     36 H          -0.7083   -2.3859   -1.1139 H       1  UNL1        0.0432
     37 H           0.5226   -1.3720   -2.0138 H       1  UNL1        0.0432
     38 H          -1.1047   -1.5856   -2.7089 H       1  UNL1        0.0432
     39 H          -1.0983    2.2716   -1.8745 H       1  UNL1        0.0667
     40 H           0.5227    4.0378   -1.4227 H       1  UNL1        0.0832
     41 H           3.0826    1.1965    2.0254 H       1  UNL1        0.1550
     42 H           3.5372    0.9939   -1.6093 H       1  UNL1        0.0636
     43 H           5.6233    0.3188   -2.7342 H       1  UNL1        0.0619
     44 H           7.6306   -0.3150   -1.3825 H       1  UNL1        0.0637
     45 H           6.8515   -2.2603    1.9814 H       1  UNL1        0.1442
     46 H           8.4354   -2.3597    2.5155 H       1  UNL1        0.1442
     47 H           5.3665    0.4417    2.1538 H       1  UNL1        0.0656
     48 H          -2.8505   -2.1559   -1.3298 H       1  UNL1        0.0658
     49 H          -8.3746   -1.9952    1.2123 H       1  UNL1        0.0473
     50 H          -7.8738   -3.3041    0.0775 H       1  UNL1        0.0473
     51 H          -8.5808   -1.7278   -0.5386 H       1  UNL1        0.0473
@<TRIPOS>BOND
     1     1     2    1
     2     2     3   ar
     3     3     4   ar
     4     4     5   ar
     5     5     6   ar
     6     6     7    1
     7     7     8    1
     8     7     9    1
     9     9    10   ar
    10    10    11   ar
    11    11    12   ar
    12    12    13   ar
    13    13    14    1
    14    14    15    1
    15    15    16   ar
    16    16    17   ar
    17    17    18   ar
    18    18    19   ar
    19    19    20    1
    20    20    21    1
    21    20    22    2
    22    20    23    2
    23    19    24   ar
    24    13    25   ar
    25     6    26   ar
    26    26    27   ar
    27    27    28   ar
    28    28    29   ar
    29    29    30    1
    30    29     2   ar
    31    27     3   ar
    32    25     9   ar
    33    24    15   ar
    34     1    31    1
    35     1    32    1
    36     1    33    1
    37     4    34    1
    38     5    35    1
    39     8    36    1
    40     8    37    1
    41     8    38    1
    42    10    39    1
    43    11    40    1
    44    14    41    1
    45    16    42    1
    46    17    43    1
    47    18    44    1
    48    21    45    1
    49    21    46    1
    50    24    47    1
    51    26    48    1
    52    30    49    1
    53    30    50    1
    54    30    51    1
