
     RDKit          3D

 33 35  0  0  0  0  0  0  0  0999 V2000
    5.2220    0.8927   -0.1860 C   0  0  0  0  0  0  0  0  0  0  0  0
    4.0920    1.7148   -0.1509 O   0  0  0  0  0  0  0  0  0  0  0  0
    2.8089    1.1381   -0.1752 C   0  0  0  0  0  0  0  0  0  0  0  0
    2.6634   -0.2175   -0.2327 C   0  0  0  0  0  0  0  0  0  0  0  0
    1.3969   -0.8201   -0.2598 C   0  0  0  0  0  0  0  0  0  0  0  0
    0.2319   -0.0693   -0.2271 C   0  0  0  0  0  0  0  0  0  0  0  0
    0.4122    1.3112   -0.1663 C   0  0  0  0  0  0  0  0  0  0  0  0
    1.6749    1.9080   -0.1422 C   0  0  0  0  0  0  0  0  0  0  0  0
    1.8148    3.6432   -0.0694 Cl  0  0  0  0  0  0  0  0  0  0  0  0
   -1.0581   -0.6768   -0.0648 C   0  0  0  0  0  0  0  0  0  0  0  0
   -2.3267    0.0021   -0.0153 C   0  0  0  0  0  0  0  0  0  0  0  0
   -2.6459    1.2510   -0.4255 C   0  0  0  0  0  0  0  0  0  0  0  0
   -3.8683    1.8788   -0.2108 C   0  0  0  0  0  0  0  0  0  0  0  0
   -4.8393    1.1855    0.4664 C   0  0  0  0  0  0  0  0  0  0  0  0
   -6.4023    1.8765    0.7886 Cl  0  0  0  0  0  0  0  0  0  0  0  0
   -4.5861   -0.1075    0.9160 C   0  0  0  0  0  0  0  0  0  0  0  0
   -5.8331   -1.0100    1.7873 Cl  0  0  0  0  0  0  0  0  0  0  0  0
   -3.3867   -0.6589    0.6803 C   0  0  0  0  0  0  0  0  0  0  0  0
   -1.0521   -1.9686    0.0813 N   0  0  0  0  0  0  0  0  0  0  0  0
    0.0515   -2.8416    0.1038 C   0  0  0  0  0  0  0  0  0  0  0  0
    1.3151   -2.2929   -0.3919 C   0  0  0  0  0  0  0  0  0  0  0  0
    5.3652    0.4237   -1.1866 H   0  0  0  0  0  0  0  0  0  0  0  0
    6.1235    1.5070    0.0285 H   0  0  0  0  0  0  0  0  0  0  0  0
    5.1984    0.0603    0.5445 H   0  0  0  0  0  0  0  0  0  0  0  0
    3.5202   -0.8777   -0.2597 H   0  0  0  0  0  0  0  0  0  0  0  0
   -0.4234    1.9569   -0.0624 H   0  0  0  0  0  0  0  0  0  0  0  0
   -1.9359    1.8081   -1.0688 H   0  0  0  0  0  0  0  0  0  0  0  0
   -4.0526    2.8821   -0.5645 H   0  0  0  0  0  0  0  0  0  0  0  0
   -3.1605   -1.6840    1.0276 H   0  0  0  0  0  0  0  0  0  0  0  0
   -0.1739   -3.7806   -0.4728 H   0  0  0  0  0  0  0  0  0  0  0  0
    0.2649   -3.2056    1.1656 H   0  0  0  0  0  0  0  0  0  0  0  0
    2.2129   -2.7304    0.1159 H   0  0  0  0  0  0  0  0  0  0  0  0
    1.3762   -2.4986   -1.5040 H   0  0  0  0  0  0  0  0  0  0  0  0
  1  2  1  0
  2  3  1  0
  3  4  2  0
  4  5  1  0
  5  6  2  0
  6  7  1  0
  7  8  2  0
  8  9  1  0
  6 10  1  0
 10 11  1  0
 11 12  2  0
 12 13  1  0
 13 14  2  0
 14 15  1  0
 14 16  1  0
 16 17  1  0
 16 18  2  0
 10 19  2  0
 19 20  1  0
 20 21  1  0
  8  3  1  0
 18 11  1  0
 21  5  1  0
  1 22  1  0
  1 23  1  0
  1 24  1  0
  4 25  1  0
  7 26  1  0
 12 27  1  0
 13 28  1  0
 18 29  1  0
 20 30  1  0
 20 31  1  0
 21 32  1  0
 21 33  1  0
M  END
$$$$
