@<TRIPOS>MOLECULE
*****
 33 35 0 0 0
SMALL
GASTEIGER

@<TRIPOS>ATOM
      1 C           5.2220    0.8927   -0.1860 C.3     1  UNL1        0.0789
      2 O           4.0920    1.7148   -0.1509 O.3     1  UNL1       -0.4936
      3 C           2.8089    1.1381   -0.1752 C.ar    1  UNL1        0.1386
      4 C           2.6634   -0.2175   -0.2327 C.ar    1  UNL1       -0.0146
      5 C           1.3969   -0.8201   -0.2598 C.ar    1  UNL1       -0.0329
      6 C           0.2319   -0.0693   -0.2271 C.ar    1  UNL1        0.0053
      7 C           0.4122    1.3112   -0.1663 C.ar    1  UNL1       -0.0304
      8 C           1.6749    1.9080   -0.1422 C.ar    1  UNL1        0.0831
      9 CL          1.8148    3.6432   -0.0694 Cl      1  UNL1       -0.0797
     10 C          -1.0581   -0.6768   -0.0648 C.2     1  UNL1        0.0730
     11 C          -2.3267    0.0021   -0.0153 C.ar    1  UNL1        0.0020
     12 C          -2.6459    1.2510   -0.4255 C.ar    1  UNL1       -0.0511
     13 C          -3.8683    1.8788   -0.2108 C.ar    1  UNL1       -0.0413
     14 C          -4.8393    1.1855    0.4664 C.ar    1  UNL1        0.0593
     15 CL         -6.4023    1.8765    0.7886 Cl      1  UNL1       -0.0820
     16 C          -4.5861   -0.1075    0.9160 C.ar    1  UNL1        0.0599
     17 CL         -5.8331   -1.0100    1.7873 Cl      1  UNL1       -0.0820
     18 C          -3.3867   -0.6589    0.6803 C.ar    1  UNL1       -0.0328
     19 N          -1.0521   -1.9686    0.0813 N.2     1  UNL1       -0.2824
     20 C           0.0515   -2.8416    0.1038 C.3     1  UNL1        0.0444
     21 C           1.3151   -2.2929   -0.3919 C.3     1  UNL1       -0.0073
     22 H           5.3652    0.4237   -1.1866 H       1  UNL1        0.0660
     23 H           6.1235    1.5070    0.0285 H       1  UNL1        0.0660
     24 H           5.1984    0.0603    0.5445 H       1  UNL1        0.0660
     25 H           3.5202   -0.8777   -0.2597 H       1  UNL1        0.0657
     26 H          -0.4234    1.9569   -0.0624 H       1  UNL1        0.0640
     27 H          -1.9359    1.8081   -1.0688 H       1  UNL1        0.0625
     28 H          -4.0526    2.8821   -0.5645 H       1  UNL1        0.0633
     29 H          -3.1605   -1.6840    1.0276 H       1  UNL1        0.0639
     30 H          -0.1739   -3.7806   -0.4728 H       1  UNL1        0.0511
     31 H           0.2649   -3.2056    1.1656 H       1  UNL1        0.0511
     32 H           2.2129   -2.7304    0.1159 H       1  UNL1        0.0331
     33 H           1.3762   -2.4986   -1.5040 H       1  UNL1        0.0331
@<TRIPOS>BOND
     1     1     2    1
     2     2     3    1
     3     3     4   ar
     4     4     5   ar
     5     5     6   ar
     6     6     7   ar
     7     7     8   ar
     8     8     9    1
     9     6    10    1
    10    10    11    1
    11    11    12   ar
    12    12    13   ar
    13    13    14   ar
    14    14    15    1
    15    14    16   ar
    16    16    17    1
    17    16    18   ar
    18    10    19    2
    19    19    20    1
    20    20    21    1
    21     8     3   ar
    22    18    11   ar
    23    21     5    1
    24     1    22    1
    25     1    23    1
    26     1    24    1
    27     4    25    1
    28     7    26    1
    29    12    27    1
    30    13    28    1
    31    18    29    1
    32    20    30    1
    33    20    31    1
    34    21    32    1
    35    21    33    1
