@<TRIPOS>MOLECULE
*****
 124 126 0 0 0
SMALL
GASTEIGER

@<TRIPOS>ATOM
      1 C           5.1449   -1.6571   -1.9881 C.3     1  UNL1       -0.0618
      2 C           5.4333   -1.9519   -0.5062 C.3     1  UNL1       -0.0157
      3 C           4.0800   -1.7688    0.2206 C.3     1  UNL1        0.1335
      4 O           3.1511   -2.6854   -0.3621 O.3     1  UNL1       -0.4581
      5 C           2.0616   -2.2919   -1.0832 C.2     1  UNL1        0.3128
      6 O           2.0812   -1.0458   -1.1170 O.2     1  UNL1       -0.2504
      7 C           0.8360   -2.4141   -1.8709 C.3     1  UNL1        0.0801
      8 C           1.1793   -2.9466   -3.2353 C.3     1  UNL1       -0.0499
      9 C          -0.2864   -1.4856   -1.7092 C.3     1  UNL1        0.0793
     10 O          -0.6503   -1.5953   -0.3555 O.3     1  UNL1       -0.3468
     11 C          -1.7554   -2.3992   -0.1362 C.3     1  UNL1        0.1627
     12 C          -1.3656   -3.5389    0.7665 C.3     1  UNL1        0.0298
     13 C          -2.4180   -4.0131    1.7069 C.3     1  UNL1        0.0991
     14 C          -2.4543   -5.5607    1.6982 C.3     1  UNL1       -0.0331
     15 O          -2.0575   -3.6831    3.0031 O.3     1  UNL1       -0.3740
     16 C          -1.8827   -2.3619    3.2769 C.3     1  UNL1        0.0373
     17 C          -3.8092   -3.5722    1.4470 C.3     1  UNL1        0.1098
     18 O          -4.4613   -3.1147    2.5888 O.3     1  UNL1       -0.3864
     19 C          -3.9369   -2.5244    0.3774 C.3     1  UNL1        0.0874
     20 C          -4.2188   -3.0991   -0.9755 C.3     1  UNL1       -0.0361
     21 O          -2.8172   -1.7015    0.4323 O.3     1  UNL1       -0.3456
     22 C          -0.4100   -0.1168   -2.1374 C.3     1  UNL1        0.0124
     23 C          -0.1057    0.1741   -3.5983 C.3     1  UNL1       -0.0576
     24 C          -0.3557    1.1000   -1.2837 C.3     1  UNL1        0.0950
     25 O          -1.2825    1.0999   -0.2552 O.3     1  UNL1       -0.3423
     26 C          -2.2880    2.0096   -0.3139 C.3     1  UNL1        0.1871
     27 O          -2.2612    2.7364    0.9128 O.3     1  UNL1       -0.3457
     28 C          -2.8535    3.9630    0.6359 C.3     1  UNL1        0.0605
     29 C          -2.4620    5.0627    1.5631 C.3     1  UNL1       -0.0385
     30 C          -4.3518    3.6910    0.6252 C.3     1  UNL1       -0.0085
     31 C          -4.5579    2.7702   -0.5838 C.3     1  UNL1        0.0429
     32 C          -3.7101    1.4979   -0.3698 C.3     1  UNL1        0.1214
     33 O          -4.0049    0.6911   -1.4288 O.3     1  UNL1       -0.3852
     34 N          -5.9257    2.5219   -0.8333 N.3     1  UNL1       -0.3027
     35 C          -6.2339    1.8354   -2.0582 C.3     1  UNL1       -0.0127
     36 C          -6.7339    3.7195   -0.7687 C.3     1  UNL1       -0.0127
     37 C           0.8585    1.9436   -1.1185 C.3     1  UNL1        0.0900
     38 C           0.4570    3.4515   -1.2955 C.3     1  UNL1       -0.0336
     39 O           1.8101    1.8122   -2.1326 O.3     1  UNL1       -0.3863
     40 C           1.5457    1.8772    0.1972 C.3     1  UNL1       -0.0181
     41 C           2.7493    2.7551    0.4167 C.3     1  UNL1       -0.0284
     42 C           2.5219    4.2298    0.5441 C.3     1  UNL1       -0.0612
     43 C           3.4615    2.2806    1.6764 C.3     1  UNL1        0.0016
     44 N           4.1597    1.0401    1.3568 N.3     1  UNL1       -0.2999
     45 C           5.2601    1.4617    0.4918 C.3     1  UNL1       -0.0124
     46 C           4.5781    0.3381    2.5073 C.3     1  UNL1        0.0361
     47 C           5.6166    1.1639    3.2775 C.3     1  UNL1       -0.0470
     48 C           5.1973   -1.0340    2.2982 C.3     1  UNL1        0.1022
     49 O           5.5389   -1.5121    3.6285 O.3     1  UNL1       -0.3873
     50 C           4.3073   -2.0291    1.6584 C.3     1  UNL1        0.1270
     51 C           3.0207   -2.2505    2.4361 C.3     1  UNL1       -0.0301
     52 O           4.9483   -3.2995    1.7041 O.3     1  UNL1       -0.3826
     53 H           4.8069   -0.6139   -2.0389 H       1  UNL1        0.0231
     54 H           4.2462   -2.2784   -2.2784 H       1  UNL1        0.0231
     55 H           5.9855   -1.9303   -2.6250 H       1  UNL1        0.0231
     56 H           5.7872   -2.9851   -0.4699 H       1  UNL1        0.0299
     57 H           6.1573   -1.2579   -0.1015 H       1  UNL1        0.0299
     58 H           3.7500   -0.7706    0.0018 H       1  UNL1        0.0764
     59 H           0.4172   -3.3977   -1.3977 H       1  UNL1        0.0436
     60 H           0.3162   -3.3427   -3.7990 H       1  UNL1        0.0238
     61 H           1.8266   -2.2467   -3.8068 H       1  UNL1        0.0238
     62 H           1.8361   -3.8360   -3.0907 H       1  UNL1        0.0238
     63 H          -1.1498   -2.0930   -2.1877 H       1  UNL1        0.0608
     64 H          -2.1047   -2.8037   -1.0826 H       1  UNL1        0.0911
     65 H          -0.3927   -3.2840    1.2829 H       1  UNL1        0.0343
     66 H          -1.0957   -4.3984    0.1192 H       1  UNL1        0.0343
     67 H          -2.8566   -5.9006    0.6984 H       1  UNL1        0.0258
     68 H          -3.1481   -5.9589    2.4478 H       1  UNL1        0.0258
     69 H          -1.4690   -5.9999    1.8491 H       1  UNL1        0.0258
     70 H          -2.7238   -1.6895    3.1450 H       1  UNL1        0.0524
     71 H          -0.9386   -1.9674    2.7968 H       1  UNL1        0.0524
     72 H          -1.6325   -2.3010    4.3787 H       1  UNL1        0.0524
     73 H          -4.4623   -4.4268    1.0876 H       1  UNL1        0.0648
     74 H          -5.4158   -2.9336    2.3275 H       1  UNL1        0.2100
     75 H          -4.7958   -1.8735    0.6386 H       1  UNL1        0.0621
     76 H          -3.9707   -2.3801   -1.7609 H       1  UNL1        0.0255
     77 H          -3.8019   -4.1093   -1.1472 H       1  UNL1        0.0255
     78 H          -5.3361   -3.2442   -1.0610 H       1  UNL1        0.0255
     79 H          -1.5964   -0.0626   -2.3194 H       1  UNL1        0.0349
     80 H           0.9618    0.2614   -3.8178 H       1  UNL1        0.0234
     81 H          -0.6437   -0.5490   -4.2342 H       1  UNL1        0.0234
     82 H          -0.5502    1.1611   -3.8273 H       1  UNL1        0.0234
     83 H          -0.9642    1.9290   -1.9572 H       1  UNL1        0.0629
     84 H          -2.2310    2.6988   -1.1959 H       1  UNL1        0.0937
     85 H          -2.5280    4.2386   -0.3865 H       1  UNL1        0.0595
     86 H          -2.7494    6.0157    1.0985 H       1  UNL1        0.0255
     87 H          -1.3543    5.0635    1.6203 H       1  UNL1        0.0255
     88 H          -2.9392    5.0046    2.5619 H       1  UNL1        0.0255
     89 H          -4.8455    4.6485    0.3650 H       1  UNL1        0.0306
     90 H          -4.6554    3.2397    1.5686 H       1  UNL1        0.0306
     91 H          -4.0959    3.2890   -1.4435 H       1  UNL1        0.0490
     92 H          -4.0181    1.0522    0.6008 H       1  UNL1        0.0660
     93 H          -4.4206   -0.1316   -1.1239 H       1  UNL1        0.2101
     94 H          -7.0848    2.3407   -2.6047 H       1  UNL1        0.0391
     95 H          -5.3812    1.9460   -2.7591 H       1  UNL1        0.0391
     96 H          -6.4391    0.7564   -1.9376 H       1  UNL1        0.0391
     97 H          -6.4138    4.5214   -1.4589 H       1  UNL1        0.0391
     98 H          -6.8633    4.0545    0.2814 H       1  UNL1        0.0391
     99 H          -7.7554    3.4224   -1.1491 H       1  UNL1        0.0391
    100 H           1.3228    4.0228   -1.5522 H       1  UNL1        0.0258
    101 H          -0.2146    3.5046   -2.2018 H       1  UNL1        0.0258
    102 H          -0.1837    3.7214   -0.4702 H       1  UNL1        0.0258
    103 H           1.6213    2.3817   -2.9174 H       1  UNL1        0.2103
    104 H           1.7571    0.8458    0.5790 H       1  UNL1        0.0297
    105 H           0.8449    2.2653    1.0243 H       1  UNL1        0.0297
    106 H           3.4586    2.5609   -0.4663 H       1  UNL1        0.0311
    107 H           3.0998    4.6124    1.4731 H       1  UNL1        0.0233
    108 H           3.0132    4.8442   -0.2482 H       1  UNL1        0.0233
    109 H           1.4957    4.5398    0.7975 H       1  UNL1        0.0233
    110 H           2.7912    2.1852    2.5263 H       1  UNL1        0.0429
    111 H           4.2625    2.9827    1.9821 H       1  UNL1        0.0429
    112 H           6.2144    0.9539    0.7430 H       1  UNL1        0.0391
    113 H           5.3395    2.5570    0.5408 H       1  UNL1        0.0391
    114 H           4.9813    1.2232   -0.5506 H       1  UNL1        0.0391
    115 H           3.7115    0.2711    3.2163 H       1  UNL1        0.0486
    116 H           6.5768    1.2372    2.7211 H       1  UNL1        0.0246
    117 H           5.8470    0.5864    4.1935 H       1  UNL1        0.0246
    118 H           5.2130    2.1334    3.5745 H       1  UNL1        0.0246
    119 H           6.1571   -0.9035    1.8112 H       1  UNL1        0.0639
    120 H           6.1048   -2.3342    3.4694 H       1  UNL1        0.2100
    121 H           2.5576   -3.2361    2.2289 H       1  UNL1        0.0259
    122 H           3.3083   -2.2849    3.5162 H       1  UNL1        0.0259
    123 H           2.3132   -1.4306    2.3100 H       1  UNL1        0.0259
    124 H           4.7911   -3.6895    2.5843 H       1  UNL1        0.2104
@<TRIPOS>BOND
     1     1     2    1
     2     2     3    1
     3     3     4    1
     4     4     5    1
     5     5     6    2
     6     5     7    1
     7     7     8    1
     8     7     9    1
     9     9    10    1
    10    10    11    1
    11    11    12    1
    12    12    13    1
    13    13    14    1
    14    13    15    1
    15    15    16    1
    16    13    17    1
    17    17    18    1
    18    17    19    1
    19    19    20    1
    20    19    21    1
    21     9    22    1
    22    22    23    1
    23    22    24    1
    24    24    25    1
    25    25    26    1
    26    26    27    1
    27    27    28    1
    28    28    29    1
    29    28    30    1
    30    30    31    1
    31    31    32    1
    32    32    33    1
    33    31    34    1
    34    34    35    1
    35    34    36    1
    36    24    37    1
    37    37    38    1
    38    37    39    1
    39    37    40    1
    40    40    41    1
    41    41    42    1
    42    41    43    1
    43    43    44    1
    44    44    45    1
    45    44    46    1
    46    46    47    1
    47    46    48    1
    48    48    49    1
    49    48    50    1
    50    50    51    1
    51    50    52    1
    52    50     3    1
    53    21    11    1
    54    32    26    1
    55     1    53    1
    56     1    54    1
    57     1    55    1
    58     2    56    1
    59     2    57    1
    60     3    58    1
    61     7    59    1
    62     8    60    1
    63     8    61    1
    64     8    62    1
    65     9    63    1
    66    11    64    1
    67    12    65    1
    68    12    66    1
    69    14    67    1
    70    14    68    1
    71    14    69    1
    72    16    70    1
    73    16    71    1
    74    16    72    1
    75    17    73    1
    76    18    74    1
    77    19    75    1
    78    20    76    1
    79    20    77    1
    80    20    78    1
    81    22    79    1
    82    23    80    1
    83    23    81    1
    84    23    82    1
    85    24    83    1
    86    26    84    1
    87    28    85    1
    88    29    86    1
    89    29    87    1
    90    29    88    1
    91    30    89    1
    92    30    90    1
    93    31    91    1
    94    32    92    1
    95    33    93    1
    96    35    94    1
    97    35    95    1
    98    35    96    1
    99    36    97    1
   100    36    98    1
   101    36    99    1
   102    38   100    1
   103    38   101    1
   104    38   102    1
   105    39   103    1
   106    40   104    1
   107    40   105    1
   108    41   106    1
   109    42   107    1
   110    42   108    1
   111    42   109    1
   112    43   110    1
   113    43   111    1
   114    45   112    1
   115    45   113    1
   116    45   114    1
   117    46   115    1
   118    47   116    1
   119    47   117    1
   120    47   118    1
   121    48   119    1
   122    49   120    1
   123    51   121    1
   124    51   122    1
   125    51   123    1
   126    52   124    1
