
     RDKit          3D

 53 55  0  0  0  0  0  0  0  0999 V2000
    7.9995    2.5765   -0.3183 C   0  0  0  0  0  0  0  0  0  0  0  0
    8.0627    1.1693   -0.4571 O   0  0  0  0  0  0  0  0  0  0  0  0
    6.8990    0.4180   -0.3978 C   0  0  0  0  0  0  0  0  0  0  0  0
    6.9429   -0.9529   -0.5311 C   0  0  0  0  0  0  0  0  0  0  0  0
    5.7947   -1.7318   -0.4761 C   0  0  0  0  0  0  0  0  0  0  0  0
    4.6007   -1.0890   -0.2829 C   0  0  0  0  0  0  0  0  0  0  0  0
    3.3589   -1.8883   -0.2195 C   0  0  0  0  0  0  0  0  0  0  0  0
    3.4271   -3.1306   -0.3432 O   0  0  0  0  0  0  0  0  0  0  0  0
    2.1515   -1.2071   -0.0215 N   0  0  0  0  0  0  0  0  0  0  0  0
    0.8946   -1.8434    0.0589 C   0  0  0  0  0  0  0  0  0  0  0  0
    0.6868   -3.1853   -0.0430 C   0  0  0  0  0  0  0  0  0  0  0  0
   -0.6037   -3.7418    0.0485 C   0  0  0  0  0  0  0  0  0  0  0  0
   -1.7150   -2.9616    0.2446 C   0  0  0  0  0  0  0  0  0  0  0  0
   -2.9521   -3.5391    0.3340 F   0  0  0  0  0  0  0  0  0  0  0  0
   -1.5251   -1.6021    0.3499 C   0  0  0  0  0  0  0  0  0  0  0  0
   -2.7156   -0.7568    0.5548 C   0  0  2  0  0  0  0  0  0  0  0  0
   -3.4407   -1.2289    1.7698 C   0  0  0  0  0  0  0  0  0  0  0  0
   -3.5569   -0.8804   -0.7234 C   0  0  0  0  0  0  0  0  0  0  0  0
   -4.9841    0.1744   -0.4376 S   0  0  0  0  0  6  0  0  0  0  0  0
   -5.7207    0.3559   -1.7348 O   0  0  0  0  0  0  0  0  0  0  0  0
   -5.9390   -0.4545    0.5275 O   0  0  0  0  0  0  0  0  0  0  0  0
   -4.3733    1.6817    0.2047 C   0  0  0  0  0  0  0  0  0  0  0  0
   -5.1616    2.0620    1.4394 C   0  0  0  0  0  0  0  0  0  0  0  0
   -4.6686    2.7732   -0.8328 C   0  0  0  0  0  0  0  0  0  0  0  0
   -2.9226    1.6611    0.4943 C   0  0  0  0  0  0  0  0  0  0  0  0
   -2.2694    2.9081    0.6148 N   0  0  0  0  0  0  0  0  0  0  0  0
   -2.2398    0.6089    0.6389 N   0  0  0  0  0  0  0  0  0  0  0  0
   -0.2600   -1.0720    0.2589 C   0  0  0  0  0  0  0  0  0  0  0  0
    4.5385    0.2312   -0.1523 N   0  0  0  0  0  0  0  0  0  0  0  0
    5.6573    0.9874   -0.2061 C   0  0  0  0  0  0  0  0  0  0  0  0
    7.1979    3.0053   -0.9349 H   0  0  0  0  0  0  0  0  0  0  0  0
    7.8023    2.8347    0.7381 H   0  0  0  0  0  0  0  0  0  0  0  0
    8.9585    2.9998   -0.6814 H   0  0  0  0  0  0  0  0  0  0  0  0
    7.9099   -1.4151   -0.6821 H   0  0  0  0  0  0  0  0  0  0  0  0
    5.8681   -2.8178   -0.5860 H   0  0  0  0  0  0  0  0  0  0  0  0
    2.1879   -0.1355    0.0747 H   0  0  0  0  0  0  0  0  0  0  0  0
    1.4898   -3.8888   -0.1977 H   0  0  0  0  0  0  0  0  0  0  0  0
   -0.7422   -4.8109   -0.0356 H   0  0  0  0  0  0  0  0  0  0  0  0
   -4.3455   -1.8342    1.5347 H   0  0  0  0  0  0  0  0  0  0  0  0
   -2.7886   -1.9292    2.3707 H   0  0  0  0  0  0  0  0  0  0  0  0
   -3.6432   -0.3811    2.4330 H   0  0  0  0  0  0  0  0  0  0  0  0
   -3.8695   -1.8965   -0.9314 H   0  0  0  0  0  0  0  0  0  0  0  0
   -2.9777   -0.3942   -1.5240 H   0  0  0  0  0  0  0  0  0  0  0  0
   -4.5834    1.8237    2.3787 H   0  0  0  0  0  0  0  0  0  0  0  0
   -6.0972    1.4970    1.4353 H   0  0  0  0  0  0  0  0  0  0  0  0
   -5.4472    3.1422    1.4264 H   0  0  0  0  0  0  0  0  0  0  0  0
   -4.3553    2.4183   -1.8284 H   0  0  0  0  0  0  0  0  0  0  0  0
   -5.7708    2.9019   -0.8260 H   0  0  0  0  0  0  0  0  0  0  0  0
   -4.2178    3.7332   -0.5317 H   0  0  0  0  0  0  0  0  0  0  0  0
   -2.1627    3.5700   -0.1760 H   0  0  0  0  0  0  0  0  0  0  0  0
   -1.8769    3.1773    1.5363 H   0  0  0  0  0  0  0  0  0  0  0  0
   -0.0887    0.0070    0.3403 H   0  0  0  0  0  0  0  0  0  0  0  0
    5.5863    2.0510   -0.0986 H   0  0  0  0  0  0  0  0  0  0  0  0
  1  2  1  0
  2  3  1  0
  3  4  2  0
  4  5  1  0
  5  6  2  0
  6  7  1  0
  7  8  2  0
  7  9  1  0
  9 10  1  0
 10 11  2  0
 11 12  1  0
 12 13  2  0
 13 14  1  0
 13 15  1  0
 15 16  1  0
 16 17  1  1
 16 18  1  0
 18 19  1  0
 19 20  2  0
 19 21  2  0
 19 22  1  0
 22 23  1  0
 22 24  1  0
 22 25  1  0
 25 26  1  0
 25 27  2  0
 15 28  2  0
  6 29  1  0
 29 30  2  0
 30  3  1  0
 28 10  1  0
 27 16  1  0
  1 31  1  0
  1 32  1  0
  1 33  1  0
  4 34  1  0
  5 35  1  0
  9 36  1  0
 11 37  1  0
 12 38  1  0
 17 39  1  0
 17 40  1  0
 17 41  1  0
 18 42  1  0
 18 43  1  0
 23 44  1  0
 23 45  1  0
 23 46  1  0
 24 47  1  0
 24 48  1  0
 24 49  1  0
 26 50  1  0
 26 51  1  0
 28 52  1  0
 30 53  1  0
M  END
$$$$
