@<TRIPOS>MOLECULE
*****
 53 55 0 0 0
SMALL
GASTEIGER

@<TRIPOS>ATOM
      1 C           7.9995    2.5765   -0.3183 C.3     1  UNL1        0.0789
      2 O           8.0627    1.1693   -0.4571 O.3     1  UNL1       -0.4936
      3 C           6.8990    0.4180   -0.3978 C.ar    1  UNL1        0.1381
      4 C           6.9429   -0.9529   -0.5311 C.ar    1  UNL1       -0.0163
      5 C           5.7947   -1.7318   -0.4761 C.ar    1  UNL1       -0.0277
      6 C           4.6007   -1.0890   -0.2829 C.ar    1  UNL1        0.1259
      7 C           3.3589   -1.8883   -0.2195 C.2     1  UNL1        0.2666
      8 O           3.4271   -3.1306   -0.3432 O.2     1  UNL1       -0.2682
      9 N           2.1515   -1.2071   -0.0215 N.am    1  UNL1       -0.2802
     10 C           0.8946   -1.8434    0.0589 C.ar    1  UNL1        0.0343
     11 C           0.6868   -3.1853   -0.0430 C.ar    1  UNL1       -0.0377
     12 C          -0.6037   -3.7418    0.0485 C.ar    1  UNL1       -0.0243
     13 C          -1.7150   -2.9616    0.2446 C.ar    1  UNL1        0.1311
     14 F          -2.9521   -3.5391    0.3340 F       1  UNL1       -0.2050
     15 C          -1.5251   -1.6021    0.3499 C.ar    1  UNL1        0.0420
     16 C          -2.7156   -0.7568    0.5548 C.3     1  UNL1        0.1959
     17 C          -3.4407   -1.2289    1.7698 C.3     1  UNL1       -0.0112
     18 C          -3.5569   -0.8804   -0.7234 C.3     1  UNL1        0.1183
     19 S          -4.9841    0.1744   -0.4376 S.O2    1  UNL1       -0.0101
     20 O          -5.7207    0.3559   -1.7348 O.2     1  UNL1       -0.1731
     21 O          -5.9390   -0.4545    0.5275 O.2     1  UNL1       -0.1731
     22 C          -4.3733    1.6817    0.2047 C.3     1  UNL1        0.1831
     23 C          -5.1616    2.0620    1.4394 C.3     1  UNL1       -0.0288
     24 C          -4.6686    2.7732   -0.8328 C.3     1  UNL1       -0.0288
     25 C          -2.9226    1.6611    0.4943 C.2     1  UNL1        0.3067
     26 N          -2.2694    2.9081    0.6148 N.pl3   1  UNL1       -0.2488
     27 N          -2.2398    0.6089    0.6389 N.2     1  UNL1       -0.0727
     28 C          -0.2600   -1.0720    0.2589 C.ar    1  UNL1       -0.0301
     29 N           4.5385    0.2312   -0.1523 N.ar    1  UNL1       -0.2467
     30 C           5.6573    0.9874   -0.2061 C.ar    1  UNL1        0.0700
     31 H           7.1979    3.0053   -0.9349 H       1  UNL1        0.0660
     32 H           7.8023    2.8347    0.7381 H       1  UNL1        0.0660
     33 H           8.9585    2.9998   -0.6814 H       1  UNL1        0.0660
     34 H           7.9099   -1.4151   -0.6821 H       1  UNL1        0.0655
     35 H           5.8681   -2.8178   -0.5860 H       1  UNL1        0.0641
     36 H           2.1879   -0.1355    0.0747 H       1  UNL1        0.1552
     37 H           1.4898   -3.8888   -0.1977 H       1  UNL1        0.0637
     38 H          -0.7422   -4.8109   -0.0356 H       1  UNL1        0.0647
     39 H          -4.3455   -1.8342    1.5347 H       1  UNL1        0.0279
     40 H          -2.7886   -1.9292    2.3707 H       1  UNL1        0.0279
     41 H          -3.6432   -0.3811    2.4330 H       1  UNL1        0.0279
     42 H          -3.8695   -1.8965   -0.9314 H       1  UNL1        0.0550
     43 H          -2.9777   -0.3942   -1.5240 H       1  UNL1        0.0550
     44 H          -4.5834    1.8237    2.3787 H       1  UNL1        0.0256
     45 H          -6.0972    1.4970    1.4353 H       1  UNL1        0.0256
     46 H          -5.4472    3.1422    1.4264 H       1  UNL1        0.0256
     47 H          -4.3553    2.4183   -1.8284 H       1  UNL1        0.0256
     48 H          -5.7708    2.9019   -0.8260 H       1  UNL1        0.0256
     49 H          -4.2178    3.7332   -0.5317 H       1  UNL1        0.0256
     50 H          -2.1627    3.5700   -0.1760 H       1  UNL1        0.2881
     51 H          -1.8769    3.1773    1.5363 H       1  UNL1        0.2881
     52 H          -0.0887    0.0070    0.3403 H       1  UNL1        0.0641
     53 H           5.5863    2.0510   -0.0986 H       1  UNL1        0.0867
@<TRIPOS>BOND
     1     1     2    1
     2     2     3    1
     3     3     4   ar
     4     4     5   ar
     5     5     6   ar
     6     6     7    1
     7     7     8    2
     8     7     9   am
     9     9    10    1
    10    10    11   ar
    11    11    12   ar
    12    12    13   ar
    13    13    14    1
    14    13    15   ar
    15    15    16    1
    16    16    17    1
    17    16    18    1
    18    18    19    1
    19    19    20    2
    20    19    21    2
    21    19    22    1
    22    22    23    1
    23    22    24    1
    24    22    25    1
    25    25    26    1
    26    25    27    2
    27    15    28   ar
    28     6    29   ar
    29    29    30   ar
    30    30     3   ar
    31    28    10   ar
    32    27    16    1
    33     1    31    1
    34     1    32    1
    35     1    33    1
    36     4    34    1
    37     5    35    1
    38     9    36    1
    39    11    37    1
    40    12    38    1
    41    17    39    1
    42    17    40    1
    43    17    41    1
    44    18    42    1
    45    18    43    1
    46    23    44    1
    47    23    45    1
    48    23    46    1
    49    24    47    1
    50    24    48    1
    51    24    49    1
    52    26    50    1
    53    26    51    1
    54    28    52    1
    55    30    53    1
