
     RDKit          3D

 29 30  0  0  0  0  0  0  0  0999 V2000
    1.7889   -1.1682   -2.0355 C   0  0  0  0  0  0  0  0  0  0  0  0
    2.3198   -0.5659   -0.7700 C   0  0  0  0  0  0  0  0  0  0  0  0
    1.5310   -0.0811    0.1618 C   0  0  0  0  0  0  0  0  0  0  0  0
    2.1040    0.6507    1.6942 S   0  0  0  0  0  0  0  0  0  0  0  0
    3.8914    0.8794    1.4492 C   0  0  0  0  0  0  0  0  0  0  0  0
    4.3409   -0.3134    0.6521 C   0  0  0  0  0  0  0  0  0  0  0  0
    3.6824   -0.5064   -0.5516 O   0  0  0  0  0  0  0  0  0  0  0  0
    0.1066   -0.1324   -0.0445 C   0  0  0  0  0  0  0  0  0  0  0  0
   -0.4621   -0.6158   -1.0702 O   0  0  0  0  0  0  0  0  0  0  0  0
   -0.8521    0.3585    0.8877 N   0  0  0  0  0  0  0  0  0  0  0  0
   -2.2279    0.2112    0.4893 C   0  0  0  0  0  0  0  0  0  0  0  0
   -2.9986   -0.8921    0.7792 C   0  0  0  0  0  0  0  0  0  0  0  0
   -4.3131   -0.9525    0.3582 C   0  0  0  0  0  0  0  0  0  0  0  0
   -4.8500    0.1005   -0.3554 C   0  0  0  0  0  0  0  0  0  0  0  0
   -4.1077    1.2276   -0.6671 C   0  0  0  0  0  0  0  0  0  0  0  0
   -2.7871    1.2620   -0.2309 C   0  0  0  0  0  0  0  0  0  0  0  0
    1.2415   -0.4205   -2.6589 H   0  0  0  0  0  0  0  0  0  0  0  0
    1.1891   -2.0894   -1.8353 H   0  0  0  0  0  0  0  0  0  0  0  0
    2.6246   -1.5012   -2.6541 H   0  0  0  0  0  0  0  0  0  0  0  0
    4.0919    1.8053    0.8924 H   0  0  0  0  0  0  0  0  0  0  0  0
    4.4336    0.8661    2.4102 H   0  0  0  0  0  0  0  0  0  0  0  0
    4.3748   -1.2041    1.3275 H   0  0  0  0  0  0  0  0  0  0  0  0
    5.4239   -0.1275    0.3921 H   0  0  0  0  0  0  0  0  0  0  0  0
   -0.5098    0.7924    1.7966 H   0  0  0  0  0  0  0  0  0  0  0  0
   -2.5230   -1.6799    1.3385 H   0  0  0  0  0  0  0  0  0  0  0  0
   -4.8997   -1.8370    0.6013 H   0  0  0  0  0  0  0  0  0  0  0  0
   -5.8724    0.0078   -0.6599 H   0  0  0  0  0  0  0  0  0  0  0  0
   -4.5465    2.0430   -1.2276 H   0  0  0  0  0  0  0  0  0  0  0  0
   -2.1943    2.1413   -0.4693 H   0  0  0  0  0  0  0  0  0  0  0  0
  1  2  1  0
  2  3  2  0
  3  4  1  0
  4  5  1  0
  5  6  1  0
  6  7  1  0
  3  8  1  0
  8  9  2  0
  8 10  1  0
 10 11  1  0
 11 12  2  0
 12 13  1  0
 13 14  2  0
 14 15  1  0
 15 16  2  0
  7  2  1  0
 16 11  1  0
  1 17  1  0
  1 18  1  0
  1 19  1  0
  5 20  1  0
  5 21  1  0
  6 22  1  0
  6 23  1  0
 10 24  1  0
 12 25  1  0
 13 26  1  0
 14 27  1  0
 15 28  1  0
 16 29  1  0
M  END
$$$$
