@<TRIPOS>MOLECULE
*****
 29 30 0 0 0
SMALL
GASTEIGER

@<TRIPOS>ATOM
      1 C           1.7889   -1.1682   -2.0355 C.3     1  UNL1       -0.0057
      2 C           2.3198   -0.5659   -0.7700 C.2     1  UNL1        0.1130
      3 C           1.5310   -0.0811    0.1618 C.2     1  UNL1        0.1072
      4 S           2.1040    0.6507    1.6942 S.3     1  UNL1       -0.1136
      5 C           3.8914    0.8794    1.4492 C.3     1  UNL1        0.0328
      6 C           4.3409   -0.3134    0.6521 C.3     1  UNL1        0.0984
      7 O           3.6824   -0.5064   -0.5516 O.2     1  UNL1       -0.4944
      8 C           0.1066   -0.1324   -0.0445 C.2     1  UNL1        0.2578
      9 O          -0.4621   -0.6158   -1.0702 O.2     1  UNL1       -0.2692
     10 N          -0.8521    0.3585    0.8877 N.am    1  UNL1       -0.2810
     11 C          -2.2279    0.2112    0.4893 C.ar    1  UNL1        0.0337
     12 C          -2.9986   -0.8921    0.7792 C.ar    1  UNL1       -0.0405
     13 C          -4.3131   -0.9525    0.3582 C.ar    1  UNL1       -0.0600
     14 C          -4.8500    0.1005   -0.3554 C.ar    1  UNL1       -0.0616
     15 C          -4.1077    1.2276   -0.6671 C.ar    1  UNL1       -0.0600
     16 C          -2.7871    1.2620   -0.2309 C.ar    1  UNL1       -0.0405
     17 H           1.2415   -0.4205   -2.6589 H       1  UNL1        0.0308
     18 H           1.1891   -2.0894   -1.8353 H       1  UNL1        0.0308
     19 H           2.6246   -1.5012   -2.6541 H       1  UNL1        0.0308
     20 H           4.0919    1.8053    0.8924 H       1  UNL1        0.0413
     21 H           4.4336    0.8661    2.4102 H       1  UNL1        0.0413
     22 H           4.3748   -1.2041    1.3275 H       1  UNL1        0.0705
     23 H           5.4239   -0.1275    0.3921 H       1  UNL1        0.0705
     24 H          -0.5098    0.7924    1.7966 H       1  UNL1        0.1551
     25 H          -2.5230   -1.6799    1.3385 H       1  UNL1        0.0636
     26 H          -4.8997   -1.8370    0.6013 H       1  UNL1        0.0618
     27 H          -5.8724    0.0078   -0.6599 H       1  UNL1        0.0618
     28 H          -4.5465    2.0430   -1.2276 H       1  UNL1        0.0618
     29 H          -2.1943    2.1413   -0.4693 H       1  UNL1        0.0636
@<TRIPOS>BOND
     1     1     2    1
     2     2     3    2
     3     3     4    1
     4     4     5    1
     5     5     6    1
     6     6     7    1
     7     3     8    1
     8     8     9    2
     9     8    10   am
    10    10    11    1
    11    11    12   ar
    12    12    13   ar
    13    13    14   ar
    14    14    15   ar
    15    15    16   ar
    16     7     2    1
    17    16    11   ar
    18     1    17    1
    19     1    18    1
    20     1    19    1
    21     5    20    1
    22     5    21    1
    23     6    22    1
    24     6    23    1
    25    10    24    1
    26    12    25    1
    27    13    26    1
    28    14    27    1
    29    15    28    1
    30    16    29    1
