
     RDKit          3D

 43 45  0  0  0  0  0  0  0  0999 V2000
   -4.1839    0.1652    0.2109 C   0  0  0  0  0  0  0  0  0  0  0  0
   -3.2279   -0.7636    0.9156 C   0  0  0  0  0  0  0  0  0  0  0  0
   -3.8830   -1.4305    2.0799 C   0  0  0  0  0  0  0  0  0  0  0  0
   -2.7366   -1.7619    0.0455 O   0  0  0  0  0  0  0  0  0  0  0  0
   -1.8846   -1.0435   -0.7525 C   0  0  2  0  0  0  0  0  0  0  0  0
   -0.6424   -1.8301   -1.1568 C   0  0  0  0  0  0  0  0  0  0  0  0
    0.0990   -0.9344   -1.9510 O   0  0  0  0  0  0  0  0  0  0  0  0
    0.8209   -0.1418   -1.0586 C   0  0  1  0  0  0  0  0  0  0  0  0
    2.1690   -0.8040   -0.8939 C   0  0  0  0  0  0  0  0  0  0  0  0
    2.9995   -0.1173   -0.0246 O   0  0  0  0  0  0  0  0  0  0  0  0
    4.4465   -0.9690    0.0541 S   0  0  0  0  0  6  0  0  0  0  0  0
    4.3563   -2.2078    1.2451 N   0  0  0  0  0  0  0  0  0  0  0  0
    5.6143   -0.0533    0.2745 O   0  0  0  0  0  0  0  0  0  0  0  0
    4.6548   -1.6304   -1.2807 O   0  0  0  0  0  0  0  0  0  0  0  0
    0.9213    1.1379   -1.5824 O   0  0  0  0  0  0  0  0  0  0  0  0
    0.8904    2.0294   -0.5374 C   0  0  0  0  0  0  0  0  0  0  0  0
   -0.1423    3.1214   -0.7051 C   0  0  0  0  0  0  0  0  0  0  0  0
    2.2528    2.7018   -0.4612 C   0  0  0  0  0  0  0  0  0  0  0  0
    0.5871    1.3407    0.6205 O   0  0  0  0  0  0  0  0  0  0  0  0
    0.1327    0.0753    0.2444 C   0  0  1  0  0  0  0  0  0  0  0  0
   -1.3824    0.1269    0.0859 C   0  0  2  0  0  0  0  0  0  0  0  0
   -2.0434   -0.0853    1.2802 O   0  0  0  0  0  0  0  0  0  0  0  0
   -5.2334   -0.1868    0.4161 H   0  0  0  0  0  0  0  0  0  0  0  0
   -4.0529    0.0711   -0.8882 H   0  0  0  0  0  0  0  0  0  0  0  0
   -4.0428    1.2174    0.5216 H   0  0  0  0  0  0  0  0  0  0  0  0
   -3.5907   -2.4912    2.2028 H   0  0  0  0  0  0  0  0  0  0  0  0
   -4.9937   -1.4240    1.8877 H   0  0  0  0  0  0  0  0  0  0  0  0
   -3.7170   -0.8330    3.0147 H   0  0  0  0  0  0  0  0  0  0  0  0
   -2.3449   -0.6974   -1.6968 H   0  0  0  0  0  0  0  0  0  0  0  0
   -0.8977   -2.7554   -1.7035 H   0  0  0  0  0  0  0  0  0  0  0  0
   -0.0645   -2.1347   -0.2581 H   0  0  0  0  0  0  0  0  0  0  0  0
    2.7111   -0.8938   -1.8561 H   0  0  0  0  0  0  0  0  0  0  0  0
    2.0101   -1.8207   -0.5067 H   0  0  0  0  0  0  0  0  0  0  0  0
    5.2847   -2.5588    1.5092 H   0  0  0  0  0  0  0  0  0  0  0  0
    3.8045   -1.8847    2.0782 H   0  0  0  0  0  0  0  0  0  0  0  0
   -0.7939    2.9858   -1.5659 H   0  0  0  0  0  0  0  0  0  0  0  0
   -0.8049    3.2082    0.1969 H   0  0  0  0  0  0  0  0  0  0  0  0
    0.3326    4.1355   -0.7982 H   0  0  0  0  0  0  0  0  0  0  0  0
    2.1758    3.8078   -0.6015 H   0  0  0  0  0  0  0  0  0  0  0  0
    2.9286    2.3481   -1.2688 H   0  0  0  0  0  0  0  0  0  0  0  0
    2.6914    2.5550    0.5467 H   0  0  0  0  0  0  0  0  0  0  0  0
    0.4419   -0.6236    1.0459 H   0  0  0  0  0  0  0  0  0  0  0  0
   -1.6623    1.0495   -0.4239 H   0  0  0  0  0  0  0  0  0  0  0  0
  1  2  1  0
  2  3  1  0
  2  4  1  0
  4  5  1  0
  5  6  1  0
  6  7  1  0
  7  8  1  0
  8  9  1  1
  9 10  1  0
 10 11  1  0
 11 12  1  0
 11 13  2  0
 11 14  2  0
  8 15  1  0
 15 16  1  0
 16 17  1  0
 16 18  1  0
 16 19  1  0
 19 20  1  0
 20 21  1  0
 21 22  1  0
 22  2  1  0
 21  5  1  0
 20  8  1  0
  1 23  1  0
  1 24  1  0
  1 25  1  0
  3 26  1  0
  3 27  1  0
  3 28  1  0
  5 29  1  6
  6 30  1  0
  6 31  1  0
  9 32  1  0
  9 33  1  0
 12 34  1  0
 12 35  1  0
 17 36  1  0
 17 37  1  0
 17 38  1  0
 18 39  1  0
 18 40  1  0
 18 41  1  0
 20 42  1  1
 21 43  1  6
M  END
$$$$
