@<TRIPOS>MOLECULE
*****
 43 45 0 0 0
SMALL
GASTEIGER

@<TRIPOS>ATOM
      1 C          -4.1839    0.1652    0.2109 C.3     1  UNL1       -0.0108
      2 C          -3.2279   -0.7636    0.9156 C.3     1  UNL1        0.1656
      3 C          -3.8830   -1.4305    2.0799 C.3     1  UNL1       -0.0108
      4 O          -2.7366   -1.7619    0.0455 O.3     1  UNL1       -0.3410
      5 C          -1.8846   -1.0435   -0.7525 C.3     1  UNL1        0.1140
      6 C          -0.6424   -1.8301   -1.1568 C.3     1  UNL1        0.0799
      7 O           0.0990   -0.9344   -1.9510 O.3     1  UNL1       -0.3418
      8 C           0.8209   -0.1418   -1.0586 C.3     1  UNL1        0.2280
      9 C           2.1690   -0.8040   -0.8939 C.3     1  UNL1        0.1345
     10 O           2.9995   -0.1173   -0.0246 O.3     1  UNL1       -0.2196
     11 S           4.4465   -0.9690    0.0541 S.O2    1  UNL1        0.1486
     12 N           4.3563   -2.2078    1.2451 N.3     1  UNL1       -0.1833
     13 O           5.6143   -0.0533    0.2745 O.2     1  UNL1       -0.1300
     14 O           4.6548   -1.6304   -1.2807 O.2     1  UNL1       -0.1300
     15 O           0.9213    1.1379   -1.5824 O.3     1  UNL1       -0.3130
     16 C           0.8904    2.0294   -0.5374 C.3     1  UNL1        0.1686
     17 C          -0.1423    3.1214   -0.7051 C.3     1  UNL1       -0.0107
     18 C           2.2528    2.7018   -0.4612 C.3     1  UNL1       -0.0107
     19 O           0.5871    1.3407    0.6205 O.3     1  UNL1       -0.3378
     20 C           0.1327    0.0753    0.2444 C.3     1  UNL1        0.1466
     21 C          -1.3824    0.1269    0.0859 C.3     1  UNL1        0.1215
     22 O          -2.0434   -0.0853    1.2802 O.3     1  UNL1       -0.3406
     23 H          -5.2334   -0.1868    0.4161 H       1  UNL1        0.0281
     24 H          -4.0529    0.0711   -0.8882 H       1  UNL1        0.0281
     25 H          -4.0428    1.2174    0.5216 H       1  UNL1        0.0281
     26 H          -3.5907   -2.4912    2.2028 H       1  UNL1        0.0281
     27 H          -4.9937   -1.4240    1.8877 H       1  UNL1        0.0281
     28 H          -3.7170   -0.8330    3.0147 H       1  UNL1        0.0281
     29 H          -2.3449   -0.6974   -1.6968 H       1  UNL1        0.0647
     30 H          -0.8977   -2.7554   -1.7035 H       1  UNL1        0.0588
     31 H          -0.0645   -2.1347   -0.2581 H       1  UNL1        0.0588
     32 H           2.7111   -0.8938   -1.8561 H       1  UNL1        0.0639
     33 H           2.0101   -1.8207   -0.5067 H       1  UNL1        0.0639
     34 H           5.2847   -2.5588    1.5092 H       1  UNL1        0.1462
     35 H           3.8045   -1.8847    2.0782 H       1  UNL1        0.1462
     36 H          -0.7939    2.9858   -1.5659 H       1  UNL1        0.0281
     37 H          -0.8049    3.2082    0.1969 H       1  UNL1        0.0281
     38 H           0.3326    4.1355   -0.7982 H       1  UNL1        0.0281
     39 H           2.1758    3.8078   -0.6015 H       1  UNL1        0.0281
     40 H           2.9286    2.3481   -1.2688 H       1  UNL1        0.0281
     41 H           2.6914    2.5550    0.5467 H       1  UNL1        0.0281
     42 H           0.4419   -0.6236    1.0459 H       1  UNL1        0.0679
     43 H          -1.6623    1.0495   -0.4239 H       1  UNL1        0.0652
@<TRIPOS>BOND
     1     1     2    1
     2     2     3    1
     3     2     4    1
     4     4     5    1
     5     5     6    1
     6     6     7    1
     7     7     8    1
     8     8     9    1
     9     9    10    1
    10    10    11    1
    11    11    12    1
    12    11    13    2
    13    11    14    2
    14     8    15    1
    15    15    16    1
    16    16    17    1
    17    16    18    1
    18    16    19    1
    19    19    20    1
    20    20    21    1
    21    21    22    1
    22    22     2    1
    23    21     5    1
    24    20     8    1
    25     1    23    1
    26     1    24    1
    27     1    25    1
    28     3    26    1
    29     3    27    1
    30     3    28    1
    31     5    29    1
    32     6    30    1
    33     6    31    1
    34     9    32    1
    35     9    33    1
    36    12    34    1
    37    12    35    1
    38    17    36    1
    39    17    37    1
    40    17    38    1
    41    18    39    1
    42    18    40    1
    43    18    41    1
    44    20    42    1
    45    21    43    1
