@<TRIPOS>MOLECULE
*****
 42 46 0 0 0
SMALL
GASTEIGER

@<TRIPOS>ATOM
      1 C          -0.7394    3.4310   -1.1230 C.3     1  UNL1        0.0322
      2 N          -0.6326    2.9942    0.2518 N.ar    1  UNL1       -0.2515
      3 N          -0.7851    3.8326    1.2752 N.ar    1  UNL1       -0.1584
      4 C          -0.6335    3.1549    2.4211 C.ar    1  UNL1        0.1383
      5 N          -0.3847    1.8824    2.0748 N.ar    1  UNL1       -0.2187
      6 C          -0.3821    1.7724    0.7247 C.ar    1  UNL1        0.1383
      7 C          -0.1483    0.5429   -0.0716 C.3     1  UNL1        0.0854
      8 C          -1.4647   -0.1166   -0.3155 C.ar    1  UNL1        0.0835
      9 N          -2.5632    0.6852   -0.4392 N.ar    1  UNL1       -0.1745
     10 N          -3.7676    0.1845   -0.6575 N.ar    1  UNL1       -0.2424
     11 C          -4.0123   -1.1232   -0.7742 C.ar    1  UNL1        0.2726
     12 O          -5.1843   -1.5810   -0.9849 O.2     1  UNL1       -0.2658
     13 C          -2.9399   -1.9863   -0.6582 C.ar    1  UNL1        0.0541
     14 C          -3.1150   -3.3588   -0.7683 C.ar    1  UNL1       -0.0133
     15 C          -2.0325   -4.2001   -0.6498 C.ar    1  UNL1        0.1259
     16 F          -2.1829   -5.5367   -0.7539 F       1  UNL1       -0.2054
     17 C          -0.7832   -3.6629   -0.4222 C.ar    1  UNL1       -0.0049
     18 C          -0.5828   -2.2959   -0.3085 C.ar    1  UNL1        0.0401
     19 C          -1.6696   -1.4544   -0.4277 C.ar    1  UNL1        0.0321
     20 N           0.6846   -1.7013   -0.0730 N.pl3   1  UNL1       -0.3354
     21 C           0.7678   -0.4106    0.6087 C.3     1  UNL1        0.0611
     22 C           2.1740   -0.0157    0.6502 C.ar    1  UNL1       -0.0261
     23 C           3.1090   -0.9671    1.0155 C.ar    1  UNL1       -0.0541
     24 C           4.4639   -0.6744    1.0792 C.ar    1  UNL1       -0.0261
     25 C           4.9261    0.5892    0.7768 C.ar    1  UNL1        0.1234
     26 F           6.2419    0.9170    0.8266 F       1  UNL1       -0.2055
     27 C           3.9958    1.5372    0.4129 C.ar    1  UNL1       -0.0261
     28 C           2.6582    1.2409    0.3520 C.ar    1  UNL1       -0.0541
     29 H          -1.0891    2.6464   -1.7942 H       1  UNL1        0.0473
     30 H          -1.4089    4.3012   -1.2377 H       1  UNL1        0.0473
     31 H           0.2763    3.7636   -1.4853 H       1  UNL1        0.0473
     32 H          -0.7025    3.5717    3.4080 H       1  UNL1        0.1066
     33 H           0.2458    0.7996   -1.0793 H       1  UNL1        0.0466
     34 H          -4.5868    0.8362   -0.7466 H       1  UNL1        0.1921
     35 H          -4.1272   -3.7248   -0.9485 H       1  UNL1        0.0654
     36 H           0.1036   -4.2778   -0.3207 H       1  UNL1        0.0665
     37 H           1.5249   -2.2237   -0.4035 H       1  UNL1        0.1467
     38 H           0.4331   -0.5374    1.6770 H       1  UNL1        0.0558
     39 H           2.8123   -1.9797    1.2657 H       1  UNL1        0.0622
     40 H           5.2080   -1.4080    1.3634 H       1  UNL1        0.0646
     41 H           4.3152    2.5478    0.1656 H       1  UNL1        0.0646
     42 H           1.9777    2.0057    0.0655 H       1  UNL1        0.0622
@<TRIPOS>BOND
     1     1     2    1
     2     2     3   ar
     3     3     4   ar
     4     4     5   ar
     5     5     6   ar
     6     6     7    1
     7     7     8    1
     8     8     9   ar
     9     9    10   ar
    10    10    11   ar
    11    11    12    2
    12    11    13   ar
    13    13    14   ar
    14    14    15   ar
    15    15    16    1
    16    15    17   ar
    17    17    18   ar
    18    18    19   ar
    19    18    20    1
    20    20    21    1
    21    21    22    1
    22    22    23   ar
    23    23    24   ar
    24    24    25   ar
    25    25    26    1
    26    25    27   ar
    27    27    28   ar
    28     6     2   ar
    29    21     7    1
    30    28    22   ar
    31    19     8   ar
    32    19    13   ar
    33     1    29    1
    34     1    30    1
    35     1    31    1
    36     4    32    1
    37     7    33    1
    38    10    34    1
    39    14    35    1
    40    17    36    1
    41    20    37    1
    42    21    38    1
    43    23    39    1
    44    24    40    1
    45    27    41    1
    46    28    42    1
