@<TRIPOS>MOLECULE
*****
 56 59 0 0 0
SMALL
GASTEIGER

@<TRIPOS>ATOM
      1 C           2.7384   -0.8656    1.7526 C.3     1  UNL1       -0.0384
      2 C           1.9479    0.2482    2.3603 C.3     1  UNL1       -0.0455
      3 C           1.5173    1.2008    1.2866 C.3     1  UNL1       -0.0201
      4 C           2.7410    1.7558    0.5673 C.3     1  UNL1       -0.0233
      5 C           3.5553    0.6574   -0.0373 C.3     1  UNL1        0.0884
      6 C           3.9594   -0.2697    1.0780 C.3     1  UNL1       -0.0250
      7 C           2.7148   -0.0356   -1.0819 C.3     1  UNL1       -0.0233
      8 C           1.4819   -0.5738   -0.3798 C.3     1  UNL1       -0.0201
      9 C           1.8801   -1.5425    0.6788 C.3     1  UNL1       -0.0455
     10 C           0.6701    0.5408    0.2342 C.3     1  UNL1        0.0290
     11 N          -0.5776    0.0095    0.7083 N.am    1  UNL1       -0.3087
     12 C          -1.8595    0.3769    0.1505 C.2     1  UNL1        0.2566
     13 O          -1.6889    1.2067   -0.7763 O.2     1  UNL1       -0.2714
     14 C          -3.0540   -0.2634    0.7522 C.3     1  UNL1        0.1800
     15 C          -2.8407   -1.7664    0.6308 C.3     1  UNL1       -0.0165
     16 C          -3.0960    0.0163    2.2624 C.3     1  UNL1       -0.0165
     17 O          -4.2707    0.1519    0.2546 O.3     1  UNL1       -0.4756
     18 C          -4.8093    0.1121   -0.9882 C.ar    1  UNL1        0.1404
     19 C          -5.5735   -0.9334   -1.4938 C.ar    1  UNL1        0.0853
     20 CL         -5.9144   -2.3232   -0.4854 Cl      1  UNL1       -0.0797
     21 C          -6.1267   -0.9931   -2.7492 C.ar    1  UNL1       -0.0046
     22 C          -5.9277    0.0606   -3.6131 C.ar    1  UNL1        0.1250
     23 F          -6.4564    0.0380   -4.8572 F       1  UNL1       -0.2054
     24 C          -5.1809    1.1333   -3.1821 C.ar    1  UNL1       -0.0229
     25 C          -4.6613    1.1250   -1.9212 C.ar    1  UNL1       -0.0157
     26 S           5.0079    1.3261   -0.7795 S.O2    1  UNL1       -0.0282
     27 C           5.9477   -0.0036   -1.4851 C.3     1  UNL1        0.0551
     28 O           4.5592    2.1825   -1.9528 O.2     1  UNL1       -0.1741
     29 O           5.7864    2.1305    0.1985 O.2     1  UNL1       -0.1741
     30 H           3.0469   -1.6003    2.4963 H       1  UNL1        0.0302
     31 H           1.0349   -0.0900    2.8809 H       1  UNL1        0.0271
     32 H           2.5851    0.8354    3.0638 H       1  UNL1        0.0271
     33 H           1.0314    2.0509    1.7733 H       1  UNL1        0.0319
     34 H           2.4149    2.4157   -0.2568 H       1  UNL1        0.0290
     35 H           3.3591    2.3305    1.2736 H       1  UNL1        0.0290
     36 H           4.6223   -1.0652    0.7222 H       1  UNL1        0.0289
     37 H           4.4733    0.3270    1.8517 H       1  UNL1        0.0289
     38 H           3.2630   -0.8963   -1.4669 H       1  UNL1        0.0290
     39 H           2.4342    0.6858   -1.8508 H       1  UNL1        0.0290
     40 H           0.8411   -1.1189   -1.1048 H       1  UNL1        0.0319
     41 H           0.9759   -1.9129    1.1915 H       1  UNL1        0.0271
     42 H           2.4565   -2.4171    0.2555 H       1  UNL1        0.0271
     43 H           0.4785    1.3147   -0.5596 H       1  UNL1        0.0504
     44 H          -0.5352   -0.6651    1.5040 H       1  UNL1        0.1491
     45 H          -1.8244   -2.0822    0.9418 H       1  UNL1        0.0273
     46 H          -3.5273   -2.3472    1.2875 H       1  UNL1        0.0273
     47 H          -2.9479   -2.1376   -0.4079 H       1  UNL1        0.0273
     48 H          -2.3646   -0.6298    2.7889 H       1  UNL1        0.0273
     49 H          -2.7984    1.0803    2.3662 H       1  UNL1        0.0273
     50 H          -4.1201   -0.1063    2.6098 H       1  UNL1        0.0273
     51 H          -6.7095   -1.8112   -3.1095 H       1  UNL1        0.0662
     52 H          -5.0472    1.9409   -3.8888 H       1  UNL1        0.0647
     53 H          -4.1010    2.0206   -1.6909 H       1  UNL1        0.0655
     54 H           6.6967   -0.3086   -0.7261 H       1  UNL1        0.0464
     55 H           5.3080   -0.8644   -1.6946 H       1  UNL1        0.0464
     56 H           6.4843    0.3491   -2.3906 H       1  UNL1        0.0464
@<TRIPOS>BOND
     1     1     2    1
     2     2     3    1
     3     3     4    1
     4     4     5    1
     5     5     6    1
     6     5     7    1
     7     7     8    1
     8     8     9    1
     9     8    10    1
    10    10    11    1
    11    11    12   am
    12    12    13    2
    13    12    14    1
    14    14    15    1
    15    14    16    1
    16    14    17    1
    17    17    18    1
    18    18    19   ar
    19    19    20    1
    20    19    21   ar
    21    21    22   ar
    22    22    23    1
    23    22    24   ar
    24    24    25   ar
    25     5    26    1
    26    26    27    1
    27    26    28    2
    28    26    29    2
    29     6     1    1
    30    25    18   ar
    31     9     1    1
    32    10     3    1
    33     1    30    1
    34     2    31    1
    35     2    32    1
    36     3    33    1
    37     4    34    1
    38     4    35    1
    39     6    36    1
    40     6    37    1
    41     7    38    1
    42     7    39    1
    43     8    40    1
    44     9    41    1
    45     9    42    1
    46    10    43    1
    47    11    44    1
    48    15    45    1
    49    15    46    1
    50    15    47    1
    51    16    48    1
    52    16    49    1
    53    16    50    1
    54    21    51    1
    55    24    52    1
    56    25    53    1
    57    27    54    1
    58    27    55    1
    59    27    56    1
