
     RDKit          3D

 37 40  0  0  0  0  0  0  0  0999 V2000
    2.2205   -0.1116   -2.3887 C   0  0  0  0  0  0  0  0  0  0  0  0
    2.1290   -0.1941   -0.9221 N   0  0  0  0  0  0  0  0  0  0  0  0
    3.0668    0.0684    0.0084 C   0  0  0  0  0  0  0  0  0  0  0  0
    2.4629   -0.1665    1.2163 C   0  0  0  0  0  0  0  0  0  0  0  0
    3.6633    0.1679    2.4375 S   0  0  0  0  0  0  0  0  0  0  0  0
    4.9946    0.6332    1.2157 C   0  0  0  0  0  0  0  0  0  0  0  0
    6.3500    1.0459    1.6319 C   0  0  0  0  0  0  0  0  0  0  0  0
    4.3766    0.4814    0.0314 C   0  0  0  0  0  0  0  0  0  0  0  0
    1.1435   -0.5763    1.0159 C   0  0  0  0  0  0  0  0  0  0  0  0
    0.9801   -0.5784   -0.3432 C   0  0  0  0  0  0  0  0  0  0  0  0
   -0.2546   -0.9516   -0.8156 C   0  0  0  0  0  0  0  0  0  0  0  0
   -0.4678   -0.9769   -2.0275 O   0  0  0  0  0  0  0  0  0  0  0  0
   -1.2687   -1.3009   -0.0150 N   0  0  0  0  0  0  0  0  0  0  0  0
   -2.6196   -1.6974   -0.3378 C   0  0  0  0  0  0  0  0  0  0  0  0
   -3.5981   -0.6108   -0.3561 C   0  0  0  0  0  0  0  0  0  0  0  0
   -4.4225   -0.4893    0.7657 C   0  0  0  0  0  0  0  0  0  0  0  0
   -5.3915    0.4649    0.9455 C   0  0  0  0  0  0  0  0  0  0  0  0
   -5.5909    1.3967   -0.0502 C   0  0  0  0  0  0  0  0  0  0  0  0
   -4.8146    1.3360   -1.1822 C   0  0  0  0  0  0  0  0  0  0  0  0
   -3.8602    0.3520   -1.2977 C   0  0  0  0  0  0  0  0  0  0  0  0
   -3.1245    0.3138   -2.4214 F   0  0  0  0  0  0  0  0  0  0  0  0
   -1.0482   -1.2797    1.3064 N   0  0  0  0  0  0  0  0  0  0  0  0
    0.1315   -0.9266    1.8444 C   0  0  0  0  0  0  0  0  0  0  0  0
    1.5566    0.6457   -2.8046 H   0  0  0  0  0  0  0  0  0  0  0  0
    3.2875   -0.0077   -2.6455 H   0  0  0  0  0  0  0  0  0  0  0  0
    1.9132   -1.1233   -2.7778 H   0  0  0  0  0  0  0  0  0  0  0  0
    6.6716    1.9284    1.0674 H   0  0  0  0  0  0  0  0  0  0  0  0
    6.3092    1.3442    2.6996 H   0  0  0  0  0  0  0  0  0  0  0  0
    7.0866    0.2053    1.5759 H   0  0  0  0  0  0  0  0  0  0  0  0
    5.0029    0.7105   -0.8214 H   0  0  0  0  0  0  0  0  0  0  0  0
   -2.9696   -2.5073    0.3673 H   0  0  0  0  0  0  0  0  0  0  0  0
   -2.6365   -2.2315   -1.3405 H   0  0  0  0  0  0  0  0  0  0  0  0
   -4.3198   -1.1967    1.5974 H   0  0  0  0  0  0  0  0  0  0  0  0
   -5.9947    0.5009    1.8414 H   0  0  0  0  0  0  0  0  0  0  0  0
   -6.3347    2.1558    0.0483 H   0  0  0  0  0  0  0  0  0  0  0  0
   -4.9403    2.0440   -1.9789 H   0  0  0  0  0  0  0  0  0  0  0  0
    0.3106   -0.9089    2.9097 H   0  0  0  0  0  0  0  0  0  0  0  0
  1  2  1  0
  2  3  1  0
  3  4  2  0
  4  5  1  0
  5  6  1  0
  6  7  1  0
  6  8  2  0
  4  9  1  0
  9 10  2  0
 10 11  1  0
 11 12  2  0
 11 13  1  0
 13 14  1  0
 14 15  1  0
 15 16  2  0
 16 17  1  0
 17 18  2  0
 18 19  1  0
 19 20  2  0
 20 21  1  0
 13 22  1  0
 22 23  2  0
 10  2  1  0
 20 15  1  0
  8  3  1  0
 23  9  1  0
  1 24  1  0
  1 25  1  0
  1 26  1  0
  7 27  1  0
  7 28  1  0
  7 29  1  0
  8 30  1  0
 14 31  1  0
 14 32  1  0
 16 33  1  0
 17 34  1  0
 18 35  1  0
 19 36  1  0
 23 37  1  0
M  END
$$$$
