@<TRIPOS>MOLECULE
*****
 37 40 0 0 0
SMALL
GASTEIGER

@<TRIPOS>ATOM
      1 C           2.2205   -0.1116   -2.3887 C.3     1  UNL1        0.0126
      2 N           2.1290   -0.1941   -0.9221 N.ar    1  UNL1       -0.3382
      3 C           3.0668    0.0684    0.0084 C.ar    1  UNL1        0.0574
      4 C           2.4629   -0.1665    1.2163 C.ar    1  UNL1        0.0467
      5 S           3.6633    0.1679    2.4375 S.2     1  UNL1       -0.0912
      6 C           4.9946    0.6332    1.2157 C.ar    1  UNL1       -0.0107
      7 C           6.3500    1.0459    1.6319 C.3     1  UNL1       -0.0333
      8 C           4.3766    0.4814    0.0314 C.ar    1  UNL1       -0.0276
      9 C           1.1435   -0.5763    1.0159 C.ar    1  UNL1        0.0393
     10 C           0.9801   -0.5784   -0.3432 C.ar    1  UNL1        0.1187
     11 C          -0.2546   -0.9516   -0.8156 C.ar    1  UNL1        0.2918
     12 O          -0.4678   -0.9769   -2.0275 O.2     1  UNL1       -0.2639
     13 N          -1.2687   -1.3009   -0.0150 N.ar    1  UNL1       -0.2233
     14 C          -2.6196   -1.6974   -0.3378 C.3     1  UNL1        0.0730
     15 C          -3.5981   -0.6108   -0.3561 C.ar    1  UNL1        0.0092
     16 C          -4.4225   -0.4893    0.7657 C.ar    1  UNL1       -0.0541
     17 C          -5.3915    0.4649    0.9455 C.ar    1  UNL1       -0.0613
     18 C          -5.5909    1.3967   -0.0502 C.ar    1  UNL1       -0.0590
     19 C          -4.8146    1.3360   -1.1822 C.ar    1  UNL1       -0.0261
     20 C          -3.8602    0.3520   -1.2977 C.ar    1  UNL1        0.1283
     21 F          -3.1245    0.3138   -2.4214 F       1  UNL1       -0.2051
     22 N          -1.0482   -1.2797    1.3064 N.ar    1  UNL1       -0.1756
     23 C           0.1315   -0.9266    1.8444 C.ar    1  UNL1        0.0585
     24 H           1.5566    0.6457   -2.8046 H       1  UNL1        0.0456
     25 H           3.2875   -0.0077   -2.6455 H       1  UNL1        0.0456
     26 H           1.9132   -1.1233   -2.7778 H       1  UNL1        0.0456
     27 H           6.6716    1.9284    1.0674 H       1  UNL1        0.0283
     28 H           6.3092    1.3442    2.6996 H       1  UNL1        0.0283
     29 H           7.0866    0.2053    1.5759 H       1  UNL1        0.0283
     30 H           5.0029    0.7105   -0.8214 H       1  UNL1        0.0646
     31 H          -2.9696   -2.5073    0.3673 H       1  UNL1        0.0560
     32 H          -2.6365   -2.2315   -1.3405 H       1  UNL1        0.0560
     33 H          -4.3198   -1.1967    1.5974 H       1  UNL1        0.0622
     34 H          -5.9947    0.5009    1.8414 H       1  UNL1        0.0618
     35 H          -6.3347    2.1558    0.0483 H       1  UNL1        0.0618
     36 H          -4.9403    2.0440   -1.9789 H       1  UNL1        0.0646
     37 H           0.3106   -0.9089    2.9097 H       1  UNL1        0.0854
@<TRIPOS>BOND
     1     1     2    1
     2     2     3   ar
     3     3     4   ar
     4     4     5   ar
     5     5     6   ar
     6     6     7    1
     7     6     8   ar
     8     4     9   ar
     9     9    10   ar
    10    10    11   ar
    11    11    12    2
    12    11    13   ar
    13    13    14    1
    14    14    15    1
    15    15    16   ar
    16    16    17   ar
    17    17    18   ar
    18    18    19   ar
    19    19    20   ar
    20    20    21    1
    21    13    22   ar
    22    22    23   ar
    23    10     2   ar
    24    20    15   ar
    25     8     3   ar
    26    23     9   ar
    27     1    24    1
    28     1    25    1
    29     1    26    1
    30     7    27    1
    31     7    28    1
    32     7    29    1
    33     8    30    1
    34    14    31    1
    35    14    32    1
    36    16    33    1
    37    17    34    1
    38    18    35    1
    39    19    36    1
    40    23    37    1
