
     RDKit          3D

 61 64  0  0  0  0  0  0  0  0999 V2000
   -3.8478   -0.4790   -1.6173 C   0  0  2  0  0  0  0  0  0  0  0  0
   -4.1436    0.7135   -2.1759 F   0  0  0  0  0  0  0  0  0  0  0  0
   -5.1526   -1.1814   -1.3040 C   0  0  0  0  0  0  0  0  0  0  0  0
   -5.8131   -0.6011   -0.1542 N   0  0  0  0  0  0  0  0  0  0  0  0
   -6.5828    0.5681   -0.4373 C   0  0  0  0  0  0  0  0  0  0  0  0
   -4.9811   -0.5148    1.0058 C   0  0  0  0  0  0  0  0  0  0  0  0
   -3.7992    0.3964    0.6463 C   0  0  0  0  0  0  0  0  0  0  0  0
   -2.9915   -0.3963   -0.3592 C   0  0  2  0  0  0  0  0  0  0  0  0
   -1.7243    0.1742   -0.6091 N   0  0  0  0  0  0  0  0  0  0  0  0
   -1.7735    1.5872   -1.0525 C   0  0  0  0  0  0  0  0  0  0  0  0
   -0.3875   -0.2727   -0.5090 C   0  0  0  0  0  0  0  0  0  0  0  0
   -1.3992   -0.9238   -0.2274 O   0  0  0  0  0  0  0  0  0  0  0  0
    0.9885   -0.2517   -0.5797 N   0  0  0  0  0  0  0  0  0  0  0  0
    1.6461    0.9711   -1.0736 C   0  0  0  0  0  0  0  0  0  0  0  0
    2.7535    1.1650   -0.1106 C   0  0  0  0  0  0  0  0  0  0  0  0
    3.0271   -0.0443    0.3270 C   0  0  0  0  0  0  0  0  0  0  0  0
    2.1081   -1.0582   -0.3382 C   0  0  2  0  0  0  0  0  0  0  0  0
    2.8641   -1.4439   -1.6073 C   0  0  0  0  0  0  0  0  0  0  0  0
    2.0894   -2.1365   -2.5140 O   0  0  0  0  0  0  0  0  0  0  0  0
    2.0395   -2.2008    0.5523 C   0  0  0  0  0  0  0  0  0  0  0  0
    1.0950   -3.0284    1.0951 C   0  0  0  0  0  0  0  0  0  0  0  0
    1.2815   -4.0938    1.9315 C   0  0  0  0  0  0  0  0  0  0  0  0
    2.5721   -4.4022    2.2946 C   0  0  0  0  0  0  0  0  0  0  0  0
    3.5939   -3.6478    1.8151 C   0  0  0  0  0  0  0  0  0  0  0  0
    3.3364   -2.5722    0.9640 C   0  0  0  0  0  0  0  0  0  0  0  0
    3.4223    2.3927    0.2950 C   0  0  0  0  0  0  0  0  0  0  0  0
    4.4329    2.3831    1.2190 C   0  0  0  0  0  0  0  0  0  0  0  0
    5.0974    3.5151    1.6331 C   0  0  0  0  0  0  0  0  0  0  0  0
    6.0955    3.4883    2.5485 F   0  0  0  0  0  0  0  0  0  0  0  0
    4.7615    4.7480    1.1172 C   0  0  0  0  0  0  0  0  0  0  0  0
    3.7541    4.7931    0.1901 C   0  0  0  0  0  0  0  0  0  0  0  0
    3.1127    3.6358   -0.1988 C   0  0  0  0  0  0  0  0  0  0  0  0
    2.1342    3.7824   -1.1204 F   0  0  0  0  0  0  0  0  0  0  0  0
   -3.3058   -1.1107   -2.3467 H   0  0  0  0  0  0  0  0  0  0  0  0
   -4.9834   -2.2541   -1.1717 H   0  0  0  0  0  0  0  0  0  0  0  0
   -5.8189   -1.0449   -2.1808 H   0  0  0  0  0  0  0  0  0  0  0  0
   -7.6824    0.3293   -0.4942 H   0  0  0  0  0  0  0  0  0  0  0  0
   -6.4910    1.2486    0.4360 H   0  0  0  0  0  0  0  0  0  0  0  0
   -6.3036    1.1025   -1.3490 H   0  0  0  0  0  0  0  0  0  0  0  0
   -4.5311   -1.5174    1.1693 H   0  0  0  0  0  0  0  0  0  0  0  0
   -5.5623   -0.1515    1.8514 H   0  0  0  0  0  0  0  0  0  0  0  0
   -4.2545    1.2734    0.1633 H   0  0  0  0  0  0  0  0  0  0  0  0
   -3.2049    0.6717    1.5349 H   0  0  0  0  0  0  0  0  0  0  0  0
   -2.9701   -1.4345    0.0382 H   0  0  0  0  0  0  0  0  0  0  0  0
   -1.1858    2.1641   -0.2700 H   0  0  0  0  0  0  0  0  0  0  0  0
   -1.2167    1.6871   -1.9896 H   0  0  0  0  0  0  0  0  0  0  0  0
   -2.7728    2.0161   -1.0217 H   0  0  0  0  0  0  0  0  0  0  0  0
    2.0292    0.8078   -2.1233 H   0  0  0  0  0  0  0  0  0  0  0  0
    0.9733    1.8395   -1.0670 H   0  0  0  0  0  0  0  0  0  0  0  0
    3.8236   -0.2029    1.0721 H   0  0  0  0  0  0  0  0  0  0  0  0
    3.6534   -2.1584   -1.2401 H   0  0  0  0  0  0  0  0  0  0  0  0
    3.4013   -0.6250   -2.0603 H   0  0  0  0  0  0  0  0  0  0  0  0
    1.1528   -1.8946   -2.3405 H   0  0  0  0  0  0  0  0  0  0  0  0
    0.1079   -2.7613    0.7847 H   0  0  0  0  0  0  0  0  0  0  0  0
    0.4040   -4.6202    2.2499 H   0  0  0  0  0  0  0  0  0  0  0  0
    2.7020   -5.2359    2.9478 H   0  0  0  0  0  0  0  0  0  0  0  0
    4.5719   -3.9606    2.1509 H   0  0  0  0  0  0  0  0  0  0  0  0
    4.2976   -2.1037    0.6899 H   0  0  0  0  0  0  0  0  0  0  0  0
    4.7843    1.4788    1.6933 H   0  0  0  0  0  0  0  0  0  0  0  0
    5.2820    5.6356    1.4414 H   0  0  0  0  0  0  0  0  0  0  0  0
    3.4903    5.7562   -0.2143 H   0  0  0  0  0  0  0  0  0  0  0  0
  1  2  1  0
  1  3  1  0
  3  4  1  0
  4  5  1  0
  4  6  1  0
  6  7  1  0
  7  8  1  0
  8  9  1  0
  9 10  1  0
  9 11  1  0
 11 12  2  0
 11 13  1  0
 13 14  1  0
 14 15  1  0
 15 16  2  0
 16 17  1  0
 17 18  1  6
 18 19  1  0
 17 20  1  0
 20 21  2  0
 21 22  1  0
 22 23  2  0
 23 24  1  0
 24 25  2  0
 15 26  1  0
 26 27  2  0
 27 28  1  0
 28 29  1  0
 28 30  2  0
 30 31  1  0
 31 32  2  0
 32 33  1  0
  8  1  1  0
 17 13  1  0
 25 20  1  0
 32 26  1  0
  1 34  1  6
  3 35  1  0
  3 36  1  0
  5 37  1  0
  5 38  1  0
  5 39  1  0
  6 40  1  0
  6 41  1  0
  7 42  1  0
  7 43  1  0
  8 44  1  1
 10 45  1  0
 10 46  1  0
 10 47  1  0
 14 48  1  0
 14 49  1  0
 16 50  1  0
 18 51  1  0
 18 52  1  0
 19 53  1  0
 21 54  1  0
 22 55  1  0
 23 56  1  0
 24 57  1  0
 25 58  1  0
 27 59  1  0
 30 60  1  0
 31 61  1  0
M  END
$$$$
