@<TRIPOS>MOLECULE
*****
 38 40 0 0 0
SMALL
GASTEIGER

@<TRIPOS>ATOM
      1 F           5.8936   -1.1167    1.2896 F       1  UNL1       -0.2054
      2 C           4.7263   -1.1971    0.5845 C.ar    1  UNL1        0.1269
      3 C           4.7833   -1.9625   -0.5611 C.ar    1  UNL1       -0.0262
      4 C           3.6355   -2.0782   -1.3106 C.ar    1  UNL1       -0.0556
      5 C           2.4733   -1.4314   -0.8979 C.ar    1  UNL1       -0.0197
      6 C           2.4073   -0.6643    0.2458 C.ar    1  UNL1        0.1241
      7 O           1.2806   -0.0066    0.6931 O.3     1  UNL1       -0.4841
      8 C           0.0137    0.0170    0.0978 C.3     1  UNL1        0.1256
      9 C          -0.9279   -0.6513    1.0874 C.3     1  UNL1       -0.0064
     10 C          -2.3414   -0.6894    0.5577 C.3     1  UNL1       -0.0123
     11 C          -3.3343   -1.3428    1.4942 C.3     1  UNL1        0.0000
     12 N          -3.9170   -1.9838    0.3169 N.3     1  UNL1       -0.3154
     13 C          -2.5793   -1.9469   -0.2690 C.3     1  UNL1        0.0000
     14 C          -0.4341    1.3874   -0.2326 C.ar    1  UNL1       -0.0046
     15 C          -1.0127    1.7169   -1.4356 C.ar    1  UNL1       -0.0535
     16 C          -1.4194    3.0079   -1.7107 C.ar    1  UNL1       -0.0402
     17 C          -1.2530    3.9952   -0.7824 C.ar    1  UNL1        0.0761
     18 CL         -1.7687    5.6341   -1.1302 Cl      1  UNL1       -0.0806
     19 C          -0.6815    3.7028    0.4236 C.ar    1  UNL1        0.1420
     20 F          -0.5209    4.6944    1.3407 F       1  UNL1       -0.2040
     21 C          -0.2771    2.3975    0.6856 C.ar    1  UNL1       -0.0183
     22 C           3.5934   -0.5674    0.9857 C.ar    1  UNL1        0.0153
     23 H           5.6994   -2.4646   -0.8746 H       1  UNL1        0.0646
     24 H           3.6358   -2.6623   -2.2063 H       1  UNL1        0.0620
     25 H           1.6198   -1.5640   -1.5266 H       1  UNL1        0.0654
     26 H           0.0480   -0.5964   -0.8256 H       1  UNL1        0.0784
     27 H          -0.9408   -0.1146    2.0560 H       1  UNL1        0.0308
     28 H          -0.5617   -1.6818    1.2682 H       1  UNL1        0.0308
     29 H          -2.6959    0.2155    0.0669 H       1  UNL1        0.0327
     30 H          -2.8263   -2.0764    2.1576 H       1  UNL1        0.0427
     31 H          -4.0174   -0.6425    2.0093 H       1  UNL1        0.0427
     32 H          -4.5179   -1.2717   -0.1704 H       1  UNL1        0.1220
     33 H          -2.5651   -1.7859   -1.3624 H       1  UNL1        0.0427
     34 H          -1.9241   -2.7530    0.1052 H       1  UNL1        0.0427
     35 H          -1.1685    0.9772   -2.2057 H       1  UNL1        0.0622
     36 H          -1.8694    3.2576   -2.6499 H       1  UNL1        0.0633
     37 H           0.1659    2.2233    1.6488 H       1  UNL1        0.0650
     38 H           3.5784    0.0247    1.8863 H       1  UNL1        0.0683
@<TRIPOS>BOND
     1     1     2    1
     2     2     3   ar
     3     3     4   ar
     4     4     5   ar
     5     5     6   ar
     6     6     7    1
     7     7     8    1
     8     8     9    1
     9     9    10    1
    10    10    11    1
    11    11    12    1
    12    12    13    1
    13     8    14    1
    14    14    15   ar
    15    15    16   ar
    16    16    17   ar
    17    17    18    1
    18    17    19   ar
    19    19    20    1
    20    19    21   ar
    21     6    22   ar
    22    22     2   ar
    23    13    10    1
    24    21    14   ar
    25     3    23    1
    26     4    24    1
    27     5    25    1
    28     8    26    1
    29     9    27    1
    30     9    28    1
    31    10    29    1
    32    11    30    1
    33    11    31    1
    34    12    32    1
    35    13    33    1
    36    13    34    1
    37    15    35    1
    38    16    36    1
    39    21    37    1
    40    22    38    1
