@<TRIPOS>MOLECULE
*****
 53 55 0 0 0
SMALL
GASTEIGER

@<TRIPOS>ATOM
      1 C           8.3634   -0.4773   -2.8172 C.3     1  UNL1       -0.0205
      2 C           7.2188   -0.2440   -1.8663 C.ar    1  UNL1        0.0625
      3 C           7.3189    0.1808   -0.5550 C.ar    1  UNL1        0.0052
      4 C           6.0356    0.2570   -0.0685 C.ar    1  UNL1        0.1556
      5 N           5.5630    0.6151    1.1448 N.ar    1  UNL1       -0.2353
      6 C           4.2148    0.6023    1.3651 C.ar    1  UNL1        0.0435
      7 C           3.3470    0.2343    0.3801 C.ar    1  UNL1        0.0729
      8 C           1.9146    0.2116    0.5831 C.2     1  UNL1        0.2471
      9 O           1.1158   -0.1525   -0.3208 O.2     1  UNL1       -0.2701
     10 N           1.2551    0.5811    1.7757 N.am    1  UNL1       -0.3095
     11 C          -0.0757    0.6063    2.1061 C.3     1  UNL1        0.0297
     12 C          -0.9872   -0.5705    2.1046 C.3     1  UNL1        0.0294
     13 C          -2.3177    0.0416    2.5939 C.3     1  UNL1       -0.0456
     14 C          -0.6569   -1.6153    3.1401 C.3     1  UNL1       -0.0456
     15 N          -1.1710   -1.0739    0.8079 N.3     1  UNL1       -0.3017
     16 C          -2.0079   -0.5057   -0.1469 C.3     1  UNL1        0.0739
     17 C          -3.4546   -0.7250   -0.0101 C.2     1  UNL1        0.2304
     18 O          -3.9155   -1.4459    0.8878 O.2     1  UNL1       -0.2742
     19 N          -4.3272   -0.0973   -0.9243 N.am    1  UNL1       -0.2846
     20 C          -4.0169    0.7820   -2.0396 C.3     1  UNL1        0.0160
     21 C          -5.0102    1.9048   -1.8296 C.3     1  UNL1       -0.0345
     22 C          -6.2564    1.1542   -1.4123 C.3     1  UNL1       -0.0196
     23 C          -5.7704   -0.2167   -0.9262 C.3     1  UNL1        0.1129
     24 C          -6.1992   -1.2101   -1.8830 C.1     1  UNL1        0.0851
     25 N          -6.5257   -2.0062   -2.6608 N.1     1  UNL1       -0.1946
     26 C           3.8539   -0.1260   -0.8465 C.ar    1  UNL1        0.0450
     27 N           5.2077   -0.1076   -1.0509 N.ar    1  UNL1       -0.2208
     28 N           5.9148   -0.4037   -2.1152 N.ar    1  UNL1       -0.1702
     29 H           8.1768    0.0328   -3.7837 H       1  UNL1        0.0293
     30 H           9.3018   -0.0837   -2.4204 H       1  UNL1        0.0293
     31 H           8.3869   -1.5643   -3.0236 H       1  UNL1        0.0293
     32 H           8.2604    0.3967   -0.0605 H       1  UNL1        0.0673
     33 H           3.9176    0.8990    2.3556 H       1  UNL1        0.0838
     34 H           1.9411    0.8951    2.5523 H       1  UNL1        0.1491
     35 H          -0.2144    1.1173    3.0849 H       1  UNL1        0.0480
     36 H          -0.5804    1.3404    1.3917 H       1  UNL1        0.0480
     37 H          -2.9268   -0.6683    3.1598 H       1  UNL1        0.0248
     38 H          -1.9650    0.7476    3.4363 H       1  UNL1        0.0248
     39 H          -2.7826    0.7137    1.8981 H       1  UNL1        0.0248
     40 H           0.4013   -1.5552    3.4787 H       1  UNL1        0.0248
     41 H          -1.2569   -1.5360    4.0721 H       1  UNL1        0.0248
     42 H          -0.9006   -2.6551    2.7695 H       1  UNL1        0.0248
     43 H          -1.1441   -2.1050    0.6941 H       1  UNL1        0.1229
     44 H          -1.7790   -0.9826   -1.1642 H       1  UNL1        0.0520
     45 H          -1.7791    0.5734   -0.3887 H       1  UNL1        0.0520
     46 H          -2.9655    1.1529   -1.9917 H       1  UNL1        0.0465
     47 H          -4.2395    0.2751   -2.9952 H       1  UNL1        0.0465
     48 H          -5.1642    2.5142   -2.7442 H       1  UNL1        0.0281
     49 H          -4.6410    2.5170   -0.9745 H       1  UNL1        0.0281
     50 H          -6.8832    1.0385   -2.3352 H       1  UNL1        0.0294
     51 H          -6.8038    1.6303   -0.5881 H       1  UNL1        0.0294
     52 H          -6.1929   -0.4634    0.0619 H       1  UNL1        0.0659
     53 H           3.2016   -0.4237   -1.6535 H       1  UNL1        0.0839
@<TRIPOS>BOND
     1     1     2    1
     2     2     3   ar
     3     3     4   ar
     4     4     5   ar
     5     5     6   ar
     6     6     7   ar
     7     7     8    1
     8     8     9    2
     9     8    10   am
    10    10    11    1
    11    11    12    1
    12    12    13    1
    13    12    14    1
    14    12    15    1
    15    15    16    1
    16    16    17    1
    17    17    18    2
    18    17    19   am
    19    19    20    1
    20    20    21    1
    21    21    22    1
    22    22    23    1
    23    23    24    1
    24    24    25    3
    25     7    26   ar
    26    26    27   ar
    27    27    28   ar
    28    28     2   ar
    29    27     4   ar
    30    23    19    1
    31     1    29    1
    32     1    30    1
    33     1    31    1
    34     3    32    1
    35     6    33    1
    36    10    34    1
    37    11    35    1
    38    11    36    1
    39    13    37    1
    40    13    38    1
    41    13    39    1
    42    14    40    1
    43    14    41    1
    44    14    42    1
    45    15    43    1
    46    16    44    1
    47    16    45    1
    48    20    46    1
    49    20    47    1
    50    21    48    1
    51    21    49    1
    52    22    50    1
    53    22    51    1
    54    23    52    1
    55    26    53    1
