@<TRIPOS>MOLECULE
*****
 16 16 0 0 0
SMALL
GASTEIGER

@<TRIPOS>ATOM
      1 O           2.6208   -0.1983   -0.8314 O.3     1  UNL1       -0.3904
      2 C           1.9364   -0.0285    0.3737 C.3     1  UNL1        0.0692
      3 C           0.4672    0.0620    0.1517 C.ar    1  UNL1       -0.0222
      4 C          -0.2509   -1.1300    0.1774 C.ar    1  UNL1       -0.0564
      5 C          -1.6167   -1.1226   -0.0206 C.ar    1  UNL1       -0.0614
      6 C          -2.2107    0.1033   -0.2395 C.ar    1  UNL1       -0.0617
      7 C          -1.5609    1.3190   -0.2777 C.ar    1  UNL1       -0.0614
      8 C          -0.1985    1.2604   -0.0746 C.ar    1  UNL1       -0.0564
      9 H           3.4384   -0.7576   -0.6416 H       1  UNL1        0.2098
     10 H           2.2131    0.9151    0.8834 H       1  UNL1        0.0607
     11 H           2.1367   -0.8476    1.0979 H       1  UNL1        0.0607
     12 H           0.2289   -2.0858    0.3504 H       1  UNL1        0.0621
     13 H          -2.2105   -2.0347   -0.0074 H       1  UNL1        0.0618
     14 H          -3.2990    0.1428   -0.4010 H       1  UNL1        0.0618
     15 H          -2.0886    2.2461   -0.4545 H       1  UNL1        0.0618
     16 H           0.3943    2.1564   -0.0862 H       1  UNL1        0.0621
@<TRIPOS>BOND
     1     1     2    1
     2     2     3    1
     3     3     4   ar
     4     4     5   ar
     5     5     6   ar
     6     6     7   ar
     7     7     8   ar
     8     8     3   ar
     9     1     9    1
    10     2    10    1
    11     2    11    1
    12     4    12    1
    13     5    13    1
    14     6    14    1
    15     7    15    1
    16     8    16    1
