
     RDKit          3D

 88 91  0  0  0  0  0  0  0  0999 V2000
   -4.9168    0.9549    0.9306 C   0  0  2  0  0  0  0  0  0  0  0  0
   -4.3381    1.2033    2.2418 C   0  0  0  0  0  0  0  0  0  0  0  0
   -5.3869    2.0668    2.9256 C   0  0  0  0  0  0  0  0  0  0  0  0
   -6.6729    1.8510    2.1610 C   0  0  2  0  0  0  0  0  0  0  0  0
   -7.6732    1.4896    3.0836 O   0  0  0  0  0  0  0  0  0  0  0  0
   -6.3853    0.6677    1.2975 C   0  0  2  0  0  0  0  0  0  0  0  0
   -6.5332   -0.5600    2.1477 C   0  0  0  0  0  0  0  0  0  0  0  0
   -7.2519    0.5943    0.0905 C   0  0  0  0  0  0  0  0  0  0  0  0
   -6.7057   -0.3060   -0.9967 C   0  0  0  0  0  0  0  0  0  0  0  0
   -5.2792    0.0900   -1.2187 C   0  0  2  0  0  0  0  0  0  0  0  0
   -4.6634   -0.4845   -2.4131 C   0  0  0  0  0  0  0  0  0  0  0  0
   -5.4342   -1.1350   -3.3727 C   0  0  0  0  0  0  0  0  0  0  0  0
   -4.8913   -1.6842   -4.5177 C   0  0  0  0  0  0  0  0  0  0  0  0
   -3.5314   -1.5871   -4.7234 C   0  0  0  0  0  0  0  0  0  0  0  0
   -2.8818   -2.1056   -5.8430 O   0  0  0  0  0  0  0  0  0  0  0  0
   -2.7182   -0.9542   -3.8069 C   0  0  0  0  0  0  0  0  0  0  0  0
   -3.3089   -0.4224   -2.6797 C   0  0  0  0  0  0  0  0  0  0  0  0
   -2.6362    0.3024   -1.5347 C   0  0  0  0  0  0  0  0  0  0  0  0
   -3.1179   -0.4099   -0.2885 C   0  0  1  0  0  0  0  0  0  0  0  0
   -2.1131   -0.3845    0.8384 C   0  0  0  0  0  0  0  0  0  0  0  0
   -0.8006   -1.0560    0.4906 C   0  0  0  0  0  0  0  0  0  0  0  0
    0.1751   -1.0166    1.6439 C   0  0  0  0  0  0  0  0  0  0  0  0
    1.4481   -1.7176    1.1741 C   0  0  0  0  0  0  0  0  0  0  0  0
    2.4918   -1.7288    2.2724 C   0  0  0  0  0  0  0  0  0  0  0  0
    2.8673   -0.3281    2.6957 C   0  0  0  0  0  0  0  0  0  0  0  0
    3.4372    0.5014    1.5888 C   0  0  0  0  0  0  0  0  0  0  0  0
    4.6957   -0.1463    1.0443 C   0  0  0  0  0  0  0  0  0  0  0  0
    5.2109    0.7560   -0.0712 C   0  0  0  0  0  0  0  0  0  0  0  0
    6.7135    0.0816   -0.7950 S   0  0  0  0  0  0  0  0  0  0  0  0
    6.4641   -1.2697   -1.4254 O   0  0  0  0  0  0  0  0  0  0  0  0
    7.9245   -0.0203    0.5367 C   0  0  0  0  0  0  0  0  0  0  0  0
    9.2214   -0.5686    0.0584 C   0  0  0  0  0  0  0  0  0  0  0  0
    9.9013    0.1899   -1.0263 C   0  0  0  0  0  0  0  0  0  0  0  0
   10.2292    1.5856   -0.6232 C   0  0  0  0  0  0  0  0  0  0  0  0
    9.1687    2.3711   -0.2823 F   0  0  0  0  0  0  0  0  0  0  0  0
   11.1216    1.6033    0.4487 F   0  0  0  0  0  0  0  0  0  0  0  0
   11.0061    2.2158   -1.7883 C   0  0  0  0  0  0  0  0  0  0  0  0
   12.1477    1.4759   -1.9989 F   0  0  0  0  0  0  0  0  0  0  0  0
   11.3073    3.5222   -1.5304 F   0  0  0  0  0  0  0  0  0  0  0  0
   10.2004    2.1626   -2.9316 F   0  0  0  0  0  0  0  0  0  0  0  0
   -4.5150   -0.1627    0.0727 C   0  0  1  0  0  0  0  0  0  0  0  0
   -4.9469    1.8948    0.3610 H   0  0  0  0  0  0  0  0  0  0  0  0
   -3.4205    1.8630    2.2688 H   0  0  0  0  0  0  0  0  0  0  0  0
   -4.2182    0.3279    2.9044 H   0  0  0  0  0  0  0  0  0  0  0  0
   -5.1666    3.1478    2.8500 H   0  0  0  0  0  0  0  0  0  0  0  0
   -5.5125    1.8132    3.9988 H   0  0  0  0  0  0  0  0  0  0  0  0
   -6.9900    2.7360    1.5758 H   0  0  0  0  0  0  0  0  0  0  0  0
   -8.5887    1.6535    2.7370 H   0  0  0  0  0  0  0  0  0  0  0  0
   -7.2036   -1.3375    1.6922 H   0  0  0  0  0  0  0  0  0  0  0  0
   -5.6129   -1.0759    2.4104 H   0  0  0  0  0  0  0  0  0  0  0  0
   -7.0363   -0.3368    3.1342 H   0  0  0  0  0  0  0  0  0  0  0  0
   -7.4520    1.5915   -0.3715 H   0  0  0  0  0  0  0  0  0  0  0  0
   -8.2188    0.1515    0.3943 H   0  0  0  0  0  0  0  0  0  0  0  0
   -6.7713   -1.3642   -0.6843 H   0  0  0  0  0  0  0  0  0  0  0  0
   -7.3400   -0.1035   -1.8922 H   0  0  0  0  0  0  0  0  0  0  0  0
   -5.3239    1.2036   -1.4284 H   0  0  0  0  0  0  0  0  0  0  0  0
   -6.5017   -1.2654   -3.3068 H   0  0  0  0  0  0  0  0  0  0  0  0
   -5.4807   -2.1930   -5.2721 H   0  0  0  0  0  0  0  0  0  0  0  0
   -3.4761   -2.3246   -6.6533 H   0  0  0  0  0  0  0  0  0  0  0  0
   -1.6458   -0.8078   -3.8428 H   0  0  0  0  0  0  0  0  0  0  0  0
   -1.5571    0.3254   -1.6348 H   0  0  0  0  0  0  0  0  0  0  0  0
   -3.0897    1.3349   -1.5383 H   0  0  0  0  0  0  0  0  0  0  0  0
   -3.0806   -1.5067   -0.6055 H   0  0  0  0  0  0  0  0  0  0  0  0
   -2.4683   -0.8420    1.7537 H   0  0  0  0  0  0  0  0  0  0  0  0
   -1.8374    0.7094    0.9390 H   0  0  0  0  0  0  0  0  0  0  0  0
   -0.9497   -2.1412    0.2438 H   0  0  0  0  0  0  0  0  0  0  0  0
   -0.3110   -0.5900   -0.3626 H   0  0  0  0  0  0  0  0  0  0  0  0
   -0.2380   -1.6271    2.4713 H   0  0  0  0  0  0  0  0  0  0  0  0
    0.3712   -0.0119    2.0113 H   0  0  0  0  0  0  0  0  0  0  0  0
    1.2473   -2.7844    0.9467 H   0  0  0  0  0  0  0  0  0  0  0  0
    1.8482   -1.2746    0.2404 H   0  0  0  0  0  0  0  0  0  0  0  0
    2.0745   -2.2676    3.1284 H   0  0  0  0  0  0  0  0  0  0  0  0
    3.3615   -2.2937    1.8874 H   0  0  0  0  0  0  0  0  0  0  0  0
    3.6798   -0.4246    3.4621 H   0  0  0  0  0  0  0  0  0  0  0  0
    2.0232    0.1533    3.1931 H   0  0  0  0  0  0  0  0  0  0  0  0
    2.7559    0.6619    0.7511 H   0  0  0  0  0  0  0  0  0  0  0  0
    3.6529    1.5005    2.0169 H   0  0  0  0  0  0  0  0  0  0  0  0
    5.4453   -0.2728    1.8471 H   0  0  0  0  0  0  0  0  0  0  0  0
    4.4869   -1.1523    0.6294 H   0  0  0  0  0  0  0  0  0  0  0  0
    5.4699    1.7490    0.3544 H   0  0  0  0  0  0  0  0  0  0  0  0
    4.4001    0.9018   -0.7973 H   0  0  0  0  0  0  0  0  0  0  0  0
    8.0169    0.9598    1.0121 H   0  0  0  0  0  0  0  0  0  0  0  0
    7.5405   -0.7588    1.3017 H   0  0  0  0  0  0  0  0  0  0  0  0
    9.0228   -1.6253   -0.2901 H   0  0  0  0  0  0  0  0  0  0  0  0
    9.9100   -0.5994    0.9523 H   0  0  0  0  0  0  0  0  0  0  0  0
   10.8532   -0.3707   -1.2526 H   0  0  0  0  0  0  0  0  0  0  0  0
    9.2796    0.1530   -1.9619 H   0  0  0  0  0  0  0  0  0  0  0  0
   -4.9781   -1.1176    0.4726 H   0  0  0  0  0  0  0  0  0  0  0  0
  1  2  1  0
  2  3  1  0
  3  4  1  0
  4  5  1  0
  4  6  1  0
  6  7  1  1
  6  8  1  0
  8  9  1  0
  9 10  1  0
 10 11  1  0
 11 12  2  0
 12 13  1  0
 13 14  2  0
 14 15  1  0
 14 16  1  0
 16 17  2  0
 17 18  1  0
 18 19  1  0
 19 20  1  0
 20 21  1  0
 21 22  1  0
 22 23  1  0
 23 24  1  0
 24 25  1  0
 25 26  1  0
 26 27  1  0
 27 28  1  0
 28 29  1  0
 29 30  2  0
 29 31  1  0
 31 32  1  0
 32 33  1  0
 33 34  1  0
 34 35  1  0
 34 36  1  0
 34 37  1  0
 37 38  1  0
 37 39  1  0
 37 40  1  0
 19 41  1  0
  6  1  1  0
 41 10  1  0
 41  1  1  0
 17 11  1  0
  1 42  1  6
  2 43  1  0
  2 44  1  0
  3 45  1  0
  3 46  1  0
  4 47  1  6
  5 48  1  0
  7 49  1  0
  7 50  1  0
  7 51  1  0
  8 52  1  0
  8 53  1  0
  9 54  1  0
  9 55  1  0
 10 56  1  6
 12 57  1  0
 13 58  1  0
 15 59  1  0
 16 60  1  0
 18 61  1  0
 18 62  1  0
 19 63  1  6
 20 64  1  0
 20 65  1  0
 21 66  1  0
 21 67  1  0
 22 68  1  0
 22 69  1  0
 23 70  1  0
 23 71  1  0
 24 72  1  0
 24 73  1  0
 25 74  1  0
 25 75  1  0
 26 76  1  0
 26 77  1  0
 27 78  1  0
 27 79  1  0
 28 80  1  0
 28 81  1  0
 31 82  1  0
 31 83  1  0
 32 84  1  0
 32 85  1  0
 33 86  1  0
 33 87  1  0
 41 88  1  1
M  END
$$$$
