@<TRIPOS>MOLECULE
*****
 57 61 0 0 0
SMALL
GASTEIGER

@<TRIPOS>ATOM
      1 N           8.2059   -5.8717    0.5542 N.1     1  UNL1       -0.1908
      2 C           7.4475   -5.1227    0.0717 C.1     1  UNL1        0.1007
      3 C           6.5088   -4.1830   -0.5035 C.ar    1  UNL1        0.0699
      4 C           5.9896   -3.1461    0.2366 C.ar    1  UNL1       -0.0396
      5 C           5.1114   -2.2594   -0.3199 C.ar    1  UNL1       -0.0207
      6 C           4.7057   -2.3487   -1.6149 C.ar    1  UNL1        0.1190
      7 N           3.7969   -1.4887   -2.2691 N.pl3   1  UNL1       -0.3247
      8 C           3.0865   -0.3753   -1.7924 C.3     1  UNL1        0.0392
      9 C           3.9918    0.7137   -1.3001 C.3     1  UNL1       -0.0171
     10 C           3.2552    1.2952   -0.1252 C.3     1  UNL1        0.0196
     11 N           1.9412    0.7607   -0.2085 N.am    1  UNL1       -0.2656
     12 C           0.7343    1.4295    0.0776 C.2     1  UNL1        0.4032
     13 O           0.7828    2.6419    0.4057 O.2     1  UNL1       -0.2262
     14 O          -0.5064    0.8223    0.0172 O.3     1  UNL1       -0.4464
     15 C          -1.6867    1.5421    0.3043 C.3     1  UNL1        0.1103
     16 C          -2.7292    1.4233   -0.7485 C.3     1  UNL1       -0.0023
     17 C          -3.1616   -0.0449   -0.8925 C.3     1  UNL1       -0.0439
     18 C          -3.7634   -0.5015    0.4095 C.3     1  UNL1       -0.0394
     19 C          -2.7150   -0.4149    1.4758 C.3     1  UNL1       -0.0439
     20 C          -2.2923    1.0353    1.6132 C.3     1  UNL1       -0.0023
     21 C          -3.4860    1.8351    1.9855 C.3     1  UNL1       -0.0328
     22 C          -4.5593    1.7662    0.9111 C.3     1  UNL1        0.0477
     23 C          -5.6911    2.6229    1.2717 C.2     1  UNL1        0.2167
     24 N          -6.3910    2.3892    2.4801 N.am    1  UNL1       -0.3289
     25 O          -6.0404    3.5587    0.5190 O.2     1  UNL1       -0.2754
     26 C          -4.9750    0.3336    0.7357 C.3     1  UNL1       -0.0362
     27 C          -3.9179    2.2762   -0.3648 C.3     1  UNL1       -0.0328
     28 C           2.0858   -0.6112   -0.6804 C.3     1  UNL1        0.0362
     29 N           5.2453   -3.4026   -2.3341 N.ar    1  UNL1       -0.2392
     30 C           6.0976   -4.2675   -1.8057 C.ar    1  UNL1        0.0470
     31 H           6.3139   -3.0774    1.2726 H       1  UNL1        0.0632
     32 H           4.7454   -1.4750    0.3115 H       1  UNL1        0.0652
     33 H           3.6224   -1.7378   -3.3071 H       1  UNL1        0.1478
     34 H           2.4573    0.0757   -2.6503 H       1  UNL1        0.0514
     35 H           5.0227    0.3812   -1.0555 H       1  UNL1        0.0299
     36 H           4.0193    1.5285   -2.0738 H       1  UNL1        0.0299
     37 H           3.2686    2.4168   -0.1367 H       1  UNL1        0.0466
     38 H           3.7074    0.9104    0.8268 H       1  UNL1        0.0466
     39 H          -1.4233    2.5876    0.4887 H       1  UNL1        0.0740
     40 H          -2.4264    1.7440   -1.7577 H       1  UNL1        0.0337
     41 H          -3.8586   -0.1363   -1.7294 H       1  UNL1        0.0272
     42 H          -2.2050   -0.6148   -1.0499 H       1  UNL1        0.0272
     43 H          -4.1066   -1.5647    0.2836 H       1  UNL1        0.0301
     44 H          -3.0553   -0.7468    2.4725 H       1  UNL1        0.0272
     45 H          -1.8505   -1.0363    1.2004 H       1  UNL1        0.0272
     46 H          -1.5296    1.0899    2.4417 H       1  UNL1        0.0337
     47 H          -3.2961    2.8654    2.2981 H       1  UNL1        0.0279
     48 H          -3.9591    1.3212    2.8768 H       1  UNL1        0.0279
     49 H          -6.9945    1.5527    2.6245 H       1  UNL1        0.1449
     50 H          -6.3039    3.0727    3.2740 H       1  UNL1        0.1449
     51 H          -5.4169   -0.0559    1.6866 H       1  UNL1        0.0278
     52 H          -5.7015    0.2393   -0.1047 H       1  UNL1        0.0278
     53 H          -4.6658    2.2644   -1.1826 H       1  UNL1        0.0279
     54 H          -3.5479    3.3120   -0.2250 H       1  UNL1        0.0279
     55 H           2.4853   -1.2421    0.1110 H       1  UNL1        0.0484
     56 H           1.1261   -0.9971   -1.0870 H       1  UNL1        0.0484
     57 H           6.5021   -5.0852   -2.4058 H       1  UNL1        0.0843
@<TRIPOS>BOND
     1     1     2    3
     2     2     3    1
     3     3     4   ar
     4     4     5   ar
     5     5     6   ar
     6     6     7    1
     7     7     8    1
     8     8     9    1
     9     9    10    1
    10    10    11    1
    11    11    12   am
    12    12    13    2
    13    12    14    1
    14    14    15    1
    15    15    16    1
    16    16    17    1
    17    17    18    1
    18    18    19    1
    19    19    20    1
    20    20    21    1
    21    21    22    1
    22    22    23    1
    23    23    24   am
    24    23    25    2
    25    22    26    1
    26    22    27    1
    27    11    28    1
    28     6    29   ar
    29    29    30   ar
    30    30     3   ar
    31    28     8    1
    32    20    15    1
    33    27    16    1
    34    26    18    1
    35     4    31    1
    36     5    32    1
    37     7    33    1
    38     8    34    1
    39     9    35    1
    40     9    36    1
    41    10    37    1
    42    10    38    1
    43    15    39    1
    44    16    40    1
    45    17    41    1
    46    17    42    1
    47    18    43    1
    48    19    44    1
    49    19    45    1
    50    20    46    1
    51    21    47    1
    52    21    48    1
    53    24    49    1
    54    24    50    1
    55    26    51    1
    56    26    52    1
    57    27    53    1
    58    27    54    1
    59    28    55    1
    60    28    56    1
    61    30    57    1
