
     RDKit          3D

 56 61  0  0  0  0  0  0  0  0999 V2000
    6.0845    3.4189    1.5591 C   0  0  0  0  0  0  0  0  0  0  0  0
    6.1298    2.9425    0.2325 O   0  0  0  0  0  0  0  0  0  0  0  0
    5.2191    2.0018   -0.1909 C   0  0  0  0  0  0  0  0  0  0  0  0
    4.2726    1.5330    0.6796 C   0  0  0  0  0  0  0  0  0  0  0  0
    3.3510    0.5917    0.2790 C   0  0  0  0  0  0  0  0  0  0  0  0
    3.3889    0.1243   -1.0077 C   0  0  0  0  0  0  0  0  0  0  0  0
    2.6215   -0.8022   -1.7087 C   0  0  0  0  0  0  0  0  0  0  0  0
    1.5163   -1.5555   -1.2236 N   0  0  0  0  0  0  0  0  0  0  0  0
    0.2159   -1.3235   -1.3092 C   0  0  0  0  0  0  0  0  0  0  0  0
   -0.3176   -0.3240   -1.8774 O   0  0  0  0  0  0  0  0  0  0  0  0
   -0.5125   -2.3201   -0.6932 N   0  0  0  0  0  0  0  0  0  0  0  0
   -1.9538   -2.3737   -0.6842 C   0  0  0  0  0  0  0  0  0  0  0  0
   -2.6189   -1.4258    0.2383 C   0  0  0  0  0  0  0  0  0  0  0  0
   -3.1222   -0.2276   -0.3354 C   0  0  0  0  0  0  0  0  0  0  0  0
   -3.7418    0.7527    0.3861 C   0  0  0  0  0  0  0  0  0  0  0  0
   -4.2689    1.9996   -0.1744 C   0  0  1  0  0  0  0  0  0  0  0  0
   -3.3759    3.1895    0.0902 C   0  0  0  0  0  0  0  0  0  0  0  0
   -4.4749    1.9435   -1.5639 O   0  0  0  0  0  0  0  0  0  0  0  0
   -5.4688    2.8652   -1.8543 C   0  0  0  0  0  0  0  0  0  0  0  0
   -5.7413    3.4613   -3.1005 O   0  0  0  0  0  0  0  0  0  0  0  0
   -6.1575    3.1321   -0.7942 N   0  0  0  0  0  0  0  0  0  0  0  0
   -5.6261    2.3634    0.2993 C   0  0  0  0  0  0  0  0  0  0  0  0
   -6.2561    2.1302    1.3399 O   0  0  0  0  0  0  0  0  0  0  0  0
   -3.8672    0.5327    1.7392 C   0  0  0  0  0  0  0  0  0  0  0  0
   -3.3908   -0.6168    2.3227 C   0  0  0  0  0  0  0  0  0  0  0  0
   -2.7549   -1.6194    1.5695 C   0  0  0  0  0  0  0  0  0  0  0  0
   -2.2090   -3.0637    2.4218 Cl  0  0  0  0  0  0  0  0  0  0  0  0
    0.3595   -3.2117   -0.2058 C   0  0  0  0  0  0  0  0  0  0  0  0
    0.2254   -4.4104    0.4704 C   0  0  0  0  0  0  0  0  0  0  0  0
    1.3493   -5.1160    0.8145 C   0  0  0  0  0  0  0  0  0  0  0  0
    2.6225   -4.6648    0.5037 C   0  0  0  0  0  0  0  0  0  0  0  0
    2.7214   -3.4681   -0.1732 C   0  0  0  0  0  0  0  0  0  0  0  0
    1.6147   -2.7319   -0.5362 C   0  0  0  0  0  0  0  0  0  0  0  0
    3.1533   -0.8278   -2.9420 N   0  0  0  0  0  0  0  0  0  0  0  0
    4.1525   -0.0088   -3.0264 O   0  0  0  0  0  0  0  0  0  0  0  0
    4.3424    0.5996   -1.8767 C   0  0  0  0  0  0  0  0  0  0  0  0
    5.2704    1.5434   -1.4840 C   0  0  0  0  0  0  0  0  0  0  0  0
    6.3039    2.5840    2.2663 H   0  0  0  0  0  0  0  0  0  0  0  0
    6.8370    4.2120    1.6727 H   0  0  0  0  0  0  0  0  0  0  0  0
    5.0749    3.8576    1.7683 H   0  0  0  0  0  0  0  0  0  0  0  0
    4.2336    1.9005    1.7112 H   0  0  0  0  0  0  0  0  0  0  0  0
    2.5883    0.2102    0.9721 H   0  0  0  0  0  0  0  0  0  0  0  0
   -2.3754   -2.2599   -1.7213 H   0  0  0  0  0  0  0  0  0  0  0  0
   -2.2998   -3.4146   -0.3958 H   0  0  0  0  0  0  0  0  0  0  0  0
   -3.0134   -0.0738   -1.4036 H   0  0  0  0  0  0  0  0  0  0  0  0
   -2.8989    3.1740    1.0665 H   0  0  0  0  0  0  0  0  0  0  0  0
   -2.6529    3.2363   -0.7530 H   0  0  0  0  0  0  0  0  0  0  0  0
   -4.0010    4.1180    0.0285 H   0  0  0  0  0  0  0  0  0  0  0  0
   -6.3945    4.2386   -3.1889 H   0  0  0  0  0  0  0  0  0  0  0  0
   -4.3540    1.2833    2.3740 H   0  0  0  0  0  0  0  0  0  0  0  0
   -3.4787   -0.8113    3.3891 H   0  0  0  0  0  0  0  0  0  0  0  0
   -0.7805   -4.8004    0.7020 H   0  0  0  0  0  0  0  0  0  0  0  0
    1.2168   -6.0551    1.3463 H   0  0  0  0  0  0  0  0  0  0  0  0
    3.5109   -5.2260    0.7796 H   0  0  0  0  0  0  0  0  0  0  0  0
    3.7176   -3.1068   -0.4216 H   0  0  0  0  0  0  0  0  0  0  0  0
    6.0131    1.8997   -2.1981 H   0  0  0  0  0  0  0  0  0  0  0  0
  1  2  1  0
  2  3  1  0
  3  4  2  0
  4  5  1  0
  5  6  2  0
  6  7  1  0
  7  8  1  0
  8  9  1  0
  9 10  2  0
  9 11  1  0
 11 12  1  0
 12 13  1  0
 13 14  2  0
 14 15  1  0
 15 16  1  0
 16 17  1  6
 16 18  1  0
 18 19  1  0
 19 20  1  0
 19 21  2  0
 21 22  1  0
 22 23  2  0
 15 24  2  0
 24 25  1  0
 25 26  2  0
 26 27  1  0
 11 28  1  0
 28 29  2  0
 29 30  1  0
 30 31  2  0
 31 32  1  0
 32 33  2  0
  7 34  2  0
 34 35  1  0
 35 36  1  0
 36 37  2  0
 37  3  1  0
 36  6  1  0
 33  8  1  0
 26 13  1  0
 33 28  1  0
 22 16  1  0
  1 38  1  0
  1 39  1  0
  1 40  1  0
  4 41  1  0
  5 42  1  0
 12 43  1  0
 12 44  1  0
 14 45  1  0
 17 46  1  0
 17 47  1  0
 17 48  1  0
 20 49  1  0
 24 50  1  0
 25 51  1  0
 29 52  1  0
 30 53  1  0
 31 54  1  0
 32 55  1  0
 37 56  1  0
M  END
$$$$
