@<TRIPOS>MOLECULE
*****
 56 61 0 0 0
SMALL
GASTEIGER

@<TRIPOS>ATOM
      1 C           6.0845    3.4189    1.5591 C.3     1  UNL1        0.0788
      2 O           6.1298    2.9425    0.2325 O.3     1  UNL1       -0.4950
      3 C           5.2191    2.0018   -0.1909 C.ar    1  UNL1        0.1237
      4 C           4.2726    1.5330    0.6796 C.ar    1  UNL1       -0.0190
      5 C           3.3510    0.5917    0.2790 C.ar    1  UNL1       -0.0439
      6 C           3.3889    0.1243   -1.0077 C.ar    1  UNL1        0.0662
      7 C           2.6215   -0.8022   -1.7087 C.ar    1  UNL1        0.1922
      8 N           1.5163   -1.5555   -1.2236 N.ar    1  UNL1       -0.2413
      9 C           0.2159   -1.3235   -1.3092 C.ar    1  UNL1        0.3362
     10 O          -0.3176   -0.3240   -1.8774 O.2     1  UNL1       -0.2459
     11 N          -0.5125   -2.3201   -0.6932 N.ar    1  UNL1       -0.2873
     12 C          -1.9538   -2.3737   -0.6842 C.3     1  UNL1        0.0545
     13 C          -2.6189   -1.4258    0.2383 C.ar    1  UNL1       -0.0089
     14 C          -3.1222   -0.2276   -0.3354 C.ar    1  UNL1       -0.0480
     15 C          -3.7418    0.7527    0.3861 C.ar    1  UNL1        0.0050
     16 C          -4.2689    1.9996   -0.1744 C.3     1  UNL1        0.2142
     17 C          -3.3759    3.1895    0.0902 C.3     1  UNL1       -0.0116
     18 O          -4.4749    1.9435   -1.5639 O.2     1  UNL1       -0.4308
     19 C          -5.4688    2.8652   -1.8543 C.2     1  UNL1        0.3808
     20 O          -5.7413    3.4613   -3.1005 O.2     1  UNL1       -0.4673
     21 N          -6.1575    3.1321   -0.7942 N.am    1  UNL1       -0.1074
     22 C          -5.6261    2.3634    0.2993 C.2     1  UNL1        0.2899
     23 O          -6.2561    2.1302    1.3399 O.2     1  UNL1       -0.2687
     24 C          -3.8672    0.5327    1.7392 C.ar    1  UNL1       -0.0529
     25 C          -3.3908   -0.6168    2.3227 C.ar    1  UNL1       -0.0427
     26 C          -2.7549   -1.6194    1.5695 C.ar    1  UNL1        0.0459
     27 CL         -2.2090   -3.0637    2.4218 Cl      1  UNL1       -0.0832
     28 C           0.3595   -3.2117   -0.2058 C.ar    1  UNL1        0.0706
     29 C           0.2254   -4.4104    0.4704 C.ar    1  UNL1       -0.0360
     30 C           1.3493   -5.1160    0.8145 C.ar    1  UNL1       -0.0597
     31 C           2.6225   -4.6648    0.5037 C.ar    1  UNL1       -0.0597
     32 C           2.7214   -3.4681   -0.1732 C.ar    1  UNL1       -0.0356
     33 C           1.6147   -2.7319   -0.5362 C.ar    1  UNL1        0.0765
     34 N           3.1533   -0.8278   -2.9420 N.ar    1  UNL1       -0.0587
     35 O           4.1525   -0.0088   -3.0264 O.2     1  UNL1       -0.3525
     36 C           4.3424    0.5996   -1.8767 C.ar    1  UNL1        0.1728
     37 C           5.2704    1.5434   -1.4840 C.ar    1  UNL1        0.0257
     38 H           6.3039    2.5840    2.2663 H       1  UNL1        0.0660
     39 H           6.8370    4.2120    1.6727 H       1  UNL1        0.0660
     40 H           5.0749    3.8576    1.7683 H       1  UNL1        0.0660
     41 H           4.2336    1.9005    1.7112 H       1  UNL1        0.0654
     42 H           2.5883    0.2102    0.9721 H       1  UNL1        0.0627
     43 H          -2.3754   -2.2599   -1.7213 H       1  UNL1        0.0543
     44 H          -2.2998   -3.4146   -0.3958 H       1  UNL1        0.0543
     45 H          -3.0134   -0.0738   -1.4036 H       1  UNL1        0.0625
     46 H          -2.8989    3.1740    1.0665 H       1  UNL1        0.0276
     47 H          -2.6529    3.2363   -0.7530 H       1  UNL1        0.0276
     48 H          -4.0010    4.1180    0.0285 H       1  UNL1        0.0276
     49 H          -6.3945    4.2386   -3.1889 H       1  UNL1        0.2967
     50 H          -4.3540    1.2833    2.3740 H       1  UNL1        0.0622
     51 H          -3.4787   -0.8113    3.3891 H       1  UNL1        0.0632
     52 H          -0.7805   -4.8004    0.7020 H       1  UNL1        0.0639
     53 H           1.2168   -6.0551    1.3463 H       1  UNL1        0.0618
     54 H           3.5109   -5.2260    0.7796 H       1  UNL1        0.0618
     55 H           3.7176   -3.1068   -0.4216 H       1  UNL1        0.0639
     56 H           6.0131    1.8997   -2.1981 H       1  UNL1        0.0692
@<TRIPOS>BOND
     1     1     2    1
     2     2     3    1
     3     3     4   ar
     4     4     5   ar
     5     5     6   ar
     6     6     7   ar
     7     7     8    1
     8     8     9   ar
     9     9    10    2
    10     9    11   ar
    11    11    12    1
    12    12    13    1
    13    13    14   ar
    14    14    15   ar
    15    15    16    1
    16    16    17    1
    17    16    18    1
    18    18    19    1
    19    19    20    1
    20    19    21    2
    21    21    22    1
    22    22    23    2
    23    15    24   ar
    24    24    25   ar
    25    25    26   ar
    26    26    27    1
    27    11    28   ar
    28    28    29   ar
    29    29    30   ar
    30    30    31   ar
    31    31    32   ar
    32    32    33   ar
    33     7    34   ar
    34    34    35   ar
    35    35    36   ar
    36    36    37   ar
    37    37     3   ar
    38    36     6   ar
    39    33     8   ar
    40    26    13   ar
    41    33    28   ar
    42    22    16    1
    43     1    38    1
    44     1    39    1
    45     1    40    1
    46     4    41    1
    47     5    42    1
    48    12    43    1
    49    12    44    1
    50    14    45    1
    51    17    46    1
    52    17    47    1
    53    17    48    1
    54    20    49    1
    55    24    50    1
    56    25    51    1
    57    29    52    1
    58    30    53    1
    59    31    54    1
    60    32    55    1
    61    37    56    1
