@<TRIPOS>MOLECULE
*****
 60 63 0 0 0
SMALL
GASTEIGER

@<TRIPOS>ATOM
      1 C          -7.3527    3.8552   -2.1327 C.3     1  UNL1        0.0788
      2 O          -5.9451    3.7252   -2.1311 O.3     1  UNL1       -0.4951
      3 C          -5.3521    2.7152   -1.3605 C.ar    1  UNL1        0.1201
      4 C          -3.9709    2.6273   -1.3920 C.ar    1  UNL1       -0.0193
      5 C          -3.3310    1.6550   -0.6551 C.ar    1  UNL1       -0.0475
      6 C          -4.0105    0.7497    0.1255 C.ar    1  UNL1        0.0226
      7 C          -3.3633   -0.2759    0.9046 C.2     1  UNL1        0.1955
      8 O          -3.9851   -0.6868    1.9603 O.2     1  UNL1       -0.2866
      9 C          -2.0861   -0.9156    0.6637 C.ar    1  UNL1        0.0520
     10 C          -1.2406   -1.3995    1.6698 C.ar    1  UNL1        0.0293
     11 C          -1.5181   -1.3012    3.1450 C.3     1  UNL1       -0.0235
     12 N          -0.1889   -1.9433    1.0628 N.ar    1  UNL1       -0.3243
     13 C           0.9526   -2.5608    1.7207 C.3     1  UNL1        0.0500
     14 C           2.0289   -1.5777    1.9859 C.ar    1  UNL1       -0.0243
     15 C           2.0989   -0.9141    3.1902 C.ar    1  UNL1       -0.0566
     16 C           3.1021    0.0173    3.4500 C.ar    1  UNL1       -0.0580
     17 C           4.0578    0.2992    2.4980 C.ar    1  UNL1       -0.0199
     18 C           4.0162   -0.3418    1.2938 C.ar    1  UNL1        0.1220
     19 O           4.9455   -0.0915    0.3217 O.3     1  UNL1       -0.4779
     20 C           6.0208    0.7819    0.3513 C.3     1  UNL1        0.1931
     21 C           7.3414    0.0531    0.0899 C.3     1  UNL1       -0.0172
     22 C           5.8756    1.7922   -0.7556 C.2     1  UNL1        0.3456
     23 O           6.7488    2.6850   -0.9129 O.2     1  UNL1       -0.2468
     24 O           4.7940    1.7461   -1.5969 O.3     1  UNL1       -0.4781
     25 C           3.0006   -1.2696    1.0608 C.ar    1  UNL1       -0.0150
     26 C          -0.2822   -1.8538   -0.2821 C.ar    1  UNL1        0.1422
     27 N           0.5136   -2.2669   -1.2974 N.ar    1  UNL1       -0.2342
     28 C           0.2032   -2.0837   -2.5865 C.ar    1  UNL1        0.0406
     29 C           1.1079   -2.5521   -3.6927 C.3     1  UNL1       -0.0223
     30 C          -0.9755   -1.4488   -2.8940 C.ar    1  UNL1       -0.0399
     31 C          -1.8109   -1.0141   -1.8671 C.ar    1  UNL1       -0.0487
     32 C          -1.4722   -1.2102   -0.5444 C.ar    1  UNL1        0.0300
     33 C          -5.3896    0.8715    0.1295 C.ar    1  UNL1       -0.0475
     34 C          -6.0495    1.8289   -0.5940 C.ar    1  UNL1       -0.0193
     35 H          -7.7289    4.2079   -1.1422 H       1  UNL1        0.0660
     36 H          -7.6703    4.5764   -2.9190 H       1  UNL1        0.0660
     37 H          -7.7553    2.8395   -2.3519 H       1  UNL1        0.0660
     38 H          -3.3493    3.2999   -1.9797 H       1  UNL1        0.0654
     39 H          -2.2416    1.5745   -0.6671 H       1  UNL1        0.0626
     40 H          -2.4994   -1.8053    3.3255 H       1  UNL1        0.0292
     41 H          -1.5231   -0.2719    3.5025 H       1  UNL1        0.0292
     42 H          -0.7873   -1.9606    3.6949 H       1  UNL1        0.0292
     43 H           0.5845   -3.0425    2.6495 H       1  UNL1        0.0542
     44 H           1.3117   -3.4128    1.0760 H       1  UNL1        0.0542
     45 H           1.3967   -1.0723    3.9910 H       1  UNL1        0.0621
     46 H           3.1480    0.5354    4.4037 H       1  UNL1        0.0619
     47 H           4.8297    1.0234    2.7124 H       1  UNL1        0.0654
     48 H           6.1765    1.3584    1.2607 H       1  UNL1        0.0849
     49 H           8.1106    0.2897    0.8330 H       1  UNL1        0.0271
     50 H           7.7492    0.3175   -0.9033 H       1  UNL1        0.0271
     51 H           7.1884   -1.0488    0.1035 H       1  UNL1        0.0271
     52 H           4.7412    2.4525   -2.3405 H       1  UNL1        0.2952
     53 H           3.0023   -1.7598    0.0879 H       1  UNL1        0.0657
     54 H           1.9528   -1.8636   -3.8301 H       1  UNL1        0.0292
     55 H           0.4909   -2.6222   -4.6135 H       1  UNL1        0.0292
     56 H           1.4924   -3.5747   -3.5054 H       1  UNL1        0.0292
     57 H          -1.2185   -1.3060   -3.9302 H       1  UNL1        0.0636
     58 H          -2.7399   -0.5419   -2.1174 H       1  UNL1        0.0625
     59 H          -6.0115    0.1998    0.7181 H       1  UNL1        0.0626
     60 H          -7.1336    1.9122   -0.5805 H       1  UNL1        0.0654
@<TRIPOS>BOND
     1     1     2    1
     2     2     3    1
     3     3     4   ar
     4     4     5   ar
     5     5     6   ar
     6     6     7    1
     7     7     8    2
     8     7     9    1
     9     9    10   ar
    10    10    11    1
    11    10    12   ar
    12    12    13    1
    13    13    14    1
    14    14    15   ar
    15    15    16   ar
    16    16    17   ar
    17    17    18   ar
    18    18    19    1
    19    19    20    1
    20    20    21    1
    21    20    22    1
    22    22    23    2
    23    22    24    1
    24    18    25   ar
    25    12    26   ar
    26    26    27   ar
    27    27    28   ar
    28    28    29    1
    29    28    30   ar
    30    30    31   ar
    31    31    32   ar
    32     6    33   ar
    33    33    34   ar
    34    34     3   ar
    35    32     9   ar
    36    25    14   ar
    37    32    26   ar
    38     1    35    1
    39     1    36    1
    40     1    37    1
    41     4    38    1
    42     5    39    1
    43    11    40    1
    44    11    41    1
    45    11    42    1
    46    13    43    1
    47    13    44    1
    48    15    45    1
    49    16    46    1
    50    17    47    1
    51    20    48    1
    52    21    49    1
    53    21    50    1
    54    21    51    1
    55    24    52    1
    56    25    53    1
    57    29    54    1
    58    29    55    1
    59    29    56    1
    60    30    57    1
    61    31    58    1
    62    33    59    1
    63    34    60    1
