
     RDKit          3D

 60 63  0  0  0  0  0  0  0  0999 V2000
   -7.3527    3.8552   -2.1327 C   0  0  0  0  0  0  0  0  0  0  0  0
   -5.9451    3.7252   -2.1311 O   0  0  0  0  0  0  0  0  0  0  0  0
   -5.3521    2.7152   -1.3605 C   0  0  0  0  0  0  0  0  0  0  0  0
   -3.9709    2.6273   -1.3920 C   0  0  0  0  0  0  0  0  0  0  0  0
   -3.3310    1.6550   -0.6551 C   0  0  0  0  0  0  0  0  0  0  0  0
   -4.0105    0.7497    0.1255 C   0  0  0  0  0  0  0  0  0  0  0  0
   -3.3633   -0.2759    0.9046 C   0  0  0  0  0  0  0  0  0  0  0  0
   -3.9851   -0.6868    1.9603 O   0  0  0  0  0  0  0  0  0  0  0  0
   -2.0861   -0.9156    0.6637 C   0  0  0  0  0  0  0  0  0  0  0  0
   -1.2406   -1.3995    1.6698 C   0  0  0  0  0  0  0  0  0  0  0  0
   -1.5181   -1.3012    3.1450 C   0  0  0  0  0  0  0  0  0  0  0  0
   -0.1889   -1.9433    1.0628 N   0  0  0  0  0  0  0  0  0  0  0  0
    0.9526   -2.5608    1.7207 C   0  0  0  0  0  0  0  0  0  0  0  0
    2.0289   -1.5777    1.9859 C   0  0  0  0  0  0  0  0  0  0  0  0
    2.0989   -0.9141    3.1902 C   0  0  0  0  0  0  0  0  0  0  0  0
    3.1021    0.0173    3.4500 C   0  0  0  0  0  0  0  0  0  0  0  0
    4.0578    0.2992    2.4980 C   0  0  0  0  0  0  0  0  0  0  0  0
    4.0162   -0.3418    1.2938 C   0  0  0  0  0  0  0  0  0  0  0  0
    4.9455   -0.0915    0.3217 O   0  0  0  0  0  0  0  0  0  0  0  0
    6.0208    0.7819    0.3513 C   0  0  1  0  0  0  0  0  0  0  0  0
    7.3414    0.0531    0.0899 C   0  0  0  0  0  0  0  0  0  0  0  0
    5.8756    1.7922   -0.7556 C   0  0  0  0  0  0  0  0  0  0  0  0
    6.7488    2.6850   -0.9129 O   0  0  0  0  0  0  0  0  0  0  0  0
    4.7940    1.7461   -1.5969 O   0  0  0  0  0  0  0  0  0  0  0  0
    3.0006   -1.2696    1.0608 C   0  0  0  0  0  0  0  0  0  0  0  0
   -0.2822   -1.8538   -0.2821 C   0  0  0  0  0  0  0  0  0  0  0  0
    0.5136   -2.2669   -1.2974 N   0  0  0  0  0  0  0  0  0  0  0  0
    0.2032   -2.0837   -2.5865 C   0  0  0  0  0  0  0  0  0  0  0  0
    1.1079   -2.5521   -3.6927 C   0  0  0  0  0  0  0  0  0  0  0  0
   -0.9755   -1.4488   -2.8940 C   0  0  0  0  0  0  0  0  0  0  0  0
   -1.8109   -1.0141   -1.8671 C   0  0  0  0  0  0  0  0  0  0  0  0
   -1.4722   -1.2102   -0.5444 C   0  0  0  0  0  0  0  0  0  0  0  0
   -5.3896    0.8715    0.1295 C   0  0  0  0  0  0  0  0  0  0  0  0
   -6.0495    1.8289   -0.5940 C   0  0  0  0  0  0  0  0  0  0  0  0
   -7.7289    4.2079   -1.1422 H   0  0  0  0  0  0  0  0  0  0  0  0
   -7.6703    4.5764   -2.9190 H   0  0  0  0  0  0  0  0  0  0  0  0
   -7.7553    2.8395   -2.3519 H   0  0  0  0  0  0  0  0  0  0  0  0
   -3.3493    3.2999   -1.9797 H   0  0  0  0  0  0  0  0  0  0  0  0
   -2.2416    1.5745   -0.6671 H   0  0  0  0  0  0  0  0  0  0  0  0
   -2.4994   -1.8053    3.3255 H   0  0  0  0  0  0  0  0  0  0  0  0
   -1.5231   -0.2719    3.5025 H   0  0  0  0  0  0  0  0  0  0  0  0
   -0.7873   -1.9606    3.6949 H   0  0  0  0  0  0  0  0  0  0  0  0
    0.5845   -3.0425    2.6495 H   0  0  0  0  0  0  0  0  0  0  0  0
    1.3117   -3.4128    1.0760 H   0  0  0  0  0  0  0  0  0  0  0  0
    1.3967   -1.0723    3.9910 H   0  0  0  0  0  0  0  0  0  0  0  0
    3.1480    0.5354    4.4037 H   0  0  0  0  0  0  0  0  0  0  0  0
    4.8297    1.0234    2.7124 H   0  0  0  0  0  0  0  0  0  0  0  0
    6.1765    1.3584    1.2607 H   0  0  0  0  0  0  0  0  0  0  0  0
    8.1106    0.2897    0.8330 H   0  0  0  0  0  0  0  0  0  0  0  0
    7.7492    0.3175   -0.9033 H   0  0  0  0  0  0  0  0  0  0  0  0
    7.1884   -1.0488    0.1035 H   0  0  0  0  0  0  0  0  0  0  0  0
    4.7412    2.4525   -2.3405 H   0  0  0  0  0  0  0  0  0  0  0  0
    3.0023   -1.7598    0.0879 H   0  0  0  0  0  0  0  0  0  0  0  0
    1.9528   -1.8636   -3.8301 H   0  0  0  0  0  0  0  0  0  0  0  0
    0.4909   -2.6222   -4.6135 H   0  0  0  0  0  0  0  0  0  0  0  0
    1.4924   -3.5747   -3.5054 H   0  0  0  0  0  0  0  0  0  0  0  0
   -1.2185   -1.3060   -3.9302 H   0  0  0  0  0  0  0  0  0  0  0  0
   -2.7399   -0.5419   -2.1174 H   0  0  0  0  0  0  0  0  0  0  0  0
   -6.0115    0.1998    0.7181 H   0  0  0  0  0  0  0  0  0  0  0  0
   -7.1336    1.9122   -0.5805 H   0  0  0  0  0  0  0  0  0  0  0  0
  1  2  1  0
  2  3  1  0
  3  4  2  0
  4  5  1  0
  5  6  2  0
  6  7  1  0
  7  8  2  0
  7  9  1  0
  9 10  2  0
 10 11  1  0
 10 12  1  0
 12 13  1  0
 13 14  1  0
 14 15  2  0
 15 16  1  0
 16 17  2  0
 17 18  1  0
 18 19  1  0
 19 20  1  0
 20 21  1  0
 20 22  1  0
 22 23  2  0
 22 24  1  0
 18 25  2  0
 12 26  1  0
 26 27  2  0
 27 28  1  0
 28 29  1  0
 28 30  2  0
 30 31  1  0
 31 32  2  0
  6 33  1  0
 33 34  2  0
 34  3  1  0
 32  9  1  0
 25 14  1  0
 32 26  1  0
  1 35  1  0
  1 36  1  0
  1 37  1  0
  4 38  1  0
  5 39  1  0
 11 40  1  0
 11 41  1  0
 11 42  1  0
 13 43  1  0
 13 44  1  0
 15 45  1  0
 16 46  1  0
 17 47  1  0
 20 48  1  1
 21 49  1  0
 21 50  1  0
 21 51  1  0
 24 52  1  0
 25 53  1  0
 29 54  1  0
 29 55  1  0
 29 56  1  0
 30 57  1  0
 31 58  1  0
 33 59  1  0
 34 60  1  0
M  END
$$$$
