
     RDKit          3D

 68 72  0  0  0  0  0  0  0  0999 V2000
    6.0875   -2.8211   -3.0697 C   0  0  0  0  0  0  0  0  0  0  0  0
    6.8978   -2.1402   -1.9887 C   0  0  0  0  0  0  0  0  0  0  0  0
    6.0895   -1.4771   -1.0765 O   0  0  0  0  0  0  0  0  0  0  0  0
    7.0575   -0.7980    0.1297 P   0  0  0  0  0  5  0  0  0  0  0  0
    8.4603   -1.3935   -0.0463 O   0  0  0  0  0  0  0  0  0  0  0  0
    6.4637   -1.2640    1.7562 C   0  0  0  0  0  0  0  0  0  0  0  0
    5.8061   -0.1347    2.4624 C   0  0  0  0  0  0  0  0  0  0  0  0
    4.6619    0.3771    1.7472 N   0  0  0  0  0  0  0  0  0  0  0  0
    3.3723   -0.0285    1.8416 C   0  0  0  0  0  0  0  0  0  0  0  0
    2.5999    0.7360    0.9933 C   0  0  0  0  0  0  0  0  0  0  0  0
    1.1434    0.6524    0.7697 C   0  0  0  0  0  0  0  0  0  0  0  0
    0.4199   -0.2922    1.4590 C   0  0  0  0  0  0  0  0  0  0  0  0
   -0.9415   -0.3888    1.2714 C   0  0  0  0  0  0  0  0  0  0  0  0
   -1.6125    0.4388    0.4058 C   0  0  0  0  0  0  0  0  0  0  0  0
   -3.0649    0.3193    0.2125 C   0  0  0  0  0  0  0  0  0  0  0  0
   -3.8645   -0.5802    0.8051 N   0  0  0  0  0  0  0  0  0  0  0  0
   -5.1170   -0.3992    0.3920 C   0  0  0  0  0  0  0  0  0  0  0  0
   -6.3173   -1.1676    0.7820 C   0  0  0  0  0  0  0  0  0  0  0  0
   -6.4236   -2.4947    0.4090 C   0  0  0  0  0  0  0  0  0  0  0  0
   -7.5329   -3.2323    0.7649 C   0  0  0  0  0  0  0  0  0  0  0  0
   -8.5733   -2.6941    1.4972 C   0  0  0  0  0  0  0  0  0  0  0  0
   -9.6617   -3.4362    1.8403 F   0  0  0  0  0  0  0  0  0  0  0  0
   -8.4655   -1.3703    1.8685 C   0  0  0  0  0  0  0  0  0  0  0  0
   -7.3494   -0.6262    1.5111 C   0  0  0  0  0  0  0  0  0  0  0  0
   -5.1082    0.6466   -0.4878 C   0  0  0  0  0  0  0  0  0  0  0  0
   -6.2326    1.2412   -1.2181 C   0  0  0  0  0  0  0  0  0  0  0  0
   -6.4464    1.0128   -2.5610 C   0  0  0  0  0  0  0  0  0  0  0  0
   -7.5037    1.5841   -3.2363 C   0  0  0  0  0  0  0  0  0  0  0  0
   -8.3514    2.3841   -2.5784 N   0  0  0  0  0  0  0  0  0  0  0  0
   -8.1884    2.6413   -1.2629 C   0  0  0  0  0  0  0  0  0  0  0  0
   -8.9996    3.3973   -0.6670 O   0  0  0  0  0  0  0  0  0  0  0  0
   -7.1188    2.0656   -0.5726 C   0  0  0  0  0  0  0  0  0  0  0  0
   -3.8336    1.0651   -0.5760 N   0  0  0  0  0  0  0  0  0  0  0  0
   -0.8665    1.3764   -0.2727 C   0  0  0  0  0  0  0  0  0  0  0  0
    0.5080    1.4908   -0.0982 C   0  0  0  0  0  0  0  0  0  0  0  0
    3.4578    1.5894    0.4062 N   0  0  0  0  0  0  0  0  0  0  0  0
    4.6693    1.3546    0.8706 N   0  0  0  0  0  0  0  0  0  0  0  0
    7.1270    0.8762   -0.0089 O   0  0  0  0  0  0  0  0  0  0  0  0
    8.3938    1.3451    0.2871 C   0  0  0  0  0  0  0  0  0  0  0  0
    8.3562    2.8587    0.0621 C   0  0  0  0  0  0  0  0  0  0  0  0
    5.0962   -2.3591   -3.2053 H   0  0  0  0  0  0  0  0  0  0  0  0
    6.6082   -2.7114   -4.0596 H   0  0  0  0  0  0  0  0  0  0  0  0
    5.9703   -3.9172   -2.8303 H   0  0  0  0  0  0  0  0  0  0  0  0
    7.5340   -2.9064   -1.4797 H   0  0  0  0  0  0  0  0  0  0  0  0
    7.6256   -1.4167   -2.4300 H   0  0  0  0  0  0  0  0  0  0  0  0
    5.7368   -2.1115    1.7215 H   0  0  0  0  0  0  0  0  0  0  0  0
    7.3250   -1.5970    2.4079 H   0  0  0  0  0  0  0  0  0  0  0  0
    6.5223    0.7243    2.6242 H   0  0  0  0  0  0  0  0  0  0  0  0
    5.4577   -0.4690    3.4727 H   0  0  0  0  0  0  0  0  0  0  0  0
    2.9889   -0.8177    2.4702 H   0  0  0  0  0  0  0  0  0  0  0  0
    0.9034   -0.9601    2.1457 H   0  0  0  0  0  0  0  0  0  0  0  0
   -1.5505   -1.1313    1.8053 H   0  0  0  0  0  0  0  0  0  0  0  0
   -5.6202   -2.9263   -0.1614 H   0  0  0  0  0  0  0  0  0  0  0  0
   -7.5765   -4.2723    0.4513 H   0  0  0  0  0  0  0  0  0  0  0  0
   -9.2798   -0.9623    2.4369 H   0  0  0  0  0  0  0  0  0  0  0  0
   -7.3160    0.3849    1.8243 H   0  0  0  0  0  0  0  0  0  0  0  0
   -5.7414    0.3594   -3.0668 H   0  0  0  0  0  0  0  0  0  0  0  0
   -7.6564    1.3978   -4.2776 H   0  0  0  0  0  0  0  0  0  0  0  0
   -9.1529    2.8128   -3.1048 H   0  0  0  0  0  0  0  0  0  0  0  0
   -7.0543    2.3201    0.4682 H   0  0  0  0  0  0  0  0  0  0  0  0
   -3.5176    1.8690   -1.1879 H   0  0  0  0  0  0  0  0  0  0  0  0
   -1.3656    2.0273   -0.9477 H   0  0  0  0  0  0  0  0  0  0  0  0
    1.1066    2.2308   -0.6320 H   0  0  0  0  0  0  0  0  0  0  0  0
    8.6702    1.1197    1.3473 H   0  0  0  0  0  0  0  0  0  0  0  0
    9.1851    0.8971   -0.3471 H   0  0  0  0  0  0  0  0  0  0  0  0
    8.9155    3.1059   -0.8700 H   0  0  0  0  0  0  0  0  0  0  0  0
    7.3161    3.2405    0.0187 H   0  0  0  0  0  0  0  0  0  0  0  0
    8.8707    3.3545    0.8833 H   0  0  0  0  0  0  0  0  0  0  0  0
  1  2  1  0
  2  3  1  0
  3  4  1  0
  4  5  2  0
  4  6  1  0
  6  7  1  0
  7  8  1  0
  8  9  1  0
  9 10  2  0
 10 11  1  0
 11 12  2  0
 12 13  1  0
 13 14  2  0
 14 15  1  0
 15 16  2  0
 16 17  1  0
 17 18  1  0
 18 19  2  0
 19 20  1  0
 20 21  2  0
 21 22  1  0
 21 23  1  0
 23 24  2  0
 17 25  2  0
 25 26  1  0
 26 27  1  0
 27 28  2  0
 28 29  1  0
 29 30  1  0
 30 31  2  0
 30 32  1  0
 25 33  1  0
 14 34  1  0
 34 35  2  0
 10 36  1  0
 36 37  2  0
  4 38  1  0
 38 39  1  0
 39 40  1  0
 37  8  1  0
 35 11  1  0
 33 15  1  0
 24 18  1  0
 32 26  2  0
  1 41  1  0
  1 42  1  0
  1 43  1  0
  2 44  1  0
  2 45  1  0
  6 46  1  0
  6 47  1  0
  7 48  1  0
  7 49  1  0
  9 50  1  0
 12 51  1  0
 13 52  1  0
 19 53  1  0
 20 54  1  0
 23 55  1  0
 24 56  1  0
 27 57  1  0
 28 58  1  0
 29 59  1  0
 32 60  1  0
 33 61  1  0
 34 62  1  0
 35 63  1  0
 39 64  1  0
 39 65  1  0
 40 66  1  0
 40 67  1  0
 40 68  1  0
M  END
$$$$
