@<TRIPOS>MOLECULE
*****
 68 72 0 0 0
SMALL
GASTEIGER

@<TRIPOS>ATOM
      1 C           6.0875   -2.8211   -3.0697 C.3     1  UNL1       -0.0411
      2 C           6.8978   -2.1402   -1.9887 C.3     1  UNL1        0.0541
      3 O           6.0895   -1.4771   -1.0765 O.3     1  UNL1       -0.3081
      4 P           7.0575   -0.7980    0.1297 P.3     1  UNL1        0.3346
      5 O           8.4603   -1.3935   -0.0463 O.2     1  UNL1       -0.2584
      6 C           6.4637   -1.2640    1.7562 C.3     1  UNL1        0.0693
      7 C           5.8061   -0.1347    2.4624 C.3     1  UNL1        0.0541
      8 N           4.6619    0.3771    1.7472 N.ar    1  UNL1       -0.2505
      9 C           3.3723   -0.0285    1.8416 C.ar    1  UNL1        0.0533
     10 C           2.5999    0.7360    0.9933 C.ar    1  UNL1        0.1126
     11 C           1.1434    0.6524    0.7697 C.ar    1  UNL1        0.0037
     12 C           0.4199   -0.2922    1.4590 C.ar    1  UNL1       -0.0518
     13 C          -0.9415   -0.3888    1.2714 C.ar    1  UNL1       -0.0505
     14 C          -1.6125    0.4388    0.4058 C.ar    1  UNL1        0.0173
     15 C          -3.0649    0.3193    0.2125 C.ar    1  UNL1        0.1393
     16 N          -3.8645   -0.5802    0.8051 N.ar    1  UNL1       -0.2271
     17 C          -5.1170   -0.3992    0.3920 C.ar    1  UNL1        0.0971
     18 C          -6.3173   -1.1676    0.7820 C.ar    1  UNL1        0.0026
     19 C          -6.4236   -2.4947    0.4090 C.ar    1  UNL1       -0.0498
     20 C          -7.5329   -3.2323    0.7649 C.ar    1  UNL1       -0.0258
     21 C          -8.5733   -2.6941    1.4972 C.ar    1  UNL1        0.1234
     22 F          -9.6617   -3.4362    1.8403 F       1  UNL1       -0.2055
     23 C          -8.4655   -1.3703    1.8685 C.ar    1  UNL1       -0.0258
     24 C          -7.3494   -0.6262    1.5111 C.ar    1  UNL1       -0.0498
     25 C          -5.1082    0.6466   -0.4878 C.ar    1  UNL1        0.0745
     26 C          -6.2326    1.2412   -1.2181 C.ar    1  UNL1        0.0069
     27 C          -6.4464    1.0128   -2.5610 C.ar    1  UNL1       -0.0363
     28 C          -7.5037    1.5841   -3.2363 C.ar    1  UNL1        0.0056
     29 N          -8.3514    2.3841   -2.5784 N.ar    1  UNL1       -0.3291
     30 C          -8.1884    2.6413   -1.2629 C.ar    1  UNL1        0.2493
     31 O          -8.9996    3.3973   -0.6670 O.2     1  UNL1       -0.2679
     32 C          -7.1188    2.0656   -0.5726 C.ar    1  UNL1        0.0119
     33 N          -3.8336    1.0651   -0.5760 N.ar    1  UNL1       -0.3374
     34 C          -0.8665    1.3764   -0.2727 C.ar    1  UNL1       -0.0505
     35 C           0.5080    1.4908   -0.0982 C.ar    1  UNL1       -0.0518
     36 N           3.4578    1.5894    0.4062 N.ar    1  UNL1       -0.1295
     37 N           4.6693    1.3546    0.8706 N.ar    1  UNL1       -0.0651
     38 O           7.1270    0.8762   -0.0089 O.3     1  UNL1       -0.3081
     39 C           8.3938    1.3451    0.2871 C.3     1  UNL1        0.0541
     40 C           8.3562    2.8587    0.0621 C.3     1  UNL1       -0.0411
     41 H           5.0962   -2.3591   -3.2053 H       1  UNL1        0.0252
     42 H           6.6082   -2.7114   -4.0596 H       1  UNL1        0.0252
     43 H           5.9703   -3.9172   -2.8303 H       1  UNL1        0.0252
     44 H           7.5340   -2.9064   -1.4797 H       1  UNL1        0.0562
     45 H           7.6256   -1.4167   -2.4300 H       1  UNL1        0.0562
     46 H           5.7368   -2.1115    1.7215 H       1  UNL1        0.0406
     47 H           7.3250   -1.5970    2.4079 H       1  UNL1        0.0406
     48 H           6.5223    0.7243    2.6242 H       1  UNL1        0.0515
     49 H           5.4577   -0.4690    3.4727 H       1  UNL1        0.0515
     50 H           2.9889   -0.8177    2.4702 H       1  UNL1        0.0849
     51 H           0.9034   -0.9601    2.1457 H       1  UNL1        0.0624
     52 H          -1.5505   -1.1313    1.8053 H       1  UNL1        0.0625
     53 H          -5.6202   -2.9263   -0.1614 H       1  UNL1        0.0625
     54 H          -7.5765   -4.2723    0.4513 H       1  UNL1        0.0646
     55 H          -9.2798   -0.9623    2.4369 H       1  UNL1        0.0646
     56 H          -7.3160    0.3849    1.8243 H       1  UNL1        0.0625
     57 H          -5.7414    0.3594   -3.0668 H       1  UNL1        0.0639
     58 H          -7.6564    1.3978   -4.2776 H       1  UNL1        0.0808
     59 H          -9.1529    2.8128   -3.1048 H       1  UNL1        0.1683
     60 H          -7.0543    2.3201    0.4682 H       1  UNL1        0.0678
     61 H          -3.5176    1.8690   -1.1879 H       1  UNL1        0.1674
     62 H          -1.3656    2.0273   -0.9477 H       1  UNL1        0.0625
     63 H           1.1066    2.2308   -0.6320 H       1  UNL1        0.0624
     64 H           8.6702    1.1197    1.3473 H       1  UNL1        0.0562
     65 H           9.1851    0.8971   -0.3471 H       1  UNL1        0.0562
     66 H           8.9155    3.1059   -0.8700 H       1  UNL1        0.0252
     67 H           7.3161    3.2405    0.0187 H       1  UNL1        0.0252
     68 H           8.8707    3.3545    0.8833 H       1  UNL1        0.0252
@<TRIPOS>BOND
     1     1     2    1
     2     2     3    1
     3     3     4    1
     4     4     5    2
     5     4     6    1
     6     6     7    1
     7     7     8    1
     8     8     9   ar
     9     9    10   ar
    10    10    11    1
    11    11    12   ar
    12    12    13   ar
    13    13    14   ar
    14    14    15    1
    15    15    16   ar
    16    16    17   ar
    17    17    18    1
    18    18    19   ar
    19    19    20   ar
    20    20    21   ar
    21    21    22    1
    22    21    23   ar
    23    23    24   ar
    24    17    25   ar
    25    25    26    1
    26    26    27   ar
    27    27    28   ar
    28    28    29   ar
    29    29    30   ar
    30    30    31    2
    31    30    32   ar
    32    25    33   ar
    33    14    34   ar
    34    34    35   ar
    35    10    36   ar
    36    36    37   ar
    37     4    38    1
    38    38    39    1
    39    39    40    1
    40    37     8   ar
    41    35    11   ar
    42    33    15   ar
    43    24    18   ar
    44    32    26   ar
    45     1    41    1
    46     1    42    1
    47     1    43    1
    48     2    44    1
    49     2    45    1
    50     6    46    1
    51     6    47    1
    52     7    48    1
    53     7    49    1
    54     9    50    1
    55    12    51    1
    56    13    52    1
    57    19    53    1
    58    20    54    1
    59    23    55    1
    60    24    56    1
    61    27    57    1
    62    28    58    1
    63    29    59    1
    64    32    60    1
    65    33    61    1
    66    34    62    1
    67    35    63    1
    68    39    64    1
    69    39    65    1
    70    40    66    1
    71    40    67    1
    72    40    68    1
