@<TRIPOS>MOLECULE
*****
 48 51 0 0 0
SMALL
GASTEIGER

@<TRIPOS>ATOM
      1 C          -6.6241    1.3204    1.5574 C.3     1  UNL1        0.0087
      2 N          -5.6747    1.1883    0.4769 N.am    1  UNL1       -0.2672
      3 C          -5.7430    1.9001   -0.7689 C.2     1  UNL1        0.2910
      4 O          -6.6337    2.7296   -1.0873 O.2     1  UNL1       -0.2661
      5 C          -4.6038    1.4596   -1.5309 C.2     1  UNL1        0.2496
      6 O          -4.2934    1.8379   -2.6777 O.2     1  UNL1       -0.2817
      7 C          -3.8692    0.4934   -0.7371 C.ar    1  UNL1        0.0501
      8 C          -2.7113   -0.2152   -1.0196 C.ar    1  UNL1       -0.0226
      9 C          -2.2352   -1.0754   -0.0639 C.ar    1  UNL1        0.1063
     10 S          -0.7965   -1.9818   -0.3815 S.O2    1  UNL1        0.0612
     11 O          -0.9500   -3.3180    0.3007 O.2     1  UNL1       -0.1528
     12 O          -0.6888   -2.3165   -1.8667 O.2     1  UNL1       -0.1528
     13 N           0.6540   -1.2042    0.0442 N.3     1  UNL1       -0.1703
     14 C           0.6689   -0.9529    1.4505 C.3     1  UNL1        0.0210
     15 C           0.3227    0.4945    1.6258 C.3     1  UNL1       -0.0370
     16 C           0.7953    1.1602    0.3490 C.3     1  UNL1       -0.0313
     17 C           0.9243    0.0193   -0.5983 C.3     1  UNL1        0.0659
     18 C           2.3889   -0.0208   -1.0701 C.3     1  UNL1        0.1067
     19 O           3.2384   -0.1895    0.0403 O.3     1  UNL1       -0.4904
     20 C           4.5935   -0.2675   -0.0065 C.ar    1  UNL1        0.1206
     21 C           5.2661   -0.1842   -1.1992 C.ar    1  UNL1       -0.0199
     22 C           6.6507   -0.2601   -1.2844 C.ar    1  UNL1       -0.0583
     23 C           7.3430   -0.4265   -0.0962 C.ar    1  UNL1       -0.0615
     24 C           6.7023   -0.5144    1.1217 C.ar    1  UNL1       -0.0583
     25 C           5.3187   -0.4322    1.1463 C.ar    1  UNL1       -0.0199
     26 C          -2.8886   -1.2260    1.1332 C.ar    1  UNL1       -0.0335
     27 C          -4.0580   -0.5151    1.4274 C.ar    1  UNL1       -0.0377
     28 C          -4.5417    0.3540    0.4653 C.ar    1  UNL1        0.0474
     29 H          -6.0789    1.2924    2.5049 H       1  UNL1        0.0433
     30 H          -7.2210    2.2593    1.4191 H       1  UNL1        0.0433
     31 H          -7.2838    0.4302    1.5133 H       1  UNL1        0.0433
     32 H          -2.2069   -0.0747   -1.9879 H       1  UNL1        0.0645
     33 H          -0.1010   -1.6029    1.9364 H       1  UNL1        0.0444
     34 H           1.6246   -1.2328    1.9401 H       1  UNL1        0.0444
     35 H           0.8195    0.9165    2.5227 H       1  UNL1        0.0279
     36 H          -0.7543    0.6088    1.7785 H       1  UNL1        0.0279
     37 H           0.0819    1.9417    0.0068 H       1  UNL1        0.0282
     38 H           1.7575    1.6652    0.4708 H       1  UNL1        0.0282
     39 H           0.3259    0.1748   -1.5365 H       1  UNL1        0.0513
     40 H           2.5082   -0.7817   -1.8460 H       1  UNL1        0.0713
     41 H           2.6198    0.9655   -1.5140 H       1  UNL1        0.0713
     42 H           4.7323   -0.0537   -2.1380 H       1  UNL1        0.0654
     43 H           7.1686   -0.1923   -2.2392 H       1  UNL1        0.0619
     44 H           8.4348   -0.4855   -0.1732 H       1  UNL1        0.0618
     45 H           7.2909   -0.6460    2.0381 H       1  UNL1        0.0619
     46 H           4.8485   -0.5060    2.1378 H       1  UNL1        0.0654
     47 H          -2.5519   -1.8945    1.9233 H       1  UNL1        0.0638
     48 H          -4.5692   -0.6412    2.3777 H       1  UNL1        0.0637
@<TRIPOS>BOND
     1     1     2    1
     2     2     3   am
     3     3     4    2
     4     3     5    1
     5     5     6    2
     6     5     7    1
     7     7     8   ar
     8     8     9   ar
     9     9    10    1
    10    10    11    2
    11    10    12    2
    12    10    13    1
    13    13    14    1
    14    14    15    1
    15    15    16    1
    16    16    17    1
    17    17    18    1
    18    18    19    1
    19    19    20    1
    20    20    21   ar
    21    21    22   ar
    22    22    23   ar
    23    23    24   ar
    24    24    25   ar
    25     9    26   ar
    26    26    27   ar
    27    27    28   ar
    28    28     2    1
    29    28     7   ar
    30    17    13    1
    31    25    20   ar
    32     1    29    1
    33     1    30    1
    34     1    31    1
    35     8    32    1
    36    14    33    1
    37    14    34    1
    38    15    35    1
    39    15    36    1
    40    16    37    1
    41    16    38    1
    42    17    39    1
    43    18    40    1
    44    18    41    1
    45    21    42    1
    46    22    43    1
    47    23    44    1
    48    24    45    1
    49    25    46    1
    50    26    47    1
    51    27    48    1
