@<TRIPOS>MOLECULE
*****
 32 35 0 0 0
SMALL
GASTEIGER

@<TRIPOS>ATOM
      1 C          -1.3717   -3.2744   -0.4517 C.3     1  UNL1        0.0083
      2 N          -0.7910   -1.9548   -0.7369 N.am    1  UNL1       -0.2733
      3 C           0.4363   -1.6771   -1.3825 C.2     1  UNL1        0.2360
      4 O           1.2212   -2.5902   -1.8140 O.2     1  UNL1       -0.2741
      5 C           0.5944   -0.2306   -1.4416 C.3     1  UNL1        0.1391
      6 C           1.8526    0.2576   -0.8332 C.2     1  UNL1        0.2351
      7 O           2.6600    0.8878   -1.5641 O.2     1  UNL1       -0.2742
      8 N           2.2091    0.0651    0.5099 N.am    1  UNL1       -0.2624
      9 C           3.4597    0.5785    1.0151 C.ar    1  UNL1        0.1875
     10 N           4.0093    1.4741    1.5097 N.ar    1  UNL1       -0.1259
     11 N           5.2443    1.5932    1.8507 N.ar    1  UNL1       -0.1481
     12 C           6.0539    0.6191    1.6461 C.ar    1  UNL1        0.0902
     13 S           4.9331   -0.6194    0.8767 S.2     1  UNL1       -0.0387
     14 C          -0.6040    0.3233   -0.7970 C.ar    1  UNL1       -0.0018
     15 C          -1.0406    1.6174   -0.5435 C.ar    1  UNL1       -0.0126
     16 C          -2.2391    1.8164    0.0950 C.ar    1  UNL1        0.1352
     17 O          -2.8511    2.9282    0.4383 O.2     1  UNL1       -0.4629
     18 C          -3.9795    2.7206    1.0327 C.ar    1  UNL1        0.0931
     19 C          -4.1636    1.3567    1.1069 C.ar    1  UNL1       -0.0161
     20 C          -3.0561    0.7908    0.5104 C.ar    1  UNL1        0.0219
     21 C          -2.6257   -0.4852    0.2604 C.ar    1  UNL1       -0.0292
     22 C          -1.4011   -0.7159   -0.3924 C.ar    1  UNL1        0.0411
     23 H          -2.1812   -3.1616    0.2981 H       1  UNL1        0.0433
     24 H          -0.5891   -3.9075    0.0604 H       1  UNL1        0.0433
     25 H          -1.6951   -3.7787   -1.3760 H       1  UNL1        0.0433
     26 H           0.5576    0.0547   -2.5260 H       1  UNL1        0.0540
     27 H           1.5506   -0.4553    1.1290 H       1  UNL1        0.1568
     28 H           7.1325    0.4268    1.8234 H       1  UNL1        0.0927
     29 H          -0.3939    2.4097   -0.8727 H       1  UNL1        0.0658
     30 H          -4.7008    3.4443    1.4274 H       1  UNL1        0.1029
     31 H          -4.9756    0.7845    1.5275 H       1  UNL1        0.0655
     32 H          -3.2552   -1.2982    0.5802 H       1  UNL1        0.0643
@<TRIPOS>BOND
     1     1     2    1
     2     2     3   am
     3     3     4    2
     4     3     5    1
     5     5     6    1
     6     6     7    2
     7     6     8   am
     8     8     9    1
     9     9    10   ar
    10    10    11   ar
    11    11    12   ar
    12    12    13   ar
    13     5    14    1
    14    14    15   ar
    15    15    16   ar
    16    16    17   ar
    17    17    18   ar
    18    18    19   ar
    19    19    20   ar
    20    20    21   ar
    21    21    22   ar
    22    22     2    1
    23    13     9   ar
    24    22    14   ar
    25    20    16   ar
    26     1    23    1
    27     1    24    1
    28     1    25    1
    29     5    26    1
    30     8    27    1
    31    12    28    1
    32    15    29    1
    33    18    30    1
    34    19    31    1
    35    21    32    1
