
     RDKit          3D

 32 35  0  0  0  0  0  0  0  0999 V2000
   -1.3717   -3.2744   -0.4517 C   0  0  0  0  0  0  0  0  0  0  0  0
   -0.7910   -1.9548   -0.7369 N   0  0  0  0  0  0  0  0  0  0  0  0
    0.4363   -1.6771   -1.3825 C   0  0  0  0  0  0  0  0  0  0  0  0
    1.2212   -2.5902   -1.8140 O   0  0  0  0  0  0  0  0  0  0  0  0
    0.5944   -0.2306   -1.4416 C   0  0  0  0  0  0  0  0  0  0  0  0
    1.8526    0.2576   -0.8332 C   0  0  0  0  0  0  0  0  0  0  0  0
    2.6600    0.8878   -1.5641 O   0  0  0  0  0  0  0  0  0  0  0  0
    2.2091    0.0651    0.5099 N   0  0  0  0  0  0  0  0  0  0  0  0
    3.4597    0.5785    1.0151 C   0  0  0  0  0  0  0  0  0  0  0  0
    4.0093    1.4741    1.5097 N   0  0  0  0  0  0  0  0  0  0  0  0
    5.2443    1.5932    1.8507 N   0  0  0  0  0  0  0  0  0  0  0  0
    6.0539    0.6191    1.6461 C   0  0  0  0  0  0  0  0  0  0  0  0
    4.9331   -0.6194    0.8767 S   0  0  0  0  0  0  0  0  0  0  0  0
   -0.6040    0.3233   -0.7970 C   0  0  0  0  0  0  0  0  0  0  0  0
   -1.0406    1.6174   -0.5435 C   0  0  0  0  0  0  0  0  0  0  0  0
   -2.2391    1.8164    0.0950 C   0  0  0  0  0  0  0  0  0  0  0  0
   -2.8511    2.9282    0.4383 O   0  0  0  0  0  0  0  0  0  0  0  0
   -3.9795    2.7206    1.0327 C   0  0  0  0  0  0  0  0  0  0  0  0
   -4.1636    1.3567    1.1069 C   0  0  0  0  0  0  0  0  0  0  0  0
   -3.0561    0.7908    0.5104 C   0  0  0  0  0  0  0  0  0  0  0  0
   -2.6257   -0.4852    0.2604 C   0  0  0  0  0  0  0  0  0  0  0  0
   -1.4011   -0.7159   -0.3924 C   0  0  0  0  0  0  0  0  0  0  0  0
   -2.1812   -3.1616    0.2981 H   0  0  0  0  0  0  0  0  0  0  0  0
   -0.5891   -3.9075    0.0604 H   0  0  0  0  0  0  0  0  0  0  0  0
   -1.6951   -3.7787   -1.3760 H   0  0  0  0  0  0  0  0  0  0  0  0
    0.5576    0.0547   -2.5260 H   0  0  0  0  0  0  0  0  0  0  0  0
    1.5506   -0.4553    1.1290 H   0  0  0  0  0  0  0  0  0  0  0  0
    7.1325    0.4268    1.8234 H   0  0  0  0  0  0  0  0  0  0  0  0
   -0.3939    2.4097   -0.8727 H   0  0  0  0  0  0  0  0  0  0  0  0
   -4.7008    3.4443    1.4274 H   0  0  0  0  0  0  0  0  0  0  0  0
   -4.9756    0.7845    1.5275 H   0  0  0  0  0  0  0  0  0  0  0  0
   -3.2552   -1.2982    0.5802 H   0  0  0  0  0  0  0  0  0  0  0  0
  1  2  1  0
  2  3  1  0
  3  4  2  0
  3  5  1  0
  5  6  1  0
  6  7  2  0
  6  8  1  0
  8  9  1  0
  9 10  2  0
 10 11  1  0
 11 12  2  0
 12 13  1  0
  5 14  1  0
 14 15  2  0
 15 16  1  0
 16 17  1  0
 17 18  1  0
 18 19  2  0
 19 20  1  0
 20 21  1  0
 21 22  2  0
 22  2  1  0
 13  9  1  0
 22 14  1  0
 20 16  2  0
  1 23  1  0
  1 24  1  0
  1 25  1  0
  5 26  1  0
  8 27  1  0
 12 28  1  0
 15 29  1  0
 18 30  1  0
 19 31  1  0
 21 32  1  0
M  END
$$$$
