@<TRIPOS>MOLECULE
*****
 41 44 0 0 0
SMALL
GASTEIGER

@<TRIPOS>ATOM
      1 C          -4.3931    0.4269    1.9179 C.3     1  UNL1       -0.0321
      2 C          -3.9121    0.5441    0.4730 C.3     1  UNL1        0.0868
      3 C          -5.0893    0.1907   -0.4034 C.3     1  UNL1       -0.0321
      4 O          -3.5630    1.8714    0.2477 O.3     1  UNL1       -0.3845
      5 C          -2.7762   -0.3723    0.2604 C.ar    1  UNL1        0.0021
      6 C          -3.0168   -1.6592   -0.1605 C.ar    1  UNL1        0.0335
      7 N          -1.9655   -2.4737   -0.3466 N.ar    1  UNL1       -0.2622
      8 C          -0.6749   -2.0811   -0.1372 C.ar    1  UNL1        0.0382
      9 C          -0.3984   -0.8026    0.2834 C.ar    1  UNL1        0.0359
     10 C           0.9911   -0.3804    0.5087 C.ar    1  UNL1        0.1436
     11 N           1.4244    0.3116    1.5743 N.ar    1  UNL1       -0.2275
     12 C           2.7288    0.5236    1.4581 C.ar    1  UNL1        0.0898
     13 C           3.6853    1.1706    2.2461 C.ar    1  UNL1       -0.0315
     14 C           4.9982    1.2381    1.8701 C.ar    1  UNL1       -0.0243
     15 C           5.4183    0.6671    0.6972 C.ar    1  UNL1        0.1255
     16 F           6.7257    0.7532    0.3561 F       1  UNL1       -0.2054
     17 C           4.4805    0.0252   -0.0889 C.ar    1  UNL1       -0.0008
     18 C           3.1467   -0.0515    0.2787 C.ar    1  UNL1        0.0721
     19 N           2.0528   -0.5958   -0.2750 N.ar    1  UNL1       -0.3204
     20 C           2.0206   -1.3132   -1.5372 C.3     1  UNL1        0.0366
     21 C           1.2309   -0.8297   -2.6721 C.3     1  UNL1       -0.0302
     22 C           2.7320   -0.6434   -2.7169 C.3     1  UNL1       -0.0302
     23 C          -1.4654    0.0409    0.4776 C.ar    1  UNL1       -0.0423
     24 H          -3.4941    0.2528    2.5410 H       1  UNL1        0.0260
     25 H          -4.9402    1.3497    2.2312 H       1  UNL1        0.0260
     26 H          -5.1314   -0.4002    1.9881 H       1  UNL1        0.0260
     27 H          -5.6703    1.1060   -0.6898 H       1  UNL1        0.0260
     28 H          -5.8201   -0.4567    0.1435 H       1  UNL1        0.0260
     29 H          -4.7941   -0.3208   -1.3306 H       1  UNL1        0.0260
     30 H          -3.2492    2.0359   -0.6629 H       1  UNL1        0.2106
     31 H          -4.0391   -2.0236   -0.3432 H       1  UNL1        0.0833
     32 H           0.1551   -2.7588   -0.2951 H       1  UNL1        0.0837
     33 H           3.3079    1.6056    3.1614 H       1  UNL1        0.0640
     34 H           5.7174    1.7535    2.5140 H       1  UNL1        0.0647
     35 H           4.7965   -0.4316   -1.0197 H       1  UNL1        0.0667
     36 H           2.2990   -2.3849   -1.4208 H       1  UNL1        0.0528
     37 H           0.6093    0.0742   -2.5410 H       1  UNL1        0.0286
     38 H           0.7601   -1.5697   -3.3722 H       1  UNL1        0.0286
     39 H           3.0937    0.3812   -2.5978 H       1  UNL1        0.0286
     40 H           3.2798   -1.2979   -3.4312 H       1  UNL1        0.0286
     41 H          -1.2610    1.0658    0.8136 H       1  UNL1        0.0629
@<TRIPOS>BOND
     1     1     2    1
     2     2     3    1
     3     2     4    1
     4     2     5    1
     5     5     6   ar
     6     6     7   ar
     7     7     8   ar
     8     8     9   ar
     9     9    10    1
    10    10    11   ar
    11    11    12   ar
    12    12    13   ar
    13    13    14   ar
    14    14    15   ar
    15    15    16    1
    16    15    17   ar
    17    17    18   ar
    18    18    19   ar
    19    19    20    1
    20    20    21    1
    21    21    22    1
    22     9    23   ar
    23    23     5   ar
    24    19    10   ar
    25    22    20    1
    26    18    12   ar
    27     1    24    1
    28     1    25    1
    29     1    26    1
    30     3    27    1
    31     3    28    1
    32     3    29    1
    33     4    30    1
    34     6    31    1
    35     8    32    1
    36    13    33    1
    37    14    34    1
    38    17    35    1
    39    20    36    1
    40    21    37    1
    41    21    38    1
    42    22    39    1
    43    22    40    1
    44    23    41    1
