
     RDKit          3D

 41 44  0  0  0  0  0  0  0  0999 V2000
   -4.3931    0.4269    1.9179 C   0  0  0  0  0  0  0  0  0  0  0  0
   -3.9121    0.5441    0.4730 C   0  0  0  0  0  0  0  0  0  0  0  0
   -5.0893    0.1907   -0.4034 C   0  0  0  0  0  0  0  0  0  0  0  0
   -3.5630    1.8714    0.2477 O   0  0  0  0  0  0  0  0  0  0  0  0
   -2.7762   -0.3723    0.2604 C   0  0  0  0  0  0  0  0  0  0  0  0
   -3.0168   -1.6592   -0.1605 C   0  0  0  0  0  0  0  0  0  0  0  0
   -1.9655   -2.4737   -0.3466 N   0  0  0  0  0  0  0  0  0  0  0  0
   -0.6749   -2.0811   -0.1372 C   0  0  0  0  0  0  0  0  0  0  0  0
   -0.3984   -0.8026    0.2834 C   0  0  0  0  0  0  0  0  0  0  0  0
    0.9911   -0.3804    0.5087 C   0  0  0  0  0  0  0  0  0  0  0  0
    1.4244    0.3116    1.5743 N   0  0  0  0  0  0  0  0  0  0  0  0
    2.7288    0.5236    1.4581 C   0  0  0  0  0  0  0  0  0  0  0  0
    3.6853    1.1706    2.2461 C   0  0  0  0  0  0  0  0  0  0  0  0
    4.9982    1.2381    1.8701 C   0  0  0  0  0  0  0  0  0  0  0  0
    5.4183    0.6671    0.6972 C   0  0  0  0  0  0  0  0  0  0  0  0
    6.7257    0.7532    0.3561 F   0  0  0  0  0  0  0  0  0  0  0  0
    4.4805    0.0252   -0.0889 C   0  0  0  0  0  0  0  0  0  0  0  0
    3.1467   -0.0515    0.2787 C   0  0  0  0  0  0  0  0  0  0  0  0
    2.0528   -0.5958   -0.2750 N   0  0  0  0  0  0  0  0  0  0  0  0
    2.0206   -1.3132   -1.5372 C   0  0  0  0  0  0  0  0  0  0  0  0
    1.2309   -0.8297   -2.6721 C   0  0  0  0  0  0  0  0  0  0  0  0
    2.7320   -0.6434   -2.7169 C   0  0  0  0  0  0  0  0  0  0  0  0
   -1.4654    0.0409    0.4776 C   0  0  0  0  0  0  0  0  0  0  0  0
   -3.4941    0.2528    2.5410 H   0  0  0  0  0  0  0  0  0  0  0  0
   -4.9402    1.3497    2.2312 H   0  0  0  0  0  0  0  0  0  0  0  0
   -5.1314   -0.4002    1.9881 H   0  0  0  0  0  0  0  0  0  0  0  0
   -5.6703    1.1060   -0.6898 H   0  0  0  0  0  0  0  0  0  0  0  0
   -5.8201   -0.4567    0.1435 H   0  0  0  0  0  0  0  0  0  0  0  0
   -4.7941   -0.3208   -1.3306 H   0  0  0  0  0  0  0  0  0  0  0  0
   -3.2492    2.0359   -0.6629 H   0  0  0  0  0  0  0  0  0  0  0  0
   -4.0391   -2.0236   -0.3432 H   0  0  0  0  0  0  0  0  0  0  0  0
    0.1551   -2.7588   -0.2951 H   0  0  0  0  0  0  0  0  0  0  0  0
    3.3079    1.6056    3.1614 H   0  0  0  0  0  0  0  0  0  0  0  0
    5.7174    1.7535    2.5140 H   0  0  0  0  0  0  0  0  0  0  0  0
    4.7965   -0.4316   -1.0197 H   0  0  0  0  0  0  0  0  0  0  0  0
    2.2990   -2.3849   -1.4208 H   0  0  0  0  0  0  0  0  0  0  0  0
    0.6093    0.0742   -2.5410 H   0  0  0  0  0  0  0  0  0  0  0  0
    0.7601   -1.5697   -3.3722 H   0  0  0  0  0  0  0  0  0  0  0  0
    3.0937    0.3812   -2.5978 H   0  0  0  0  0  0  0  0  0  0  0  0
    3.2798   -1.2979   -3.4312 H   0  0  0  0  0  0  0  0  0  0  0  0
   -1.2610    1.0658    0.8136 H   0  0  0  0  0  0  0  0  0  0  0  0
  1  2  1  0
  2  3  1  0
  2  4  1  0
  2  5  1  0
  5  6  2  0
  6  7  1  0
  7  8  2  0
  8  9  1  0
  9 10  1  0
 10 11  2  0
 11 12  1  0
 12 13  2  0
 13 14  1  0
 14 15  2  0
 15 16  1  0
 15 17  1  0
 17 18  2  0
 18 19  1  0
 19 20  1  0
 20 21  1  0
 21 22  1  0
  9 23  2  0
 23  5  1  0
 19 10  1  0
 22 20  1  0
 18 12  1  0
  1 24  1  0
  1 25  1  0
  1 26  1  0
  3 27  1  0
  3 28  1  0
  3 29  1  0
  4 30  1  0
  6 31  1  0
  8 32  1  0
 13 33  1  0
 14 34  1  0
 17 35  1  0
 20 36  1  0
 21 37  1  0
 21 38  1  0
 22 39  1  0
 22 40  1  0
 23 41  1  0
M  END
$$$$
