@<TRIPOS>MOLECULE
*****
 70 74 0 0 0
SMALL
GASTEIGER

@<TRIPOS>ATOM
      1 O          -3.3348    1.1655   -1.5400 O.2     1  UNL1       -0.2528
      2 C          -3.0147    0.4164   -0.5855 C.2     1  UNL1        0.3004
      3 N          -1.6472    0.0863   -0.3979 N.am    1  UNL1       -0.2965
      4 C          -0.5945    0.5788   -1.2651 C.3     1  UNL1        0.0269
      5 C           0.4061    1.3044   -0.4139 C.3     1  UNL1       -0.0216
      6 C           1.7453    1.4592   -1.0920 C.3     1  UNL1        0.0009
      7 N           2.1999    0.2671   -1.7272 N.3     1  UNL1       -0.2980
      8 C           2.6784   -0.7569   -0.8510 C.3     1  UNL1        0.0255
      9 C           3.8408   -0.2821   -0.0582 C.ar    1  UNL1       -0.0155
     10 C           3.8082    0.3210    1.1614 C.ar    1  UNL1       -0.0394
     11 C           5.1116    0.5811    1.5023 C.ar    1  UNL1        0.0101
     12 N           5.9146    0.1530    0.5274 N.ar    1  UNL1       -0.3227
     13 C           7.3534    0.2329    0.4866 C.ar    1  UNL1        0.0460
     14 C           8.0600   -0.0891    1.6183 C.ar    1  UNL1       -0.0373
     15 C           9.4524   -0.0121    1.5784 C.ar    1  UNL1       -0.0482
     16 C          10.1381    0.3742    0.4466 C.ar    1  UNL1        0.0549
     17 C          11.6270    0.4489    0.4269 C.3     1  UNL1        0.4174
     18 F          12.0211   -0.1182   -0.7813 F       1  UNL1       -0.1659
     19 F          12.0784    1.7463    0.4941 F       1  UNL1       -0.1659
     20 F          12.0837   -0.3204    1.4838 F       1  UNL1       -0.1659
     21 C           9.4073    0.6959   -0.6879 C.ar    1  UNL1       -0.0482
     22 C           8.0124    0.6163   -0.6400 C.ar    1  UNL1       -0.0373
     23 C           5.1582   -0.3771   -0.4341 C.ar    1  UNL1        0.0142
     24 C           1.2550   -0.2250   -2.6876 C.3     1  UNL1        0.0009
     25 C          -0.0027   -0.6156   -1.9716 C.3     1  UNL1       -0.0216
     26 N          -4.0205   -0.0849    0.2849 N.am    1  UNL1       -0.2909
     27 C          -5.4185    0.2353    0.1163 C.3     1  UNL1        0.0677
     28 C          -6.0056    0.9397    1.2959 C.3     1  UNL1        0.0467
     29 N          -7.4109    1.1991    0.9895 N.ar    1  UNL1       -0.3347
     30 C          -8.4688    0.4212    1.2388 C.ar    1  UNL1        0.0241
     31 C          -9.5854    1.0761    0.7729 C.ar    1  UNL1        0.0454
     32 N          -9.1818    2.2312    0.2539 N.ar    1  UNL1       -0.2441
     33 C          -7.8529    2.3144    0.3822 C.ar    1  UNL1        0.0960
     34 C          -6.1783   -1.0025   -0.1313 C.ar    1  UNL1       -0.0255
     35 C          -5.9211   -2.1085    0.6520 C.ar    1  UNL1       -0.0567
     36 C          -6.6148   -3.2985    0.4537 C.ar    1  UNL1       -0.0614
     37 C          -7.5703   -3.3669   -0.5398 C.ar    1  UNL1       -0.0617
     38 C          -7.8242   -2.2578   -1.3208 C.ar    1  UNL1       -0.0614
     39 C          -7.1333   -1.0754   -1.1221 C.ar    1  UNL1       -0.0567
     40 H          -1.3540   -0.5382    0.3929 H       1  UNL1        0.1505
     41 H          -1.0567    1.2197   -2.0386 H       1  UNL1        0.0499
     42 H           0.0087    2.3462   -0.2543 H       1  UNL1        0.0295
     43 H           0.4956    0.8600    0.5960 H       1  UNL1        0.0295
     44 H           1.7380    2.3048   -1.8255 H       1  UNL1        0.0427
     45 H           2.4783    1.7570   -0.3167 H       1  UNL1        0.0427
     46 H           1.8570   -0.9934   -0.1336 H       1  UNL1        0.0476
     47 H           2.8730   -1.6726   -1.4173 H       1  UNL1        0.0476
     48 H           2.9007    0.5410    1.7319 H       1  UNL1        0.0636
     49 H           5.4524    1.0559    2.4110 H       1  UNL1        0.0813
     50 H           7.5483   -0.3904    2.5049 H       1  UNL1        0.0638
     51 H           9.9941   -0.2684    2.4766 H       1  UNL1        0.0624
     52 H           9.9201    1.0008   -1.5858 H       1  UNL1        0.0624
     53 H           7.4460    0.8684   -1.5278 H       1  UNL1        0.0638
     54 H           5.4936   -0.8263   -1.3858 H       1  UNL1        0.0816
     55 H           1.0826    0.5830   -3.4306 H       1  UNL1        0.0427
     56 H           1.7133   -1.0859   -3.2002 H       1  UNL1        0.0427
     57 H          -0.7485   -0.9367   -2.7446 H       1  UNL1        0.0295
     58 H           0.2154   -1.4602   -1.3040 H       1  UNL1        0.0295
     59 H          -3.7073   -0.7046    1.0655 H       1  UNL1        0.1509
     60 H          -5.5356    0.9046   -0.7677 H       1  UNL1        0.0566
     61 H          -5.9532    0.2994    2.2182 H       1  UNL1        0.0514
     62 H          -5.5442    1.9143    1.5247 H       1  UNL1        0.0514
     63 H          -8.4152   -0.5534    1.7273 H       1  UNL1        0.0825
     64 H         -10.6213    0.7162    0.8186 H       1  UNL1        0.0845
     65 H          -7.2700    3.1614    0.0379 H       1  UNL1        0.1029
     66 H          -5.1757   -2.0729    1.4351 H       1  UNL1        0.0621
     67 H          -6.4032   -4.1557    1.0739 H       1  UNL1        0.0618
     68 H          -8.1290   -4.2631   -0.7278 H       1  UNL1        0.0618
     69 H          -8.5576   -2.2937   -2.0910 H       1  UNL1        0.0618
     70 H          -7.3171   -0.1909   -1.7248 H       1  UNL1        0.0621
@<TRIPOS>BOND
     1     1     2    2
     2     2     3   am
     3     3     4    1
     4     4     5    1
     5     5     6    1
     6     6     7    1
     7     7     8    1
     8     8     9    1
     9     9    10   ar
    10    10    11   ar
    11    11    12   ar
    12    12    13    1
    13    13    14   ar
    14    14    15   ar
    15    15    16   ar
    16    16    17    1
    17    17    18    1
    18    17    19    1
    19    17    20    1
    20    16    21   ar
    21    21    22   ar
    22    12    23   ar
    23     7    24    1
    24    24    25    1
    25     2    26   am
    26    26    27    1
    27    27    28    1
    28    28    29    1
    29    29    30   ar
    30    30    31   ar
    31    31    32   ar
    32    32    33   ar
    33    27    34    1
    34    34    35   ar
    35    35    36   ar
    36    36    37   ar
    37    37    38   ar
    38    38    39   ar
    39    25     4    1
    40    33    29   ar
    41    39    34   ar
    42    23     9   ar
    43    22    13   ar
    44     3    40    1
    45     4    41    1
    46     5    42    1
    47     5    43    1
    48     6    44    1
    49     6    45    1
    50     8    46    1
    51     8    47    1
    52    10    48    1
    53    11    49    1
    54    14    50    1
    55    15    51    1
    56    21    52    1
    57    22    53    1
    58    23    54    1
    59    24    55    1
    60    24    56    1
    61    25    57    1
    62    25    58    1
    63    26    59    1
    64    27    60    1
    65    28    61    1
    66    28    62    1
    67    30    63    1
    68    31    64    1
    69    33    65    1
    70    35    66    1
    71    36    67    1
    72    37    68    1
    73    38    69    1
    74    39    70    1
