@<TRIPOS>MOLECULE
*****
 33 36 0 0 0
SMALL
GASTEIGER

@<TRIPOS>ATOM
      1 O          -3.7145    1.3493    5.0180 O.co2   1  UNL1       -0.5760
      2 N          -3.2781    0.3502    4.1828 N.pl3   1  UNL1        0.0796
      3 O          -3.6407   -0.8380    4.2489 O.2     1  UNL1        0.0414
      4 C          -2.3440    0.7083    3.1715 C.ar    1  UNL1        0.2738
      5 C          -1.8419   -0.2262    2.2774 C.ar    1  UNL1        0.0250
      6 C          -0.9359    0.1343    1.3006 C.ar    1  UNL1        0.0103
      7 C          -0.4878    1.4497    1.1712 C.ar    1  UNL1        0.0476
      8 N           0.3907    1.5664    0.1516 N.ar    1  UNL1       -0.3539
      9 C           0.4982    0.3397   -0.3589 C.ar    1  UNL1        0.0529
     10 C          -0.2989   -0.5859    0.3111 C.ar    1  UNL1       -0.0054
     11 C          -0.4810   -2.0461    0.0745 C.3     1  UNL1        0.0520
     12 C          -0.6379   -2.3421   -1.3914 C.2     1  UNL1        0.2216
     13 O          -1.6628   -3.0087   -1.7306 O.2     1  UNL1       -0.2751
     14 N           0.2070   -1.9797   -2.4759 N.am    1  UNL1       -0.2847
     15 C           1.2307   -0.9626   -2.4158 C.ar    1  UNL1        0.0426
     16 C           1.3689    0.0555   -1.4935 C.ar    1  UNL1        0.0198
     17 C           2.3883    0.9816   -1.5200 C.ar    1  UNL1       -0.0508
     18 C           3.3144    0.8435   -2.5606 C.ar    1  UNL1       -0.0610
     19 C           3.1928   -0.1790   -3.5037 C.ar    1  UNL1       -0.0600
     20 C           2.1527   -1.0894   -3.4407 C.ar    1  UNL1       -0.0398
     21 C          -0.9960    2.3654    2.0668 C.ar    1  UNL1       -0.0314
     22 C          -1.8968    2.0050    3.0373 C.ar    1  UNL1        0.0176
     23 H          -2.1678   -1.2714    2.3440 H       1  UNL1        0.0692
     24 H           0.8259    2.4776   -0.0917 H       1  UNL1        0.1659
     25 H           0.4405   -2.5715    0.4198 H       1  UNL1        0.0408
     26 H          -1.3335   -2.3967    0.6528 H       1  UNL1        0.0408
     27 H           0.1068   -2.4635   -3.3950 H       1  UNL1        0.1548
     28 H           2.5446    1.7919   -0.8251 H       1  UNL1        0.0625
     29 H           4.1391    1.5626   -2.6134 H       1  UNL1        0.0618
     30 H           3.9076   -0.2691   -4.2899 H       1  UNL1        0.0618
     31 H           2.0114   -1.8929   -4.1374 H       1  UNL1        0.0636
     32 H          -0.7134    3.4029    2.0498 H       1  UNL1        0.0640
     33 H          -2.2886    2.7388    3.7365 H       1  UNL1        0.0686
@<TRIPOS>UNITY_ATOM_ATTR
1 1
charge -1
2 1
charge 1
@<TRIPOS>BOND
     1     1     2    1
     2     2     3    2
     3     2     4    1
     4     4     5   ar
     5     5     6   ar
     6     6     7   ar
     7     7     8   ar
     8     8     9   ar
     9     9    10   ar
    10    10    11    1
    11    11    12    1
    12    12    13    2
    13    12    14   am
    14    14    15    1
    15    15    16   ar
    16    16    17   ar
    17    17    18   ar
    18    18    19   ar
    19    19    20   ar
    20     7    21   ar
    21    21    22   ar
    22    22     4   ar
    23    10     6   ar
    24    20    15   ar
    25    16     9    1
    26     5    23    1
    27     8    24    1
    28    11    25    1
    29    11    26    1
    30    14    27    1
    31    17    28    1
    32    18    29    1
    33    19    30    1
    34    20    31    1
    35    21    32    1
    36    22    33    1
