
     RDKit          3D

 33 36  0  0  0  0  0  0  0  0999 V2000
   -3.7145    1.3493    5.0180 O   0  0  0  0  0  1  0  0  0  0  0  0
   -3.2781    0.3502    4.1828 N   0  0  0  0  0  4  0  0  0  0  0  0
   -3.6407   -0.8380    4.2489 O   0  0  0  0  0  0  0  0  0  0  0  0
   -2.3440    0.7083    3.1715 C   0  0  0  0  0  0  0  0  0  0  0  0
   -1.8419   -0.2262    2.2774 C   0  0  0  0  0  0  0  0  0  0  0  0
   -0.9359    0.1343    1.3006 C   0  0  0  0  0  0  0  0  0  0  0  0
   -0.4878    1.4497    1.1712 C   0  0  0  0  0  0  0  0  0  0  0  0
    0.3907    1.5664    0.1516 N   0  0  0  0  0  0  0  0  0  0  0  0
    0.4982    0.3397   -0.3589 C   0  0  0  0  0  0  0  0  0  0  0  0
   -0.2989   -0.5859    0.3111 C   0  0  0  0  0  0  0  0  0  0  0  0
   -0.4810   -2.0461    0.0745 C   0  0  0  0  0  0  0  0  0  0  0  0
   -0.6379   -2.3421   -1.3914 C   0  0  0  0  0  0  0  0  0  0  0  0
   -1.6628   -3.0087   -1.7306 O   0  0  0  0  0  0  0  0  0  0  0  0
    0.2070   -1.9797   -2.4759 N   0  0  0  0  0  0  0  0  0  0  0  0
    1.2307   -0.9626   -2.4158 C   0  0  0  0  0  0  0  0  0  0  0  0
    1.3689    0.0555   -1.4935 C   0  0  0  0  0  0  0  0  0  0  0  0
    2.3883    0.9816   -1.5200 C   0  0  0  0  0  0  0  0  0  0  0  0
    3.3144    0.8435   -2.5606 C   0  0  0  0  0  0  0  0  0  0  0  0
    3.1928   -0.1790   -3.5037 C   0  0  0  0  0  0  0  0  0  0  0  0
    2.1527   -1.0894   -3.4407 C   0  0  0  0  0  0  0  0  0  0  0  0
   -0.9960    2.3654    2.0668 C   0  0  0  0  0  0  0  0  0  0  0  0
   -1.8968    2.0050    3.0373 C   0  0  0  0  0  0  0  0  0  0  0  0
   -2.1678   -1.2714    2.3440 H   0  0  0  0  0  0  0  0  0  0  0  0
    0.8259    2.4776   -0.0917 H   0  0  0  0  0  0  0  0  0  0  0  0
    0.4405   -2.5715    0.4198 H   0  0  0  0  0  0  0  0  0  0  0  0
   -1.3335   -2.3967    0.6528 H   0  0  0  0  0  0  0  0  0  0  0  0
    0.1068   -2.4635   -3.3950 H   0  0  0  0  0  0  0  0  0  0  0  0
    2.5446    1.7919   -0.8251 H   0  0  0  0  0  0  0  0  0  0  0  0
    4.1391    1.5626   -2.6134 H   0  0  0  0  0  0  0  0  0  0  0  0
    3.9076   -0.2691   -4.2899 H   0  0  0  0  0  0  0  0  0  0  0  0
    2.0114   -1.8929   -4.1374 H   0  0  0  0  0  0  0  0  0  0  0  0
   -0.7134    3.4029    2.0498 H   0  0  0  0  0  0  0  0  0  0  0  0
   -2.2886    2.7388    3.7365 H   0  0  0  0  0  0  0  0  0  0  0  0
  1  2  1  0
  2  3  2  0
  2  4  1  0
  4  5  2  0
  5  6  1  0
  6  7  2  0
  7  8  1  0
  8  9  1  0
  9 10  2  0
 10 11  1  0
 11 12  1  0
 12 13  2  0
 12 14  1  0
 14 15  1  0
 15 16  2  0
 16 17  1  0
 17 18  2  0
 18 19  1  0
 19 20  2  0
  7 21  1  0
 21 22  2  0
 22  4  1  0
 10  6  1  0
 20 15  1  0
 16  9  1  0
  5 23  1  0
  8 24  1  0
 11 25  1  0
 11 26  1  0
 14 27  1  0
 17 28  1  0
 18 29  1  0
 19 30  1  0
 20 31  1  0
 21 32  1  0
 22 33  1  0
M  CHG  2   1  -1   2   1
M  END
$$$$
