@<TRIPOS>MOLECULE
*****
 74 79 0 0 0
SMALL
GASTEIGER

@<TRIPOS>ATOM
      1 C          -2.9832    4.8662   -4.4587 C.3     1  UNL1       -0.0151
      2 N          -4.2241    4.7565   -3.8170 N.3     1  UNL1       -0.3089
      3 C          -4.2266    4.5114   -2.4339 C.3     1  UNL1        0.0820
      4 C          -5.6593    4.6386   -1.8520 C.3     1  UNL1       -0.0411
      5 C          -3.6448    3.2436   -1.9695 C.2     1  UNL1        0.2350
      6 O          -3.5234    3.0527   -0.6968 O.2     1  UNL1       -0.2737
      7 N          -3.1712    2.1481   -2.8010 N.am    1  UNL1       -0.2691
      8 C          -2.6367    1.0539   -2.1551 C.ar    1  UNL1        0.1263
      9 C          -3.1465   -0.0906   -1.6542 C.ar    1  UNL1       -0.0208
     10 C          -2.6660   -1.1577   -0.8827 C.ar    1  UNL1       -0.0466
     11 C          -1.1540   -0.9761   -0.5025 C.ar    1  UNL1        0.0349
     12 C          -0.5526   -1.9349    0.2275 C.ar    1  UNL1        0.0837
     13 C          -1.1185   -2.5011    1.4187 C.ar    1  UNL1        0.0978
     14 C          -2.4493   -2.2118    1.9110 C.ar    1  UNL1        0.0056
     15 C          -2.8431   -0.9550    2.2653 C.ar    1  UNL1       -0.0343
     16 C          -4.1572   -0.7428    2.6842 C.ar    1  UNL1        0.0285
     17 N          -5.0686   -1.7362    2.7538 N.ar    1  UNL1       -0.2601
     18 C          -4.7050   -3.0079    2.4052 C.ar    1  UNL1        0.0388
     19 C          -5.7010   -4.1256    2.4662 C.3     1  UNL1       -0.0223
     20 C          -3.4335   -3.2052    2.0016 C.ar    1  UNL1       -0.0314
     21 N          -0.2202   -3.3731    1.8485 N.ar    1  UNL1       -0.2272
     22 C           0.8411   -3.3956    1.0222 C.ar    1  UNL1        0.1390
     23 C           1.9796   -4.2113    1.1277 C.ar    1  UNL1       -0.0158
     24 C           2.9598   -4.1324    0.1758 C.ar    1  UNL1       -0.0456
     25 C           4.1898   -5.0067    0.2367 C.3     1  UNL1       -0.0395
     26 C           2.7841   -3.2369   -0.8657 C.ar    1  UNL1       -0.0421
     27 C           1.6283   -2.4558   -0.9043 C.ar    1  UNL1        0.0120
     28 N           0.6649   -2.5271    0.0225 N.ar    1  UNL1       -0.2986
     29 C          -1.1234    0.1658   -1.1651 C.ar    1  UNL1        0.1250
     30 C           0.5032    0.5413   -0.4724 C.1     1  UNL1       -0.0404
     31 C           1.5227    0.7760   -0.0587 C.1     1  UNL1       -0.0595
     32 C           2.8069    1.0688    0.4561 C.ar    1  UNL1        0.0259
     33 C           2.9712    1.3086    1.7702 C.ar    1  UNL1       -0.0457
     34 C           4.2597    1.4532    2.2980 C.ar    1  UNL1       -0.0512
     35 C           5.3242    1.3420    1.4329 C.ar    1  UNL1        0.0032
     36 C           6.6398    1.4320    1.8953 C.ar    1  UNL1        0.0459
     37 C           6.8360    1.6353    3.3321 C.3     1  UNL1       -0.0218
     38 N           7.6587    1.2914    1.0270 N.ar    1  UNL1       -0.2595
     39 C           7.5326    1.0625   -0.2777 C.ar    1  UNL1        0.0285
     40 C           6.2481    0.9608   -0.7888 C.ar    1  UNL1       -0.0358
     41 C           5.1882    1.1050    0.0975 C.ar    1  UNL1       -0.0136
     42 C           3.9103    0.9682   -0.3948 C.ar    1  UNL1       -0.0385
     43 N          -1.1033    1.2010   -1.7682 N.ar    1  UNL1       -0.2229
     44 H          -2.1708    4.8816   -3.6819 H       1  UNL1        0.0388
     45 H          -2.7780    4.0613   -5.2174 H       1  UNL1        0.0388
     46 H          -2.9276    5.8808   -4.9683 H       1  UNL1        0.0388
     47 H          -5.0855    4.6951   -4.3219 H       1  UNL1        0.1223
     48 H          -3.6754    5.3383   -1.8995 H       1  UNL1        0.0554
     49 H          -6.3739    4.2528   -2.5923 H       1  UNL1        0.0249
     50 H          -5.7033    4.0275   -0.9575 H       1  UNL1        0.0249
     51 H          -5.8702    5.7270   -1.6140 H       1  UNL1        0.0249
     52 H          -3.2776    2.2878   -3.8136 H       1  UNL1        0.1563
     53 H          -4.2647   -0.2049   -1.9312 H       1  UNL1        0.0652
     54 H          -3.1556   -1.9716   -0.5688 H       1  UNL1        0.0626
     55 H          -2.1929   -0.0898    2.2370 H       1  UNL1        0.0639
     56 H          -4.4951    0.2430    2.9673 H       1  UNL1        0.0830
     57 H          -6.1836   -4.1045    3.4743 H       1  UNL1        0.0292
     58 H          -5.1007   -5.0813    2.3742 H       1  UNL1        0.0292
     59 H          -6.4088   -4.1253    1.6449 H       1  UNL1        0.0292
     60 H          -3.0866   -4.2071    1.7011 H       1  UNL1        0.0642
     61 H           2.0670   -4.9056    1.9771 H       1  UNL1        0.0657
     62 H           4.5927   -5.1967   -0.7720 H       1  UNL1        0.0278
     63 H           3.8420   -6.0212    0.5994 H       1  UNL1        0.0278
     64 H           4.9031   -4.6610    0.9763 H       1  UNL1        0.0278
     65 H           3.5380   -3.1705   -1.6062 H       1  UNL1        0.0635
     66 H           1.4926   -1.7662   -1.7274 H       1  UNL1        0.0813
     67 H           2.1623    1.4049    2.4928 H       1  UNL1        0.0630
     68 H           4.4009    1.6403    3.3406 H       1  UNL1        0.0625
     69 H           6.1838    0.9010    3.8906 H       1  UNL1        0.0293
     70 H           6.5673    2.6491    3.6393 H       1  UNL1        0.0293
     71 H           7.8707    1.4057    3.6449 H       1  UNL1        0.0293
     72 H           8.3492    0.9444   -0.9672 H       1  UNL1        0.0830
     73 H           6.0546    0.7790   -1.8290 H       1  UNL1        0.0639
     74 H           3.7880    0.7870   -1.4489 H       1  UNL1        0.0636
@<TRIPOS>BOND
     1     1     2    1
     2     2     3    1
     3     3     4    1
     4     3     5    1
     5     5     6    2
     6     5     7   am
     7     7     8    1
     8     8     9   ar
     9     9    10   ar
    10    10    11   ar
    11    11    12    1
    12    12    13   ar
    13    13    14    1
    14    14    15   ar
    15    15    16   ar
    16    16    17   ar
    17    17    18   ar
    18    18    19    1
    19    18    20   ar
    20    13    21   ar
    21    21    22   ar
    22    22    23   ar
    23    23    24   ar
    24    24    25    1
    25    24    26   ar
    26    26    27   ar
    27    27    28   ar
    28    11    29   ar
    29    29    30    1
    30    30    31    3
    31    31    32    1
    32    32    33   ar
    33    33    34   ar
    34    34    35   ar
    35    35    36   ar
    36    36    37    1
    37    36    38   ar
    38    38    39   ar
    39    39    40   ar
    40    40    41   ar
    41    41    42   ar
    42    29    43   ar
    43    43     8   ar
    44    28    12   ar
    45    42    32   ar
    46    20    14   ar
    47    28    22   ar
    48    41    35   ar
    49     1    44    1
    50     1    45    1
    51     1    46    1
    52     2    47    1
    53     3    48    1
    54     4    49    1
    55     4    50    1
    56     4    51    1
    57     7    52    1
    58     9    53    1
    59    10    54    1
    60    15    55    1
    61    16    56    1
    62    19    57    1
    63    19    58    1
    64    19    59    1
    65    20    60    1
    66    23    61    1
    67    25    62    1
    68    25    63    1
    69    25    64    1
    70    26    65    1
    71    27    66    1
    72    33    67    1
    73    34    68    1
    74    37    69    1
    75    37    70    1
    76    37    71    1
    77    39    72    1
    78    40    73    1
    79    42    74    1
