
     RDKit          3D

 74 79  0  0  0  0  0  0  0  0999 V2000
   -2.9832    4.8662   -4.4587 C   0  0  0  0  0  0  0  0  0  0  0  0
   -4.2241    4.7565   -3.8170 N   0  0  0  0  0  0  0  0  0  0  0  0
   -4.2266    4.5114   -2.4339 C   0  0  1  0  0  0  0  0  0  0  0  0
   -5.6593    4.6386   -1.8520 C   0  0  0  0  0  0  0  0  0  0  0  0
   -3.6448    3.2436   -1.9695 C   0  0  0  0  0  0  0  0  0  0  0  0
   -3.5234    3.0527   -0.6968 O   0  0  0  0  0  0  0  0  0  0  0  0
   -3.1712    2.1481   -2.8010 N   0  0  0  0  0  0  0  0  0  0  0  0
   -2.6367    1.0539   -2.1551 C   0  0  0  0  0  0  0  0  0  0  0  0
   -3.1465   -0.0906   -1.6542 C   0  0  0  0  0  0  0  0  0  0  0  0
   -2.6660   -1.1577   -0.8827 C   0  0  0  0  0  0  0  0  0  0  0  0
   -1.1540   -0.9761   -0.5025 C   0  0  0  0  0  0  0  0  0  0  0  0
   -0.5526   -1.9349    0.2275 C   0  0  0  0  0  0  0  0  0  0  0  0
   -1.1185   -2.5011    1.4187 C   0  0  0  0  0  0  0  0  0  0  0  0
   -2.4493   -2.2118    1.9110 C   0  0  0  0  0  0  0  0  0  0  0  0
   -2.8431   -0.9550    2.2653 C   0  0  0  0  0  0  0  0  0  0  0  0
   -4.1572   -0.7428    2.6842 C   0  0  0  0  0  0  0  0  0  0  0  0
   -5.0686   -1.7362    2.7538 N   0  0  0  0  0  0  0  0  0  0  0  0
   -4.7050   -3.0079    2.4052 C   0  0  0  0  0  0  0  0  0  0  0  0
   -5.7010   -4.1256    2.4662 C   0  0  0  0  0  0  0  0  0  0  0  0
   -3.4335   -3.2052    2.0016 C   0  0  0  0  0  0  0  0  0  0  0  0
   -0.2202   -3.3731    1.8485 N   0  0  0  0  0  0  0  0  0  0  0  0
    0.8411   -3.3956    1.0222 C   0  0  0  0  0  0  0  0  0  0  0  0
    1.9796   -4.2113    1.1277 C   0  0  0  0  0  0  0  0  0  0  0  0
    2.9598   -4.1324    0.1758 C   0  0  0  0  0  0  0  0  0  0  0  0
    4.1898   -5.0067    0.2367 C   0  0  0  0  0  0  0  0  0  0  0  0
    2.7841   -3.2369   -0.8657 C   0  0  0  0  0  0  0  0  0  0  0  0
    1.6283   -2.4558   -0.9043 C   0  0  0  0  0  0  0  0  0  0  0  0
    0.6649   -2.5271    0.0225 N   0  0  0  0  0  0  0  0  0  0  0  0
   -1.1234    0.1658   -1.1651 C   0  0  0  0  0  0  0  0  0  0  0  0
    0.5032    0.5413   -0.4724 C   0  0  0  0  0  0  0  0  0  0  0  0
    1.5227    0.7760   -0.0587 C   0  0  0  0  0  0  0  0  0  0  0  0
    2.8069    1.0688    0.4561 C   0  0  0  0  0  0  0  0  0  0  0  0
    2.9712    1.3086    1.7702 C   0  0  0  0  0  0  0  0  0  0  0  0
    4.2597    1.4532    2.2980 C   0  0  0  0  0  0  0  0  0  0  0  0
    5.3242    1.3420    1.4329 C   0  0  0  0  0  0  0  0  0  0  0  0
    6.6398    1.4320    1.8953 C   0  0  0  0  0  0  0  0  0  0  0  0
    6.8360    1.6353    3.3321 C   0  0  0  0  0  0  0  0  0  0  0  0
    7.6587    1.2914    1.0270 N   0  0  0  0  0  0  0  0  0  0  0  0
    7.5326    1.0625   -0.2777 C   0  0  0  0  0  0  0  0  0  0  0  0
    6.2481    0.9608   -0.7888 C   0  0  0  0  0  0  0  0  0  0  0  0
    5.1882    1.1050    0.0975 C   0  0  0  0  0  0  0  0  0  0  0  0
    3.9103    0.9682   -0.3948 C   0  0  0  0  0  0  0  0  0  0  0  0
   -1.1033    1.2010   -1.7682 N   0  0  0  0  0  0  0  0  0  0  0  0
   -2.1708    4.8816   -3.6819 H   0  0  0  0  0  0  0  0  0  0  0  0
   -2.7780    4.0613   -5.2174 H   0  0  0  0  0  0  0  0  0  0  0  0
   -2.9276    5.8808   -4.9683 H   0  0  0  0  0  0  0  0  0  0  0  0
   -5.0855    4.6951   -4.3219 H   0  0  0  0  0  0  0  0  0  0  0  0
   -3.6754    5.3383   -1.8995 H   0  0  0  0  0  0  0  0  0  0  0  0
   -6.3739    4.2528   -2.5923 H   0  0  0  0  0  0  0  0  0  0  0  0
   -5.7033    4.0275   -0.9575 H   0  0  0  0  0  0  0  0  0  0  0  0
   -5.8702    5.7270   -1.6140 H   0  0  0  0  0  0  0  0  0  0  0  0
   -3.2776    2.2878   -3.8136 H   0  0  0  0  0  0  0  0  0  0  0  0
   -4.2647   -0.2049   -1.9312 H   0  0  0  0  0  0  0  0  0  0  0  0
   -3.1556   -1.9716   -0.5688 H   0  0  0  0  0  0  0  0  0  0  0  0
   -2.1929   -0.0898    2.2370 H   0  0  0  0  0  0  0  0  0  0  0  0
   -4.4951    0.2430    2.9673 H   0  0  0  0  0  0  0  0  0  0  0  0
   -6.1836   -4.1045    3.4743 H   0  0  0  0  0  0  0  0  0  0  0  0
   -5.1007   -5.0813    2.3742 H   0  0  0  0  0  0  0  0  0  0  0  0
   -6.4088   -4.1253    1.6449 H   0  0  0  0  0  0  0  0  0  0  0  0
   -3.0866   -4.2071    1.7011 H   0  0  0  0  0  0  0  0  0  0  0  0
    2.0670   -4.9056    1.9771 H   0  0  0  0  0  0  0  0  0  0  0  0
    4.5927   -5.1967   -0.7720 H   0  0  0  0  0  0  0  0  0  0  0  0
    3.8420   -6.0212    0.5994 H   0  0  0  0  0  0  0  0  0  0  0  0
    4.9031   -4.6610    0.9763 H   0  0  0  0  0  0  0  0  0  0  0  0
    3.5380   -3.1705   -1.6062 H   0  0  0  0  0  0  0  0  0  0  0  0
    1.4926   -1.7662   -1.7274 H   0  0  0  0  0  0  0  0  0  0  0  0
    2.1623    1.4049    2.4928 H   0  0  0  0  0  0  0  0  0  0  0  0
    4.4009    1.6403    3.3406 H   0  0  0  0  0  0  0  0  0  0  0  0
    6.1838    0.9010    3.8906 H   0  0  0  0  0  0  0  0  0  0  0  0
    6.5673    2.6491    3.6393 H   0  0  0  0  0  0  0  0  0  0  0  0
    7.8707    1.4057    3.6449 H   0  0  0  0  0  0  0  0  0  0  0  0
    8.3492    0.9444   -0.9672 H   0  0  0  0  0  0  0  0  0  0  0  0
    6.0546    0.7790   -1.8290 H   0  0  0  0  0  0  0  0  0  0  0  0
    3.7880    0.7870   -1.4489 H   0  0  0  0  0  0  0  0  0  0  0  0
  1  2  1  0
  2  3  1  0
  3  4  1  0
  3  5  1  0
  5  6  2  0
  5  7  1  0
  7  8  1  0
  8  9  2  0
  9 10  1  0
 10 11  2  0
 11 12  1  0
 12 13  2  0
 13 14  1  0
 14 15  2  0
 15 16  1  0
 16 17  2  0
 17 18  1  0
 18 19  1  0
 18 20  2  0
 13 21  1  0
 21 22  2  0
 22 23  1  0
 23 24  2  0
 24 25  1  0
 24 26  1  0
 26 27  2  0
 27 28  1  0
 11 29  1  0
 29 30  1  0
 30 31  3  0
 31 32  1  0
 32 33  2  0
 33 34  1  0
 34 35  2  0
 35 36  1  0
 36 37  1  0
 36 38  2  0
 38 39  1  0
 39 40  2  0
 40 41  1  0
 41 42  2  0
 29 43  2  0
 43  8  1  0
 28 12  1  0
 42 32  1  0
 20 14  1  0
 28 22  1  0
 41 35  1  0
  1 44  1  0
  1 45  1  0
  1 46  1  0
  2 47  1  0
  3 48  1  1
  4 49  1  0
  4 50  1  0
  4 51  1  0
  7 52  1  0
  9 53  1  0
 10 54  1  0
 15 55  1  0
 16 56  1  0
 19 57  1  0
 19 58  1  0
 19 59  1  0
 20 60  1  0
 23 61  1  0
 25 62  1  0
 25 63  1  0
 25 64  1  0
 26 65  1  0
 27 66  1  0
 33 67  1  0
 34 68  1  0
 37 69  1  0
 37 70  1  0
 37 71  1  0
 39 72  1  0
 40 73  1  0
 42 74  1  0
M  END
$$$$
