@<TRIPOS>MOLECULE
*****
 36 36 0 0 0
SMALL
GASTEIGER

@<TRIPOS>ATOM
      1 C           4.7057    0.2911   -0.7010 C.3     1  UNL1       -0.0652
      2 C           3.6223   -0.3223    0.1389 C.3     1  UNL1       -0.0548
      3 C           2.2527    0.1547   -0.3784 C.3     1  UNL1       -0.0404
      4 C           1.1388   -0.4174    0.4101 C.3     1  UNL1       -0.0006
      5 N          -0.1951   -0.0695    0.0548 N.3     1  UNL1       -0.2923
      6 C          -0.4892    1.3170    0.3222 C.3     1  UNL1        0.0279
      7 C          -1.8041    1.7969   -0.1553 C.3     1  UNL1        0.0962
      8 O          -2.3954    2.6554    0.7935 O.3     1  UNL1       -0.3879
      9 C          -2.7889    0.7539   -0.5217 C.3     1  UNL1        0.1095
     10 O          -2.9261    0.6839   -1.9290 O.3     1  UNL1       -0.3866
     11 C          -2.5773   -0.5887    0.0566 C.3     1  UNL1        0.1011
     12 O          -3.4947   -0.8983    1.0791 O.3     1  UNL1       -0.3875
     13 C          -1.2136   -0.8645    0.6409 C.3     1  UNL1        0.0621
     14 C          -1.0352   -2.3488    0.5038 C.3     1  UNL1        0.0622
     15 O          -1.0030   -2.6639   -0.8740 O.3     1  UNL1       -0.3934
     16 H           4.3029    0.8696   -1.5590 H       1  UNL1        0.0230
     17 H           5.3485    0.9944   -0.1066 H       1  UNL1        0.0230
     18 H           5.3639   -0.5122   -1.1133 H       1  UNL1        0.0230
     19 H           3.6635   -1.4229    0.1407 H       1  UNL1        0.0263
     20 H           3.7574    0.0489    1.1800 H       1  UNL1        0.0263
     21 H           2.2518   -0.1372   -1.4517 H       1  UNL1        0.0277
     22 H           2.3378    1.2522   -0.3562 H       1  UNL1        0.0277
     23 H           1.3845   -0.1659    1.4838 H       1  UNL1        0.0427
     24 H           1.2223   -1.5259    0.3605 H       1  UNL1        0.0427
     25 H           0.3145    1.9161   -0.1724 H       1  UNL1        0.0453
     26 H          -0.4500    1.4349    1.4379 H       1  UNL1        0.0453
     27 H          -1.6831    2.4734   -1.0504 H       1  UNL1        0.0633
     28 H          -1.9235    2.5121    1.6513 H       1  UNL1        0.2099
     29 H          -3.8207    1.0668   -0.1754 H       1  UNL1        0.0646
     30 H          -3.5397    1.4070   -2.2127 H       1  UNL1        0.2100
     31 H          -2.8133   -1.3407   -0.7476 H       1  UNL1        0.0636
     32 H          -3.5152   -0.1684    1.7391 H       1  UNL1        0.2100
     33 H          -1.2085   -0.6431    1.7487 H       1  UNL1        0.0511
     34 H          -1.9870   -2.8176    0.8544 H       1  UNL1        0.0573
     35 H          -0.2265   -2.8000    1.0542 H       1  UNL1        0.0573
     36 H          -0.5764   -1.9211   -1.3588 H       1  UNL1        0.2095
@<TRIPOS>BOND
     1     1     2    1
     2     2     3    1
     3     3     4    1
     4     4     5    1
     5     5     6    1
     6     6     7    1
     7     7     8    1
     8     7     9    1
     9     9    10    1
    10     9    11    1
    11    11    12    1
    12    11    13    1
    13    13    14    1
    14    14    15    1
    15    13     5    1
    16     1    16    1
    17     1    17    1
    18     1    18    1
    19     2    19    1
    20     2    20    1
    21     3    21    1
    22     3    22    1
    23     4    23    1
    24     4    24    1
    25     6    25    1
    26     6    26    1
    27     7    27    1
    28     8    28    1
    29     9    29    1
    30    10    30    1
    31    11    31    1
    32    12    32    1
    33    13    33    1
    34    14    34    1
    35    14    35    1
    36    15    36    1
