@<TRIPOS>MOLECULE
*****
 47 50 0 0 0
SMALL
GASTEIGER

@<TRIPOS>ATOM
      1 C           7.9051   -0.3849   -0.4724 C.3     1  UNL1       -0.0638
      2 C           7.3722   -0.2520   -1.8828 C.3     1  UNL1       -0.0360
      3 C           5.8649   -0.3011   -1.8445 C.3     1  UNL1        0.0706
      4 S           5.1947    1.0138   -0.8565 S.O2    1  UNL1       -0.0030
      5 O           5.7369    2.3142   -1.3831 O.2     1  UNL1       -0.1694
      6 O           5.7086    0.8711    0.5621 O.2     1  UNL1       -0.1694
      7 C           3.4692    0.9747   -0.8001 C.ar    1  UNL1        0.0902
      8 C           2.7464    1.6709   -1.7578 C.ar    1  UNL1       -0.0347
      9 C           1.3659    1.6670   -1.7503 C.ar    1  UNL1       -0.0324
     10 C           0.6691    0.9617   -0.7779 C.ar    1  UNL1        0.0896
     11 N          -0.6150    0.7669   -0.5077 N.ar    1  UNL1       -0.2277
     12 C          -0.6955   -0.0243    0.5822 C.ar    1  UNL1        0.1407
     13 C          -1.9207   -0.4726    1.2016 C.ar    1  UNL1        0.0340
     14 C          -1.8592   -1.2811    2.3151 C.ar    1  UNL1       -0.0446
     15 C          -3.0227   -1.7020    2.8966 C.ar    1  UNL1        0.0040
     16 C          -4.2092   -1.2939    2.3364 C.ar    1  UNL1        0.2557
     17 O          -5.2901   -1.6929    2.8878 O.2     1  UNL1       -0.2673
     18 N          -4.2679   -0.5045    1.2491 N.ar    1  UNL1       -0.2835
     19 C          -5.5624   -0.1260    0.7300 C.ar    1  UNL1        0.0495
     20 C          -6.0715   -0.7192   -0.4051 C.ar    1  UNL1       -0.0377
     21 C          -7.3167   -0.3520   -0.9006 C.ar    1  UNL1       -0.0598
     22 C          -8.0800    0.6079   -0.2822 C.ar    1  UNL1       -0.0616
     23 C          -7.5749    1.2046    0.8542 C.ar    1  UNL1       -0.0598
     24 C          -6.3317    0.8366    1.3471 C.ar    1  UNL1       -0.0377
     25 C          -3.1382   -0.0992    0.6892 C.ar    1  UNL1        0.0238
     26 N           0.5397   -0.3367    1.0105 N.ar    1  UNL1       -0.3378
     27 C           1.3948    0.2762    0.1650 C.ar    1  UNL1        0.0683
     28 C           2.7697    0.2818    0.1553 C.ar    1  UNL1       -0.0114
     29 H           7.2299   -0.9436    0.1939 H       1  UNL1        0.0230
     30 H           8.0231    0.6374   -0.0381 H       1  UNL1        0.0230
     31 H           8.8810   -0.8828   -0.5239 H       1  UNL1        0.0230
     32 H           7.7226   -1.0681   -2.5333 H       1  UNL1        0.0278
     33 H           7.7264    0.7157   -2.3064 H       1  UNL1        0.0278
     34 H           5.5126   -0.1597   -2.8958 H       1  UNL1        0.0504
     35 H           5.5585   -1.2922   -1.5072 H       1  UNL1        0.0504
     36 H           3.2711    2.2273   -2.5249 H       1  UNL1        0.0637
     37 H           0.7926    2.2060   -2.4917 H       1  UNL1        0.0640
     38 H          -0.9039   -1.5999    2.7527 H       1  UNL1        0.0627
     39 H          -3.0087   -2.3474    3.7857 H       1  UNL1        0.0672
     40 H          -5.5142   -1.4769   -0.9280 H       1  UNL1        0.0638
     41 H          -7.7417   -0.8044   -1.7946 H       1  UNL1        0.0618
     42 H          -9.0515    0.8948   -0.6682 H       1  UNL1        0.0618
     43 H          -8.1970    1.9571    1.3207 H       1  UNL1        0.0618
     44 H          -5.9526    1.3173    2.2413 H       1  UNL1        0.0638
     45 H          -3.2207    0.5455   -0.1988 H       1  UNL1        0.0821
     46 H           0.7926   -0.9357    1.8350 H       1  UNL1        0.1674
     47 H           3.2983   -0.2741    0.9200 H       1  UNL1        0.0658
@<TRIPOS>BOND
     1     1     2    1
     2     2     3    1
     3     3     4    1
     4     4     5    2
     5     4     6    2
     6     4     7    1
     7     7     8   ar
     8     8     9   ar
     9     9    10   ar
    10    10    11   ar
    11    11    12   ar
    12    12    13    1
    13    13    14   ar
    14    14    15   ar
    15    15    16   ar
    16    16    17    2
    17    16    18   ar
    18    18    19    1
    19    19    20   ar
    20    20    21   ar
    21    21    22   ar
    22    22    23   ar
    23    23    24   ar
    24    18    25   ar
    25    12    26   ar
    26    26    27   ar
    27    27    28   ar
    28    28     7   ar
    29    27    10   ar
    30    25    13   ar
    31    24    19   ar
    32     1    29    1
    33     1    30    1
    34     1    31    1
    35     2    32    1
    36     2    33    1
    37     3    34    1
    38     3    35    1
    39     8    36    1
    40     9    37    1
    41    14    38    1
    42    15    39    1
    43    20    40    1
    44    21    41    1
    45    22    42    1
    46    23    43    1
    47    24    44    1
    48    25    45    1
    49    26    46    1
    50    28    47    1
