
     RDKit          3D

 47 50  0  0  0  0  0  0  0  0999 V2000
    7.9051   -0.3849   -0.4724 C   0  0  0  0  0  0  0  0  0  0  0  0
    7.3722   -0.2520   -1.8828 C   0  0  0  0  0  0  0  0  0  0  0  0
    5.8649   -0.3011   -1.8445 C   0  0  0  0  0  0  0  0  0  0  0  0
    5.1947    1.0138   -0.8565 S   0  0  0  0  0  6  0  0  0  0  0  0
    5.7369    2.3142   -1.3831 O   0  0  0  0  0  0  0  0  0  0  0  0
    5.7086    0.8711    0.5621 O   0  0  0  0  0  0  0  0  0  0  0  0
    3.4692    0.9747   -0.8001 C   0  0  0  0  0  0  0  0  0  0  0  0
    2.7464    1.6709   -1.7578 C   0  0  0  0  0  0  0  0  0  0  0  0
    1.3659    1.6670   -1.7503 C   0  0  0  0  0  0  0  0  0  0  0  0
    0.6691    0.9617   -0.7779 C   0  0  0  0  0  0  0  0  0  0  0  0
   -0.6150    0.7669   -0.5077 N   0  0  0  0  0  0  0  0  0  0  0  0
   -0.6955   -0.0243    0.5822 C   0  0  0  0  0  0  0  0  0  0  0  0
   -1.9207   -0.4726    1.2016 C   0  0  0  0  0  0  0  0  0  0  0  0
   -1.8592   -1.2811    2.3151 C   0  0  0  0  0  0  0  0  0  0  0  0
   -3.0227   -1.7020    2.8966 C   0  0  0  0  0  0  0  0  0  0  0  0
   -4.2092   -1.2939    2.3364 C   0  0  0  0  0  0  0  0  0  0  0  0
   -5.2901   -1.6929    2.8878 O   0  0  0  0  0  0  0  0  0  0  0  0
   -4.2679   -0.5045    1.2491 N   0  0  0  0  0  0  0  0  0  0  0  0
   -5.5624   -0.1260    0.7300 C   0  0  0  0  0  0  0  0  0  0  0  0
   -6.0715   -0.7192   -0.4051 C   0  0  0  0  0  0  0  0  0  0  0  0
   -7.3167   -0.3520   -0.9006 C   0  0  0  0  0  0  0  0  0  0  0  0
   -8.0800    0.6079   -0.2822 C   0  0  0  0  0  0  0  0  0  0  0  0
   -7.5749    1.2046    0.8542 C   0  0  0  0  0  0  0  0  0  0  0  0
   -6.3317    0.8366    1.3471 C   0  0  0  0  0  0  0  0  0  0  0  0
   -3.1382   -0.0992    0.6892 C   0  0  0  0  0  0  0  0  0  0  0  0
    0.5397   -0.3367    1.0105 N   0  0  0  0  0  0  0  0  0  0  0  0
    1.3948    0.2762    0.1650 C   0  0  0  0  0  0  0  0  0  0  0  0
    2.7697    0.2818    0.1553 C   0  0  0  0  0  0  0  0  0  0  0  0
    7.2299   -0.9436    0.1939 H   0  0  0  0  0  0  0  0  0  0  0  0
    8.0231    0.6374   -0.0381 H   0  0  0  0  0  0  0  0  0  0  0  0
    8.8810   -0.8828   -0.5239 H   0  0  0  0  0  0  0  0  0  0  0  0
    7.7226   -1.0681   -2.5333 H   0  0  0  0  0  0  0  0  0  0  0  0
    7.7264    0.7157   -2.3064 H   0  0  0  0  0  0  0  0  0  0  0  0
    5.5126   -0.1597   -2.8958 H   0  0  0  0  0  0  0  0  0  0  0  0
    5.5585   -1.2922   -1.5072 H   0  0  0  0  0  0  0  0  0  0  0  0
    3.2711    2.2273   -2.5249 H   0  0  0  0  0  0  0  0  0  0  0  0
    0.7926    2.2060   -2.4917 H   0  0  0  0  0  0  0  0  0  0  0  0
   -0.9039   -1.5999    2.7527 H   0  0  0  0  0  0  0  0  0  0  0  0
   -3.0087   -2.3474    3.7857 H   0  0  0  0  0  0  0  0  0  0  0  0
   -5.5142   -1.4769   -0.9280 H   0  0  0  0  0  0  0  0  0  0  0  0
   -7.7417   -0.8044   -1.7946 H   0  0  0  0  0  0  0  0  0  0  0  0
   -9.0515    0.8948   -0.6682 H   0  0  0  0  0  0  0  0  0  0  0  0
   -8.1970    1.9571    1.3207 H   0  0  0  0  0  0  0  0  0  0  0  0
   -5.9526    1.3173    2.2413 H   0  0  0  0  0  0  0  0  0  0  0  0
   -3.2207    0.5455   -0.1988 H   0  0  0  0  0  0  0  0  0  0  0  0
    0.7926   -0.9357    1.8350 H   0  0  0  0  0  0  0  0  0  0  0  0
    3.2983   -0.2741    0.9200 H   0  0  0  0  0  0  0  0  0  0  0  0
  1  2  1  0
  2  3  1  0
  3  4  1  0
  4  5  2  0
  4  6  2  0
  4  7  1  0
  7  8  2  0
  8  9  1  0
  9 10  2  0
 10 11  1  0
 11 12  2  0
 12 13  1  0
 13 14  1  0
 14 15  2  0
 15 16  1  0
 16 17  2  0
 16 18  1  0
 18 19  1  0
 19 20  2  0
 20 21  1  0
 21 22  2  0
 22 23  1  0
 23 24  2  0
 18 25  1  0
 12 26  1  0
 26 27  1  0
 27 28  2  0
 28  7  1  0
 27 10  1  0
 25 13  2  0
 24 19  1  0
  1 29  1  0
  1 30  1  0
  1 31  1  0
  2 32  1  0
  2 33  1  0
  3 34  1  0
  3 35  1  0
  8 36  1  0
  9 37  1  0
 14 38  1  0
 15 39  1  0
 20 40  1  0
 21 41  1  0
 22 42  1  0
 23 43  1  0
 24 44  1  0
 25 45  1  0
 26 46  1  0
 28 47  1  0
M  END
$$$$
