@<TRIPOS>MOLECULE
*****
 43 45 0 0 0
SMALL
GASTEIGER

@<TRIPOS>ATOM
      1 C          -4.1867   -1.2659    0.2392 C.3     1  UNL1       -0.0444
      2 C          -3.2973   -2.4436    0.0302 C.3     1  UNL1        0.0317
      3 C          -3.2343   -3.2948    1.3085 C.3     1  UNL1       -0.0444
      4 N          -1.9405   -2.1196   -0.3021 N.ar    1  UNL1       -0.3123
      5 C          -0.9546   -3.0096   -0.4157 C.ar    1  UNL1        0.0986
      6 N           0.1865   -2.3813   -0.7306 N.ar    1  UNL1       -0.2306
      7 C          -0.0715   -1.0654   -0.8208 C.ar    1  UNL1        0.1479
      8 C           0.7220    0.0479   -1.1112 C.ar    1  UNL1        0.1558
      9 N           2.0978   -0.1610   -1.3911 N.pl3   1  UNL1       -0.2975
     10 C           3.0299   -0.3002   -0.3301 C.ar    1  UNL1        0.0338
     11 C           2.5696   -0.2966    0.9786 C.ar    1  UNL1       -0.0404
     12 C           3.4543   -0.4381    2.0210 C.ar    1  UNL1       -0.0586
     13 C           4.8109   -0.5878    1.8336 C.ar    1  UNL1       -0.0433
     14 C           5.2554   -0.5897    0.5250 C.ar    1  UNL1        0.0427
     15 CL          6.9943   -0.7866    0.2743 Cl      1  UNL1       -0.0835
     16 C           4.3821   -0.4486   -0.5344 C.ar    1  UNL1       -0.0222
     17 N           0.1275    1.2498   -1.1142 N.ar    1  UNL1       -0.1971
     18 C          -1.1960    1.4285   -0.8502 C.ar    1  UNL1        0.2189
     19 N          -1.7382    2.7458   -0.8724 N.pl3   1  UNL1       -0.3112
     20 C          -0.9218    3.9135   -1.0910 C.3     1  UNL1        0.0350
     21 C           0.0423    4.0160    0.0843 C.3     1  UNL1        0.0597
     22 O           0.8438    5.1619   -0.1329 O.3     1  UNL1       -0.3935
     23 N          -1.9111    0.3461   -0.5794 N.ar    1  UNL1       -0.1947
     24 C          -1.4204   -0.9044   -0.5487 C.ar    1  UNL1        0.1675
     25 H          -3.7048   -0.4492    0.7732 H       1  UNL1        0.0249
     26 H          -5.0890   -1.6017    0.8008 H       1  UNL1        0.0249
     27 H          -4.4726   -0.8875   -0.7770 H       1  UNL1        0.0249
     28 H          -3.7840   -3.0825   -0.7563 H       1  UNL1        0.0523
     29 H          -2.7400   -2.6873    2.0975 H       1  UNL1        0.0249
     30 H          -2.6534   -4.2276    1.0681 H       1  UNL1        0.0249
     31 H          -4.2524   -3.6110    1.5275 H       1  UNL1        0.0249
     32 H          -1.0188   -4.0802   -0.2830 H       1  UNL1        0.1029
     33 H           2.4699   -0.2174   -2.3664 H       1  UNL1        0.1536
     34 H           1.4973   -0.1809    1.1668 H       1  UNL1        0.0636
     35 H           3.0790   -0.4338    3.0404 H       1  UNL1        0.0619
     36 H           5.4872   -0.6972    2.6684 H       1  UNL1        0.0632
     37 H           4.7787   -0.4558   -1.5427 H       1  UNL1        0.0651
     38 H          -2.7614    2.8739   -0.7278 H       1  UNL1        0.1490
     39 H          -1.4993    4.8281   -1.2525 H       1  UNL1        0.0484
     40 H          -0.3273    3.7358   -2.0187 H       1  UNL1        0.0484
     41 H           0.6953    3.1372    0.1562 H       1  UNL1        0.0573
     42 H          -0.5213    4.0929    1.0343 H       1  UNL1        0.0573
     43 H           1.1725    5.1277   -1.0786 H       1  UNL1        0.2095
@<TRIPOS>BOND
     1     1     2    1
     2     2     3    1
     3     2     4    1
     4     4     5   ar
     5     5     6   ar
     6     6     7   ar
     7     7     8   ar
     8     8     9    1
     9     9    10    1
    10    10    11   ar
    11    11    12   ar
    12    12    13   ar
    13    13    14   ar
    14    14    15    1
    15    14    16   ar
    16     8    17   ar
    17    17    18   ar
    18    18    19    1
    19    19    20    1
    20    20    21    1
    21    21    22    1
    22    18    23   ar
    23    23    24   ar
    24    24     4   ar
    25    24     7   ar
    26    16    10   ar
    27     1    25    1
    28     1    26    1
    29     1    27    1
    30     2    28    1
    31     3    29    1
    32     3    30    1
    33     3    31    1
    34     5    32    1
    35     9    33    1
    36    11    34    1
    37    12    35    1
    38    13    36    1
    39    16    37    1
    40    19    38    1
    41    20    39    1
    42    20    40    1
    43    21    41    1
    44    21    42    1
    45    22    43    1
