@<TRIPOS>MOLECULE
*****
 54 56 0 0 0
SMALL
GASTEIGER

@<TRIPOS>ATOM
      1 C          -6.3587   -0.2723    0.3032 C.3     1  UNL1       -0.0518
      2 C          -5.3518    0.3224    1.2674 C.3     1  UNL1        0.0386
      3 C          -6.0962    1.2446    2.1880 C.3     1  UNL1       -0.0518
      4 C          -4.7733   -0.8117    2.0857 C.3     1  UNL1       -0.0518
      5 C          -4.2826    1.0548    0.5896 C.2     1  UNL1        0.2184
      6 O          -4.1227    2.2781    0.8381 O.2     1  UNL1       -0.2752
      7 N          -3.3918    0.4651   -0.3521 N.am    1  UNL1       -0.3149
      8 C          -2.3692    1.2715   -0.9671 C.3     1  UNL1        0.0119
      9 C          -1.5225    0.4756   -1.9362 C.3     1  UNL1       -0.0344
     10 C          -0.8233   -0.6765   -1.2486 C.3     1  UNL1       -0.0368
     11 C           0.0701   -0.1552   -0.1657 C.3     1  UNL1       -0.0342
     12 C           1.2385   -1.1100    0.1270 C.3     1  UNL1        0.0138
     13 N           2.0537   -1.1243   -1.0449 N.pl3   1  UNL1       -0.3142
     14 C           3.3981   -1.5137   -1.1327 C.ar    1  UNL1        0.1389
     15 N           3.8535   -2.5384   -1.9188 N.ar    1  UNL1       -0.2196
     16 C           5.1918   -2.7602   -1.8656 C.ar    1  UNL1        0.1188
     17 N           6.0541   -2.0724   -1.1276 N.ar    1  UNL1       -0.2347
     18 C           5.6410   -1.0267   -0.3161 C.ar    1  UNL1        0.0838
     19 C           6.4056   -0.2561    0.4745 C.ar    1  UNL1       -0.0163
     20 C           5.8385    0.7234    1.2022 C.ar    1  UNL1        0.0763
     21 C           6.3335    1.6980    2.1170 C.2     1  UNL1        0.2482
     22 N           7.7167    1.7237    2.3881 N.am    1  UNL1       -0.3249
     23 O           5.5874    2.5283    2.6861 O.2     1  UNL1       -0.2698
     24 S           4.0843    0.5377    0.7288 S.2     1  UNL1       -0.0787
     25 C           4.3142   -0.7962   -0.3598 C.ar    1  UNL1        0.0781
     26 C           1.3911   -0.6791   -2.2801 C.3     1  UNL1        0.0138
     27 C           0.0375   -1.3610   -2.2814 C.3     1  UNL1       -0.0342
     28 H          -5.9558   -1.1488   -0.2399 H       1  UNL1        0.0239
     29 H          -6.7295    0.4822   -0.4106 H       1  UNL1        0.0239
     30 H          -7.2155   -0.6278    0.9137 H       1  UNL1        0.0239
     31 H          -6.9964    1.6378    1.6477 H       1  UNL1        0.0239
     32 H          -5.4956    2.1536    2.4412 H       1  UNL1        0.0239
     33 H          -6.3663    0.7009    3.1025 H       1  UNL1        0.0239
     34 H          -4.2029   -0.3624    2.9229 H       1  UNL1        0.0239
     35 H          -4.0762   -1.4182    1.4455 H       1  UNL1        0.0239
     36 H          -5.6146   -1.4422    2.4403 H       1  UNL1        0.0239
     37 H          -3.5122   -0.5363   -0.5645 H       1  UNL1        0.1487
     38 H          -1.6951    1.6834   -0.1986 H       1  UNL1        0.0462
     39 H          -2.8824    2.0878   -1.5130 H       1  UNL1        0.0462
     40 H          -2.1845    0.0849   -2.7366 H       1  UNL1        0.0283
     41 H          -0.7648    1.1784   -2.3420 H       1  UNL1        0.0283
     42 H          -1.6071   -1.3459   -0.8411 H       1  UNL1        0.0302
     43 H           0.5266    0.8116   -0.4702 H       1  UNL1        0.0283
     44 H          -0.5232   -0.0096    0.7578 H       1  UNL1        0.0283
     45 H           0.8082   -2.0933    0.3783 H       1  UNL1        0.0464
     46 H           1.7336   -0.6781    1.0164 H       1  UNL1        0.0464
     47 H           5.5851   -3.5629   -2.4748 H       1  UNL1        0.1048
     48 H           7.5261   -0.3872    0.5653 H       1  UNL1        0.0652
     49 H           8.0898    1.3954    3.2973 H       1  UNL1        0.1453
     50 H           8.3855    2.0735    1.6780 H       1  UNL1        0.1453
     51 H           1.9321   -1.0247   -3.1779 H       1  UNL1        0.0464
     52 H           1.3294    0.4129   -2.3306 H       1  UNL1        0.0464
     53 H          -0.4111   -1.2087   -3.2699 H       1  UNL1        0.0283
     54 H           0.1991   -2.4312   -2.0362 H       1  UNL1        0.0283
@<TRIPOS>BOND
     1     1     2    1
     2     2     3    1
     3     2     4    1
     4     2     5    1
     5     5     6    2
     6     5     7   am
     7     7     8    1
     8     8     9    1
     9     9    10    1
    10    10    11    1
    11    11    12    1
    12    12    13    1
    13    13    14    1
    14    14    15   ar
    15    15    16   ar
    16    16    17   ar
    17    17    18   ar
    18    18    19   ar
    19    19    20   ar
    20    20    21    1
    21    21    22   am
    22    21    23    2
    23    20    24   ar
    24    24    25   ar
    25    13    26    1
    26    26    27    1
    27    27    10    1
    28    25    14   ar
    29    25    18   ar
    30     1    28    1
    31     1    29    1
    32     1    30    1
    33     3    31    1
    34     3    32    1
    35     3    33    1
    36     4    34    1
    37     4    35    1
    38     4    36    1
    39     7    37    1
    40     8    38    1
    41     8    39    1
    42     9    40    1
    43     9    41    1
    44    10    42    1
    45    11    43    1
    46    11    44    1
    47    12    45    1
    48    12    46    1
    49    16    47    1
    50    19    48    1
    51    22    49    1
    52    22    50    1
    53    26    51    1
    54    26    52    1
    55    27    53    1
    56    27    54    1
