
     RDKit          3D

 54 56  0  0  0  0  0  0  0  0999 V2000
   -6.3587   -0.2723    0.3032 C   0  0  0  0  0  0  0  0  0  0  0  0
   -5.3518    0.3224    1.2674 C   0  0  0  0  0  0  0  0  0  0  0  0
   -6.0962    1.2446    2.1880 C   0  0  0  0  0  0  0  0  0  0  0  0
   -4.7733   -0.8117    2.0857 C   0  0  0  0  0  0  0  0  0  0  0  0
   -4.2826    1.0548    0.5896 C   0  0  0  0  0  0  0  0  0  0  0  0
   -4.1227    2.2781    0.8381 O   0  0  0  0  0  0  0  0  0  0  0  0
   -3.3918    0.4651   -0.3521 N   0  0  0  0  0  0  0  0  0  0  0  0
   -2.3692    1.2715   -0.9671 C   0  0  0  0  0  0  0  0  0  0  0  0
   -1.5225    0.4756   -1.9362 C   0  0  0  0  0  0  0  0  0  0  0  0
   -0.8233   -0.6765   -1.2486 C   0  0  0  0  0  0  0  0  0  0  0  0
    0.0701   -0.1552   -0.1657 C   0  0  0  0  0  0  0  0  0  0  0  0
    1.2385   -1.1100    0.1270 C   0  0  0  0  0  0  0  0  0  0  0  0
    2.0537   -1.1243   -1.0449 N   0  0  0  0  0  0  0  0  0  0  0  0
    3.3981   -1.5137   -1.1327 C   0  0  0  0  0  0  0  0  0  0  0  0
    3.8535   -2.5384   -1.9188 N   0  0  0  0  0  0  0  0  0  0  0  0
    5.1918   -2.7602   -1.8656 C   0  0  0  0  0  0  0  0  0  0  0  0
    6.0541   -2.0724   -1.1276 N   0  0  0  0  0  0  0  0  0  0  0  0
    5.6410   -1.0267   -0.3161 C   0  0  0  0  0  0  0  0  0  0  0  0
    6.4056   -0.2561    0.4745 C   0  0  0  0  0  0  0  0  0  0  0  0
    5.8385    0.7234    1.2022 C   0  0  0  0  0  0  0  0  0  0  0  0
    6.3335    1.6980    2.1170 C   0  0  0  0  0  0  0  0  0  0  0  0
    7.7167    1.7237    2.3881 N   0  0  0  0  0  0  0  0  0  0  0  0
    5.5874    2.5283    2.6861 O   0  0  0  0  0  0  0  0  0  0  0  0
    4.0843    0.5377    0.7288 S   0  0  0  0  0  0  0  0  0  0  0  0
    4.3142   -0.7962   -0.3598 C   0  0  0  0  0  0  0  0  0  0  0  0
    1.3911   -0.6791   -2.2801 C   0  0  0  0  0  0  0  0  0  0  0  0
    0.0375   -1.3610   -2.2814 C   0  0  0  0  0  0  0  0  0  0  0  0
   -5.9558   -1.1488   -0.2399 H   0  0  0  0  0  0  0  0  0  0  0  0
   -6.7295    0.4822   -0.4106 H   0  0  0  0  0  0  0  0  0  0  0  0
   -7.2155   -0.6278    0.9137 H   0  0  0  0  0  0  0  0  0  0  0  0
   -6.9964    1.6378    1.6477 H   0  0  0  0  0  0  0  0  0  0  0  0
   -5.4956    2.1536    2.4412 H   0  0  0  0  0  0  0  0  0  0  0  0
   -6.3663    0.7009    3.1025 H   0  0  0  0  0  0  0  0  0  0  0  0
   -4.2029   -0.3624    2.9229 H   0  0  0  0  0  0  0  0  0  0  0  0
   -4.0762   -1.4182    1.4455 H   0  0  0  0  0  0  0  0  0  0  0  0
   -5.6146   -1.4422    2.4403 H   0  0  0  0  0  0  0  0  0  0  0  0
   -3.5122   -0.5363   -0.5645 H   0  0  0  0  0  0  0  0  0  0  0  0
   -1.6951    1.6834   -0.1986 H   0  0  0  0  0  0  0  0  0  0  0  0
   -2.8824    2.0878   -1.5130 H   0  0  0  0  0  0  0  0  0  0  0  0
   -2.1845    0.0849   -2.7366 H   0  0  0  0  0  0  0  0  0  0  0  0
   -0.7648    1.1784   -2.3420 H   0  0  0  0  0  0  0  0  0  0  0  0
   -1.6071   -1.3459   -0.8411 H   0  0  0  0  0  0  0  0  0  0  0  0
    0.5266    0.8116   -0.4702 H   0  0  0  0  0  0  0  0  0  0  0  0
   -0.5232   -0.0096    0.7578 H   0  0  0  0  0  0  0  0  0  0  0  0
    0.8082   -2.0933    0.3783 H   0  0  0  0  0  0  0  0  0  0  0  0
    1.7336   -0.6781    1.0164 H   0  0  0  0  0  0  0  0  0  0  0  0
    5.5851   -3.5629   -2.4748 H   0  0  0  0  0  0  0  0  0  0  0  0
    7.5261   -0.3872    0.5653 H   0  0  0  0  0  0  0  0  0  0  0  0
    8.0898    1.3954    3.2973 H   0  0  0  0  0  0  0  0  0  0  0  0
    8.3855    2.0735    1.6780 H   0  0  0  0  0  0  0  0  0  0  0  0
    1.9321   -1.0247   -3.1779 H   0  0  0  0  0  0  0  0  0  0  0  0
    1.3294    0.4129   -2.3306 H   0  0  0  0  0  0  0  0  0  0  0  0
   -0.4111   -1.2087   -3.2699 H   0  0  0  0  0  0  0  0  0  0  0  0
    0.1991   -2.4312   -2.0362 H   0  0  0  0  0  0  0  0  0  0  0  0
  1  2  1  0
  2  3  1  0
  2  4  1  0
  2  5  1  0
  5  6  2  0
  5  7  1  0
  7  8  1  0
  8  9  1  0
  9 10  1  0
 10 11  1  0
 11 12  1  0
 12 13  1  0
 13 14  1  0
 14 15  2  0
 15 16  1  0
 16 17  2  0
 17 18  1  0
 18 19  1  0
 19 20  2  0
 20 21  1  0
 21 22  1  0
 21 23  2  0
 20 24  1  0
 24 25  1  0
 13 26  1  0
 26 27  1  0
 27 10  1  0
 25 14  1  0
 25 18  2  0
  1 28  1  0
  1 29  1  0
  1 30  1  0
  3 31  1  0
  3 32  1  0
  3 33  1  0
  4 34  1  0
  4 35  1  0
  4 36  1  0
  7 37  1  0
  8 38  1  0
  8 39  1  0
  9 40  1  0
  9 41  1  0
 10 42  1  0
 11 43  1  0
 11 44  1  0
 12 45  1  0
 12 46  1  0
 16 47  1  0
 19 48  1  0
 22 49  1  0
 22 50  1  0
 26 51  1  0
 26 52  1  0
 27 53  1  0
 27 54  1  0
M  END
$$$$
