@<TRIPOS>MOLECULE
*****
 56 60 0 0 0
SMALL
GASTEIGER

@<TRIPOS>ATOM
      1 C          -0.9785    0.6076   -3.3288 C.3     1  UNL1       -0.0632
      2 C          -0.0616    0.4447   -2.0854 C.3     1  UNL1       -0.0303
      3 C          -0.4720   -0.7991   -1.4233 C.3     1  UNL1        0.0802
      4 N          -1.8875   -0.7444   -1.0211 N.pl3   1  UNL1       -0.3187
      5 C          -2.3067    0.2002   -0.0825 C.ar    1  UNL1        0.1317
      6 N          -1.5301    1.0968    0.5312 N.ar    1  UNL1       -0.2202
      7 C          -2.0060    1.9795    1.4390 C.ar    1  UNL1        0.1204
      8 N          -3.2975    2.0218    1.7929 N.ar    1  UNL1       -0.2178
      9 C          -4.1354    1.1421    1.2093 C.ar    1  UNL1        0.1431
     10 N          -5.4614    0.9598    1.3703 N.ar    1  UNL1       -0.3457
     11 C          -5.8740   -0.0409    0.5742 C.ar    1  UNL1        0.0042
     12 C          -4.7576   -0.5047   -0.1147 C.ar    1  UNL1       -0.0318
     13 C          -3.6573    0.2388    0.2826 C.ar    1  UNL1        0.0583
     14 C           0.3389   -1.4060   -0.3756 C.ar    1  UNL1        0.1378
     15 N          -0.2342   -2.5426    0.1772 N.ar    1  UNL1       -0.2311
     16 C           0.2823   -3.2710    1.1292 C.ar    1  UNL1        0.0810
     17 C          -0.3448   -4.4080    1.6460 C.ar    1  UNL1       -0.0353
     18 C           0.2141   -5.1606    2.6468 C.ar    1  UNL1       -0.0570
     19 C           1.4453   -4.7978    3.1793 C.ar    1  UNL1       -0.0256
     20 C           2.0561   -3.6738    2.6622 C.ar    1  UNL1        0.1378
     21 F           3.2524   -3.3114    3.1714 F       1  UNL1       -0.2046
     22 C           1.4922   -2.9188    1.6560 C.ar    1  UNL1        0.1003
     23 C           2.0890   -1.7997    1.1336 C.ar    1  UNL1        0.2691
     24 O           3.2031   -1.4442    1.5930 O.2     1  UNL1       -0.2665
     25 N           1.5060   -1.0538    0.1221 N.ar    1  UNL1       -0.2628
     26 C           2.2431    0.0689   -0.3161 C.ar    1  UNL1        0.0515
     27 C           3.3216   -0.1087   -1.1958 C.ar    1  UNL1       -0.0377
     28 C           4.0983    0.9311   -1.6150 C.ar    1  UNL1       -0.0595
     29 C           3.8473    2.2156   -1.1821 C.ar    1  UNL1       -0.0582
     30 C           2.7939    2.4237   -0.3164 C.ar    1  UNL1       -0.0369
     31 C           2.5292    3.8164    0.1518 C.3     1  UNL1        0.0680
     32 C           1.5718    4.5186   -0.7873 C.3     1  UNL1        0.3940
     33 F           2.0859    4.5889   -2.0716 F       1  UNL1       -0.1704
     34 F           0.3701    3.8420   -0.8553 F       1  UNL1       -0.1704
     35 F           1.3913    5.8219   -0.3702 F       1  UNL1       -0.1704
     36 C           2.0105    1.3575    0.1032 C.ar    1  UNL1       -0.0342
     37 H          -0.7095    1.5067   -3.8963 H       1  UNL1        0.0230
     38 H          -2.0393    0.6830   -3.0175 H       1  UNL1        0.0230
     39 H          -0.8835   -0.3008   -3.9497 H       1  UNL1        0.0230
     40 H           0.9702    0.5610   -2.3960 H       1  UNL1        0.0285
     41 H          -0.3442    1.3160   -1.4635 H       1  UNL1        0.0285
     42 H          -0.4816   -1.5726   -2.2757 H       1  UNL1        0.0578
     43 H          -2.5474   -1.4080   -1.4380 H       1  UNL1        0.1482
     44 H          -1.3519    2.7065    1.9306 H       1  UNL1        0.1048
     45 H          -6.0492    1.5240    2.0198 H       1  UNL1        0.1668
     46 H          -6.8873   -0.3938    0.5057 H       1  UNL1        0.0807
     47 H          -4.7243   -1.2953   -0.8317 H       1  UNL1        0.0640
     48 H          -1.2908   -4.6757    1.2276 H       1  UNL1        0.0639
     49 H          -0.2989   -6.0507    3.0365 H       1  UNL1        0.0619
     50 H           1.8875   -5.3939    3.9718 H       1  UNL1        0.0646
     51 H           3.5257   -1.1109   -1.5400 H       1  UNL1        0.0638
     52 H           4.9291    0.7876   -2.2939 H       1  UNL1        0.0618
     53 H           4.4638    3.0646   -1.5105 H       1  UNL1        0.0620
     54 H           3.4609    4.4057    0.1579 H       1  UNL1        0.0400
     55 H           2.0386    3.7753    1.1388 H       1  UNL1        0.0400
     56 H           1.1944    1.5812    0.7891 H       1  UNL1        0.0641
@<TRIPOS>BOND
     1     1     2    1
     2     2     3    1
     3     3     4    1
     4     4     5    1
     5     5     6   ar
     6     6     7   ar
     7     7     8   ar
     8     8     9   ar
     9     9    10   ar
    10    10    11   ar
    11    11    12   ar
    12    12    13   ar
    13     3    14    1
    14    14    15   ar
    15    15    16   ar
    16    16    17   ar
    17    17    18   ar
    18    18    19   ar
    19    19    20   ar
    20    20    21    1
    21    20    22   ar
    22    22    23   ar
    23    23    24    2
    24    23    25   ar
    25    25    26    1
    26    26    27   ar
    27    27    28   ar
    28    28    29   ar
    29    29    30   ar
    30    30    31    1
    31    31    32    1
    32    32    33    1
    33    32    34    1
    34    32    35    1
    35    30    36   ar
    36    13     5   ar
    37    25    14   ar
    38    36    26   ar
    39    13     9   ar
    40    22    16   ar
    41     1    37    1
    42     1    38    1
    43     1    39    1
    44     2    40    1
    45     2    41    1
    46     3    42    1
    47     4    43    1
    48     7    44    1
    49    10    45    1
    50    11    46    1
    51    12    47    1
    52    17    48    1
    53    18    49    1
    54    19    50    1
    55    27    51    1
    56    28    52    1
    57    29    53    1
    58    31    54    1
    59    31    55    1
    60    36    56    1
