
     RDKit          3D

 56 60  0  0  0  0  0  0  0  0999 V2000
   -0.9785    0.6076   -3.3288 C   0  0  0  0  0  0  0  0  0  0  0  0
   -0.0616    0.4447   -2.0854 C   0  0  0  0  0  0  0  0  0  0  0  0
   -0.4720   -0.7991   -1.4233 C   0  0  2  0  0  0  0  0  0  0  0  0
   -1.8875   -0.7444   -1.0211 N   0  0  0  0  0  0  0  0  0  0  0  0
   -2.3067    0.2002   -0.0825 C   0  0  0  0  0  0  0  0  0  0  0  0
   -1.5301    1.0968    0.5312 N   0  0  0  0  0  0  0  0  0  0  0  0
   -2.0060    1.9795    1.4390 C   0  0  0  0  0  0  0  0  0  0  0  0
   -3.2975    2.0218    1.7929 N   0  0  0  0  0  0  0  0  0  0  0  0
   -4.1354    1.1421    1.2093 C   0  0  0  0  0  0  0  0  0  0  0  0
   -5.4614    0.9598    1.3703 N   0  0  0  0  0  0  0  0  0  0  0  0
   -5.8740   -0.0409    0.5742 C   0  0  0  0  0  0  0  0  0  0  0  0
   -4.7576   -0.5047   -0.1147 C   0  0  0  0  0  0  0  0  0  0  0  0
   -3.6573    0.2388    0.2826 C   0  0  0  0  0  0  0  0  0  0  0  0
    0.3389   -1.4060   -0.3756 C   0  0  0  0  0  0  0  0  0  0  0  0
   -0.2342   -2.5426    0.1772 N   0  0  0  0  0  0  0  0  0  0  0  0
    0.2823   -3.2710    1.1292 C   0  0  0  0  0  0  0  0  0  0  0  0
   -0.3448   -4.4080    1.6460 C   0  0  0  0  0  0  0  0  0  0  0  0
    0.2141   -5.1606    2.6468 C   0  0  0  0  0  0  0  0  0  0  0  0
    1.4453   -4.7978    3.1793 C   0  0  0  0  0  0  0  0  0  0  0  0
    2.0561   -3.6738    2.6622 C   0  0  0  0  0  0  0  0  0  0  0  0
    3.2524   -3.3114    3.1714 F   0  0  0  0  0  0  0  0  0  0  0  0
    1.4922   -2.9188    1.6560 C   0  0  0  0  0  0  0  0  0  0  0  0
    2.0890   -1.7997    1.1336 C   0  0  0  0  0  0  0  0  0  0  0  0
    3.2031   -1.4442    1.5930 O   0  0  0  0  0  0  0  0  0  0  0  0
    1.5060   -1.0538    0.1221 N   0  0  0  0  0  0  0  0  0  0  0  0
    2.2431    0.0689   -0.3161 C   0  0  0  0  0  0  0  0  0  0  0  0
    3.3216   -0.1087   -1.1958 C   0  0  0  0  0  0  0  0  0  0  0  0
    4.0983    0.9311   -1.6150 C   0  0  0  0  0  0  0  0  0  0  0  0
    3.8473    2.2156   -1.1821 C   0  0  0  0  0  0  0  0  0  0  0  0
    2.7939    2.4237   -0.3164 C   0  0  0  0  0  0  0  0  0  0  0  0
    2.5292    3.8164    0.1518 C   0  0  0  0  0  0  0  0  0  0  0  0
    1.5718    4.5186   -0.7873 C   0  0  0  0  0  0  0  0  0  0  0  0
    2.0859    4.5889   -2.0716 F   0  0  0  0  0  0  0  0  0  0  0  0
    0.3701    3.8420   -0.8553 F   0  0  0  0  0  0  0  0  0  0  0  0
    1.3913    5.8219   -0.3702 F   0  0  0  0  0  0  0  0  0  0  0  0
    2.0105    1.3575    0.1032 C   0  0  0  0  0  0  0  0  0  0  0  0
   -0.7095    1.5067   -3.8963 H   0  0  0  0  0  0  0  0  0  0  0  0
   -2.0393    0.6830   -3.0175 H   0  0  0  0  0  0  0  0  0  0  0  0
   -0.8835   -0.3008   -3.9497 H   0  0  0  0  0  0  0  0  0  0  0  0
    0.9702    0.5610   -2.3960 H   0  0  0  0  0  0  0  0  0  0  0  0
   -0.3442    1.3160   -1.4635 H   0  0  0  0  0  0  0  0  0  0  0  0
   -0.4816   -1.5726   -2.2757 H   0  0  0  0  0  0  0  0  0  0  0  0
   -2.5474   -1.4080   -1.4380 H   0  0  0  0  0  0  0  0  0  0  0  0
   -1.3519    2.7065    1.9306 H   0  0  0  0  0  0  0  0  0  0  0  0
   -6.0492    1.5240    2.0198 H   0  0  0  0  0  0  0  0  0  0  0  0
   -6.8873   -0.3938    0.5057 H   0  0  0  0  0  0  0  0  0  0  0  0
   -4.7243   -1.2953   -0.8317 H   0  0  0  0  0  0  0  0  0  0  0  0
   -1.2908   -4.6757    1.2276 H   0  0  0  0  0  0  0  0  0  0  0  0
   -0.2989   -6.0507    3.0365 H   0  0  0  0  0  0  0  0  0  0  0  0
    1.8875   -5.3939    3.9718 H   0  0  0  0  0  0  0  0  0  0  0  0
    3.5257   -1.1109   -1.5400 H   0  0  0  0  0  0  0  0  0  0  0  0
    4.9291    0.7876   -2.2939 H   0  0  0  0  0  0  0  0  0  0  0  0
    4.4638    3.0646   -1.5105 H   0  0  0  0  0  0  0  0  0  0  0  0
    3.4609    4.4057    0.1579 H   0  0  0  0  0  0  0  0  0  0  0  0
    2.0386    3.7753    1.1388 H   0  0  0  0  0  0  0  0  0  0  0  0
    1.1944    1.5812    0.7891 H   0  0  0  0  0  0  0  0  0  0  0  0
  1  2  1  0
  2  3  1  0
  3  4  1  0
  4  5  1  0
  5  6  2  0
  6  7  1  0
  7  8  2  0
  8  9  1  0
  9 10  1  0
 10 11  1  0
 11 12  2  0
 12 13  1  0
  3 14  1  0
 14 15  2  0
 15 16  1  0
 16 17  2  0
 17 18  1  0
 18 19  2  0
 19 20  1  0
 20 21  1  0
 20 22  2  0
 22 23  1  0
 23 24  2  0
 23 25  1  0
 25 26  1  0
 26 27  2  0
 27 28  1  0
 28 29  2  0
 29 30  1  0
 30 31  1  0
 31 32  1  0
 32 33  1  0
 32 34  1  0
 32 35  1  0
 30 36  2  0
 13  5  1  0
 25 14  1  0
 36 26  1  0
 13  9  2  0
 22 16  1  0
  1 37  1  0
  1 38  1  0
  1 39  1  0
  2 40  1  0
  2 41  1  0
  3 42  1  6
  4 43  1  0
  7 44  1  0
 10 45  1  0
 11 46  1  0
 12 47  1  0
 17 48  1  0
 18 49  1  0
 19 50  1  0
 27 51  1  0
 28 52  1  0
 29 53  1  0
 31 54  1  0
 31 55  1  0
 36 56  1  0
M  END
$$$$
