@<TRIPOS>MOLECULE
*****
 52 54 0 0 0
SMALL
GASTEIGER

@<TRIPOS>ATOM
      1 C          -4.0846    0.3002   -2.9300 C.3     1  UNL1       -0.0380
      2 C          -2.6222    0.2006   -2.6112 C.ar    1  UNL1       -0.0291
      3 C          -1.6546    0.3809   -3.5566 C.ar    1  UNL1       -0.0553
      4 C          -0.3052    0.2712   -3.1787 C.ar    1  UNL1       -0.0401
      5 C           0.0937   -0.0104   -1.8958 C.ar    1  UNL1        0.0354
      6 N           1.4483   -0.1232   -1.5029 N.am    1  UNL1       -0.2814
      7 C           2.6020    0.0161   -2.2732 C.2     1  UNL1        0.2483
      8 O           2.4865    0.2787   -3.4939 O.2     1  UNL1       -0.2699
      9 C           3.9706   -0.1305   -1.7239 C.ar    1  UNL1        0.0388
     10 C           5.0649    0.0237   -2.5546 C.ar    1  UNL1       -0.0495
     11 C           6.3611   -0.0929   -2.1386 C.ar    1  UNL1       -0.0593
     12 C           6.5870   -0.3818   -0.8087 C.ar    1  UNL1       -0.0406
     13 C           5.5381   -0.5472    0.0700 C.ar    1  UNL1        0.0299
     14 N           5.7711   -0.8441    1.4370 N.pl3   1  UNL1       -0.3360
     15 C           4.6518   -1.0120    2.3327 C.3     1  UNL1        0.0004
     16 C           7.1045   -0.9852    1.9678 C.3     1  UNL1        0.0004
     17 C           4.2271   -0.4174   -0.4066 C.ar    1  UNL1       -0.0286
     18 C          -0.9219   -0.1852   -0.9706 C.ar    1  UNL1       -0.0189
     19 C          -2.2369   -0.0863   -1.3019 C.ar    1  UNL1        0.0383
     20 N          -3.2749   -0.2669   -0.3474 N.am    1  UNL1       -0.2812
     21 C          -3.7613    0.8433    0.3791 C.2     1  UNL1        0.2483
     22 O          -3.2475    1.9831    0.1521 O.2     1  UNL1       -0.2699
     23 C          -4.8144    0.7544    1.3695 C.ar    1  UNL1        0.0372
     24 C          -5.4291   -0.4400    1.6804 C.ar    1  UNL1       -0.0462
     25 C          -6.4302   -0.5007    2.6274 C.ar    1  UNL1       -0.0195
     26 C          -6.8439    0.6470    3.2929 C.ar    1  UNL1        0.1169
     27 O          -7.8453    0.5461    4.2308 O.3     1  UNL1       -0.5068
     28 C          -6.2368    1.8504    2.9914 C.ar    1  UNL1       -0.0195
     29 C          -5.2231    1.8907    2.0276 C.ar    1  UNL1       -0.0462
     30 H          -4.6361   -0.2845   -2.1765 H       1  UNL1        0.0278
     31 H          -4.3871    1.3592   -2.9053 H       1  UNL1        0.0278
     32 H          -4.2146   -0.0792   -3.9610 H       1  UNL1        0.0278
     33 H          -1.9296    0.6027   -4.5711 H       1  UNL1        0.0621
     34 H           0.4060    0.4224   -3.9617 H       1  UNL1        0.0636
     35 H           1.6078   -0.3471   -0.4683 H       1  UNL1        0.1551
     36 H           4.8655    0.2518   -3.6029 H       1  UNL1        0.0625
     37 H           7.2116    0.0334   -2.8149 H       1  UNL1        0.0618
     38 H           7.6018   -0.4891   -0.4082 H       1  UNL1        0.0636
     39 H           4.9851   -1.0917    3.3876 H       1  UNL1        0.0428
     40 H           4.1933   -2.0062    2.0908 H       1  UNL1        0.0428
     41 H           3.9178   -0.1820    2.2356 H       1  UNL1        0.0428
     42 H           7.7255   -0.1261    1.5943 H       1  UNL1        0.0428
     43 H           7.1403   -0.9962    3.0579 H       1  UNL1        0.0428
     44 H           7.6107   -1.8940    1.5664 H       1  UNL1        0.0428
     45 H           3.4277   -0.5490    0.2897 H       1  UNL1        0.0643
     46 H          -0.6305   -0.4078    0.0458 H       1  UNL1        0.0655
     47 H          -3.6695   -1.2021   -0.1869 H       1  UNL1        0.1551
     48 H          -5.1516   -1.3663    1.1973 H       1  UNL1        0.0626
     49 H          -6.9193   -1.4404    2.8772 H       1  UNL1        0.0654
     50 H          -8.7702    0.2263    3.9379 H       1  UNL1        0.2921
     51 H          -6.5655    2.7378    3.5145 H       1  UNL1        0.0654
     52 H          -4.7937    2.8656    1.8432 H       1  UNL1        0.0626
@<TRIPOS>BOND
     1     1     2    1
     2     2     3   ar
     3     3     4   ar
     4     4     5   ar
     5     5     6    1
     6     6     7   am
     7     7     8    2
     8     7     9    1
     9     9    10   ar
    10    10    11   ar
    11    11    12   ar
    12    12    13   ar
    13    13    14    1
    14    14    15    1
    15    14    16    1
    16    13    17   ar
    17     5    18   ar
    18    18    19   ar
    19    19    20    1
    20    20    21   am
    21    21    22    2
    22    21    23    1
    23    23    24   ar
    24    24    25   ar
    25    25    26   ar
    26    26    27    1
    27    26    28   ar
    28    28    29   ar
    29    19     2   ar
    30    29    23   ar
    31    17     9   ar
    32     1    30    1
    33     1    31    1
    34     1    32    1
    35     3    33    1
    36     4    34    1
    37     6    35    1
    38    10    36    1
    39    11    37    1
    40    12    38    1
    41    15    39    1
    42    15    40    1
    43    15    41    1
    44    16    42    1
    45    16    43    1
    46    16    44    1
    47    17    45    1
    48    18    46    1
    49    20    47    1
    50    24    48    1
    51    25    49    1
    52    27    50    1
    53    28    51    1
    54    29    52    1
