@<TRIPOS>MOLECULE
*****
 38 39 0 0 0
SMALL
GASTEIGER

@<TRIPOS>ATOM
      1 C           6.3540   -0.4219   -0.1171 C.3     1  UNL1        0.0820
      2 O           5.0295   -0.3073    0.3742 O.3     1  UNL1       -0.4644
      3 C           4.0125   -0.2854   -0.5693 C.2     1  UNL1        0.3427
      4 O           4.2186   -0.3610   -1.8010 O.2     1  UNL1       -0.2448
      5 C           2.6447   -0.1658   -0.0370 C.ar    1  UNL1        0.1034
      6 C           2.1645    1.1227    0.1207 C.ar    1  UNL1       -0.0295
      7 C           2.9758    2.3222   -0.2249 C.3     1  UNL1       -0.0387
      8 C           0.8987    1.3601    0.6104 C.ar    1  UNL1       -0.0154
      9 C           0.0703    0.3160    0.9590 C.ar    1  UNL1        0.1324
     10 O          -1.2036    0.2973    1.4578 O.3     1  UNL1       -0.4521
     11 C          -2.3723    0.2583    0.7143 C.ar    1  UNL1        0.1735
     12 C          -2.8712    1.1354   -0.2260 C.ar    1  UNL1        0.2014
     13 O          -2.0384    2.2258   -0.4367 O.3     1  UNL1       -0.5009
     14 C          -4.0748    0.8727   -0.8367 C.ar    1  UNL1        0.1622
     15 O          -4.4469    1.8450   -1.7596 O.3     1  UNL1       -0.5032
     16 C          -4.8057   -0.2564   -0.5317 C.ar    1  UNL1       -0.0134
     17 C          -4.3251   -1.1475    0.4062 C.ar    1  UNL1       -0.0433
     18 C          -5.1548   -2.3447    0.6934 C.3     1  UNL1       -0.0395
     19 C          -3.1139   -0.8877    1.0240 C.ar    1  UNL1       -0.0125
     20 C           0.5636   -0.9831    0.7965 C.ar    1  UNL1        0.0230
     21 C           1.8456   -1.2191    0.3004 C.ar    1  UNL1        0.1346
     22 O           2.3598   -2.4932    0.1291 O.3     1  UNL1       -0.5058
     23 H           6.4203   -1.0520   -1.0324 H       1  UNL1        0.0661
     24 H           6.7418    0.5831   -0.3613 H       1  UNL1        0.0661
     25 H           7.0025   -0.8863    0.6578 H       1  UNL1        0.0661
     26 H           3.9931    1.9678   -0.5339 H       1  UNL1        0.0278
     27 H           2.5741    2.8516   -1.1086 H       1  UNL1        0.0278
     28 H           3.0369    2.9705    0.6711 H       1  UNL1        0.0278
     29 H           0.4278    2.3220    0.7723 H       1  UNL1        0.0657
     30 H          -2.0874    2.6332   -1.3819 H       1  UNL1        0.2924
     31 H          -4.7818    2.7293   -1.4032 H       1  UNL1        0.2923
     32 H          -5.7321   -0.3382   -1.0857 H       1  UNL1        0.0658
     33 H          -4.5039   -3.2144    0.9652 H       1  UNL1        0.0278
     34 H          -5.7157   -2.6653   -0.2162 H       1  UNL1        0.0278
     35 H          -5.9265   -2.1616    1.4789 H       1  UNL1        0.0278
     36 H          -2.8455   -1.6563    1.7365 H       1  UNL1        0.0658
     37 H           0.0257   -1.9153    1.0288 H       1  UNL1        0.0691
     38 H           2.6401   -3.0502    0.9343 H       1  UNL1        0.2922
@<TRIPOS>BOND
     1     1     2    1
     2     2     3    1
     3     3     4    2
     4     3     5    1
     5     5     6   ar
     6     6     7    1
     7     6     8   ar
     8     8     9   ar
     9     9    10    1
    10    10    11    1
    11    11    12   ar
    12    12    13    1
    13    12    14   ar
    14    14    15    1
    15    14    16   ar
    16    16    17   ar
    17    17    18    1
    18    17    19   ar
    19     9    20   ar
    20    20    21   ar
    21    21    22    1
    22    21     5   ar
    23    19    11   ar
    24     1    23    1
    25     1    24    1
    26     1    25    1
    27     7    26    1
    28     7    27    1
    29     7    28    1
    30     8    29    1
    31    13    30    1
    32    15    31    1
    33    16    32    1
    34    18    33    1
    35    18    34    1
    36    18    35    1
    37    19    36    1
    38    20    37    1
    39    22    38    1
