@<TRIPOS>MOLECULE
*****
 27 29 0 0 0
SMALL
GASTEIGER

@<TRIPOS>ATOM
      1 N           5.6764    2.9033   -0.4785 N.1     1  UNL1       -0.1893
      2 C           5.0853    1.9209   -0.3760 C.1     1  UNL1        0.1191
      3 C           4.3569    0.6983   -0.2632 C.ar    1  UNL1        0.1407
      4 N           5.0382   -0.4373   -0.1380 N.ar    1  UNL1       -0.2446
      5 C           4.4733   -1.6552   -0.0232 C.ar    1  UNL1        0.0297
      6 C           3.0845   -1.6599   -0.0437 C.ar    1  UNL1       -0.0328
      7 C           2.2982   -0.5447   -0.1684 C.ar    1  UNL1        0.0250
      8 C           2.9639    0.6569   -0.2801 C.ar    1  UNL1       -0.0150
      9 C           0.8437   -0.6563   -0.1791 C.ar    1  UNL1        0.1818
     10 N           0.1734   -1.7965   -0.4525 N.ar    1  UNL1       -0.1520
     11 N          -1.1447   -1.5724   -0.3820 N.ar    1  UNL1       -0.2582
     12 C          -1.3289   -0.2752   -0.0599 C.ar    1  UNL1        0.1567
     13 N          -0.1123    0.2416    0.0534 N.ar    1  UNL1       -0.2067
     14 C          -2.6506    0.3118    0.1002 C.ar    1  UNL1        0.0215
     15 C          -3.7575   -0.4920   -0.0852 C.ar    1  UNL1       -0.0329
     16 C          -5.0510    0.0139    0.0545 C.ar    1  UNL1        0.0282
     17 N          -5.2189    1.3118    0.3765 N.ar    1  UNL1       -0.2632
     18 C          -4.1381    2.1095    0.5607 C.ar    1  UNL1        0.0282
     19 C          -2.8393    1.6391    0.4296 C.ar    1  UNL1       -0.0329
     20 H           5.0406   -2.5816    0.0792 H       1  UNL1        0.0830
     21 H           2.6236   -2.6470    0.0493 H       1  UNL1        0.0640
     22 H           2.3914    1.5821   -0.3824 H       1  UNL1        0.0653
     23 H          -1.8353   -2.3306   -0.5609 H       1  UNL1        0.1906
     24 H          -3.7043   -1.5377   -0.3437 H       1  UNL1        0.0640
     25 H          -5.9149   -0.6319   -0.0947 H       1  UNL1        0.0830
     26 H          -4.3581    3.1370    0.8166 H       1  UNL1        0.0830
     27 H          -1.9957    2.2919    0.5808 H       1  UNL1        0.0640
@<TRIPOS>BOND
     1     1     2    3
     2     2     3    1
     3     3     4   ar
     4     4     5   ar
     5     5     6   ar
     6     6     7   ar
     7     7     8   ar
     8     7     9    1
     9     9    10   ar
    10    10    11   ar
    11    11    12   ar
    12    12    13   ar
    13    12    14    1
    14    14    15   ar
    15    15    16   ar
    16    16    17   ar
    17    17    18   ar
    18    18    19   ar
    19     8     3   ar
    20    13     9   ar
    21    19    14   ar
    22     5    20    1
    23     6    21    1
    24     8    22    1
    25    11    23    1
    26    15    24    1
    27    16    25    1
    28    18    26    1
    29    19    27    1
