@<TRIPOS>MOLECULE
*****
 30 31 0 0 0
SMALL
GASTEIGER

@<TRIPOS>ATOM
      1 O          -1.8096    3.8866    0.0231 O.3     1  UNL1       -0.4804
      2 C          -1.8498    2.5235   -0.1341 C.2     1  UNL1        0.3091
      3 O          -1.6387    1.9247   -1.2211 O.2     1  UNL1       -0.2507
      4 C          -2.1355    1.4776    0.8816 C.3     1  UNL1        0.0716
      5 C          -2.0742    0.1317    0.2730 C.ar    1  UNL1       -0.0156
      6 C          -3.2346   -0.5898   -0.0298 C.ar    1  UNL1       -0.0563
      7 C          -3.1587   -1.8560   -0.6034 C.ar    1  UNL1       -0.0614
      8 C          -1.9148   -2.4208   -0.8837 C.ar    1  UNL1       -0.0600
      9 C          -0.7268   -1.7400   -0.6003 C.ar    1  UNL1       -0.0403
     10 C          -0.8909   -0.4964   -0.0349 C.ar    1  UNL1        0.0351
     11 N           0.2783    0.2486    0.2765 N.pl3   1  UNL1       -0.3120
     12 C           1.6590   -0.0392    0.1094 C.ar    1  UNL1        0.0684
     13 C           2.3738   -0.7178    1.1022 C.ar    1  UNL1        0.0635
     14 CL          1.5021   -1.2059    2.5629 Cl      1  UNL1       -0.0816
     15 C           3.7175   -1.0017    0.9549 C.ar    1  UNL1       -0.0415
     16 C           4.3458   -0.5887   -0.2222 C.ar    1  UNL1       -0.0589
     17 C           3.6664    0.0861   -1.2261 C.ar    1  UNL1       -0.0415
     18 C           2.3249    0.3504   -1.0402 C.ar    1  UNL1        0.0635
     19 CL          1.4820    1.2068   -2.3299 Cl      1  UNL1       -0.0816
     20 H          -1.5592    4.4855   -0.7734 H       1  UNL1        0.2951
     21 H          -3.1720    1.6741    1.2433 H       1  UNL1        0.0427
     22 H          -1.4833    1.5853    1.7623 H       1  UNL1        0.0427
     23 H          -4.2101   -0.1696    0.1805 H       1  UNL1        0.0621
     24 H          -4.0512   -2.4331   -0.8465 H       1  UNL1        0.0618
     25 H          -1.8206   -3.4115   -1.3344 H       1  UNL1        0.0618
     26 H           0.2526   -2.1476   -0.8038 H       1  UNL1        0.0636
     27 H           0.3142    1.1895    0.7054 H       1  UNL1        0.1522
     28 H           4.2176   -1.5273    1.7516 H       1  UNL1        0.0633
     29 H           5.4044   -0.8229   -0.3174 H       1  UNL1        0.0618
     30 H           4.1914    0.3979   -2.1398 H       1  UNL1        0.0633
@<TRIPOS>BOND
     1     1     2    1
     2     2     3    2
     3     2     4    1
     4     4     5    1
     5     5     6   ar
     6     6     7   ar
     7     7     8   ar
     8     8     9   ar
     9     9    10   ar
    10    10    11    1
    11    11    12    1
    12    12    13   ar
    13    13    14    1
    14    13    15   ar
    15    15    16   ar
    16    16    17   ar
    17    17    18   ar
    18    18    19    1
    19    10     5   ar
    20    18    12   ar
    21     1    20    1
    22     4    21    1
    23     4    22    1
    24     6    23    1
    25     7    24    1
    26     8    25    1
    27     9    26    1
    28    11    27    1
    29    15    28    1
    30    16    29    1
    31    17    30    1
