@<TRIPOS>MOLECULE
*****
 36 38 0 0 0
SMALL
GASTEIGER

@<TRIPOS>ATOM
      1 C          -3.6824    1.4409   -1.0349 C.3     1  UNL1       -0.0152
      2 N          -2.7591    0.3522   -0.8696 N.3     1  UNL1       -0.3122
      3 C          -2.2461    0.3125    0.5072 C.3     1  UNL1        0.0358
      4 C          -1.5345    1.5753    0.8556 C.3     1  UNL1       -0.0172
      5 C          -0.0453    1.5299    0.9087 C.3     1  UNL1        0.0190
      6 N           0.5504    0.3326    0.4279 N.pl3   1  UNL1       -0.2997
      7 C           1.8228    0.3621   -0.2425 C.ar    1  UNL1        0.0354
      8 C           2.2056   -0.5675   -1.1711 C.ar    1  UNL1       -0.0389
      9 C           3.4429   -0.4897   -1.7597 C.ar    1  UNL1       -0.0402
     10 C           4.3136    0.5052   -1.4391 C.ar    1  UNL1        0.0594
     11 CL          5.9053    0.6219   -2.1835 Cl      1  UNL1       -0.0820
     12 C           3.9610    1.4526   -0.5135 C.ar    1  UNL1        0.0610
     13 CL          5.0364    2.7708   -0.0480 Cl      1  UNL1       -0.0820
     14 C           2.7183    1.3689    0.0739 C.ar    1  UNL1       -0.0206
     15 C          -0.0674   -0.9167    0.6096 C.ar    1  UNL1        0.0386
     16 C           0.5992   -2.0969    0.7527 C.ar    1  UNL1       -0.0400
     17 C          -0.0613   -3.2934    0.9307 C.ar    1  UNL1       -0.0600
     18 C          -1.4407   -3.3047    0.9666 C.ar    1  UNL1       -0.0613
     19 C          -2.1051   -2.1059    0.8214 C.ar    1  UNL1       -0.0553
     20 C          -1.4593   -0.9065    0.6434 C.ar    1  UNL1       -0.0091
     21 H          -3.2818    2.1550   -1.7978 H       1  UNL1        0.0388
     22 H          -3.8146    1.9969   -0.0882 H       1  UNL1        0.0388
     23 H          -4.6515    1.0327   -1.3919 H       1  UNL1        0.0388
     24 H          -1.9219    0.4869   -1.4840 H       1  UNL1        0.1222
     25 H          -3.1727    0.1877    1.1423 H       1  UNL1        0.0511
     26 H          -1.9573    1.9671    1.8050 H       1  UNL1        0.0299
     27 H          -1.8109    2.3430    0.0752 H       1  UNL1        0.0299
     28 H           0.2704    1.6562    1.9855 H       1  UNL1        0.0468
     29 H           0.4236    2.3956    0.3801 H       1  UNL1        0.0468
     30 H           1.5400   -1.3704   -1.4687 H       1  UNL1        0.0637
     31 H           3.7748   -1.2248   -2.5087 H       1  UNL1        0.0633
     32 H           2.4542    2.1264    0.8047 H       1  UNL1        0.0651
     33 H           1.6645   -2.0923    0.7344 H       1  UNL1        0.0636
     34 H           0.4993   -4.2207    1.0419 H       1  UNL1        0.0618
     35 H          -1.9789   -4.2262    1.1042 H       1  UNL1        0.0618
     36 H          -3.1912   -2.1567    0.8555 H       1  UNL1        0.0621
@<TRIPOS>BOND
     1     1     2    1
     2     2     3    1
     3     3     4    1
     4     4     5    1
     5     5     6    1
     6     6     7    1
     7     7     8   ar
     8     8     9   ar
     9     9    10   ar
    10    10    11    1
    11    10    12   ar
    12    12    13    1
    13    12    14   ar
    14     6    15    1
    15    15    16   ar
    16    16    17   ar
    17    17    18   ar
    18    18    19   ar
    19    19    20   ar
    20    20     3    1
    21    14     7   ar
    22    20    15   ar
    23     1    21    1
    24     1    22    1
    25     1    23    1
    26     2    24    1
    27     3    25    1
    28     4    26    1
    29     4    27    1
    30     5    28    1
    31     5    29    1
    32     8    30    1
    33     9    31    1
    34    14    32    1
    35    16    33    1
    36    17    34    1
    37    18    35    1
    38    19    36    1
