
     RDKit          3D

 36 38  0  0  0  0  0  0  0  0999 V2000
   -3.6824    1.4409   -1.0349 C   0  0  0  0  0  0  0  0  0  0  0  0
   -2.7591    0.3522   -0.8696 N   0  0  0  0  0  0  0  0  0  0  0  0
   -2.2461    0.3125    0.5072 C   0  0  2  0  0  0  0  0  0  0  0  0
   -1.5345    1.5753    0.8556 C   0  0  0  0  0  0  0  0  0  0  0  0
   -0.0453    1.5299    0.9087 C   0  0  0  0  0  0  0  0  0  0  0  0
    0.5504    0.3326    0.4279 N   0  0  0  0  0  0  0  0  0  0  0  0
    1.8228    0.3621   -0.2425 C   0  0  0  0  0  0  0  0  0  0  0  0
    2.2056   -0.5675   -1.1711 C   0  0  0  0  0  0  0  0  0  0  0  0
    3.4429   -0.4897   -1.7597 C   0  0  0  0  0  0  0  0  0  0  0  0
    4.3136    0.5052   -1.4391 C   0  0  0  0  0  0  0  0  0  0  0  0
    5.9053    0.6219   -2.1835 Cl  0  0  0  0  0  0  0  0  0  0  0  0
    3.9610    1.4526   -0.5135 C   0  0  0  0  0  0  0  0  0  0  0  0
    5.0364    2.7708   -0.0480 Cl  0  0  0  0  0  0  0  0  0  0  0  0
    2.7183    1.3689    0.0739 C   0  0  0  0  0  0  0  0  0  0  0  0
   -0.0674   -0.9167    0.6096 C   0  0  0  0  0  0  0  0  0  0  0  0
    0.5992   -2.0969    0.7527 C   0  0  0  0  0  0  0  0  0  0  0  0
   -0.0613   -3.2934    0.9307 C   0  0  0  0  0  0  0  0  0  0  0  0
   -1.4407   -3.3047    0.9666 C   0  0  0  0  0  0  0  0  0  0  0  0
   -2.1051   -2.1059    0.8214 C   0  0  0  0  0  0  0  0  0  0  0  0
   -1.4593   -0.9065    0.6434 C   0  0  0  0  0  0  0  0  0  0  0  0
   -3.2818    2.1550   -1.7978 H   0  0  0  0  0  0  0  0  0  0  0  0
   -3.8146    1.9969   -0.0882 H   0  0  0  0  0  0  0  0  0  0  0  0
   -4.6515    1.0327   -1.3919 H   0  0  0  0  0  0  0  0  0  0  0  0
   -1.9219    0.4869   -1.4840 H   0  0  0  0  0  0  0  0  0  0  0  0
   -3.1727    0.1877    1.1423 H   0  0  0  0  0  0  0  0  0  0  0  0
   -1.9573    1.9671    1.8050 H   0  0  0  0  0  0  0  0  0  0  0  0
   -1.8109    2.3430    0.0752 H   0  0  0  0  0  0  0  0  0  0  0  0
    0.2704    1.6562    1.9855 H   0  0  0  0  0  0  0  0  0  0  0  0
    0.4236    2.3956    0.3801 H   0  0  0  0  0  0  0  0  0  0  0  0
    1.5400   -1.3704   -1.4687 H   0  0  0  0  0  0  0  0  0  0  0  0
    3.7748   -1.2248   -2.5087 H   0  0  0  0  0  0  0  0  0  0  0  0
    2.4542    2.1264    0.8047 H   0  0  0  0  0  0  0  0  0  0  0  0
    1.6645   -2.0923    0.7344 H   0  0  0  0  0  0  0  0  0  0  0  0
    0.4993   -4.2207    1.0419 H   0  0  0  0  0  0  0  0  0  0  0  0
   -1.9789   -4.2262    1.1042 H   0  0  0  0  0  0  0  0  0  0  0  0
   -3.1912   -2.1567    0.8555 H   0  0  0  0  0  0  0  0  0  0  0  0
  1  2  1  0
  2  3  1  0
  3  4  1  0
  4  5  1  0
  5  6  1  0
  6  7  1  0
  7  8  2  0
  8  9  1  0
  9 10  2  0
 10 11  1  0
 10 12  1  0
 12 13  1  0
 12 14  2  0
  6 15  1  0
 15 16  2  0
 16 17  1  0
 17 18  2  0
 18 19  1  0
 19 20  2  0
 20  3  1  0
 14  7  1  0
 20 15  1  0
  1 21  1  0
  1 22  1  0
  1 23  1  0
  2 24  1  0
  3 25  1  1
  4 26  1  0
  4 27  1  0
  5 28  1  0
  5 29  1  0
  8 30  1  0
  9 31  1  0
 14 32  1  0
 16 33  1  0
 17 34  1  0
 18 35  1  0
 19 36  1  0
M  END
$$$$
