
     RDKit          3D

 98104  0  0  0  0  0  0  0  0999 V2000
   10.7748   -0.9278    5.5428 C   0  0  0  0  0  0  0  0  0  0  0  0
    9.5543   -0.0552    5.7149 C   0  0  0  0  0  0  0  0  0  0  0  0
    8.8829    0.2323    4.4443 C   0  0  0  0  0  0  0  0  0  0  0  0
    7.7497    0.9882    4.2909 C   0  0  0  0  0  0  0  0  0  0  0  0
    7.4810    0.9817    2.9424 C   0  0  0  0  0  0  0  0  0  0  0  0
    6.3726    1.6580    2.3475 N   0  0  0  0  0  0  0  0  0  0  0  0
    5.1342    0.9367    2.3143 C   0  0  0  0  0  0  0  0  0  0  0  0
    5.0820   -0.2299    2.8178 O   0  0  0  0  0  0  0  0  0  0  0  0
    3.9397    1.4515    1.7447 N   0  0  0  0  0  0  0  0  0  0  0  0
    2.7787    0.6477    1.7948 C   0  0  0  0  0  0  0  0  0  0  0  0
    1.8612    0.7393    2.8394 C   0  0  0  0  0  0  0  0  0  0  0  0
    0.7473   -0.0698    2.8610 C   0  0  0  0  0  0  0  0  0  0  0  0
    0.5163   -0.9978    1.8354 C   0  0  0  0  0  0  0  0  0  0  0  0
   -0.6083   -1.7994    1.8734 O   0  0  0  0  0  0  0  0  0  0  0  0
   -1.5727   -1.6441    0.8921 C   0  0  0  0  0  0  0  0  0  0  0  0
   -2.7004   -2.4625    0.9393 C   0  0  0  0  0  0  0  0  0  0  0  0
   -3.7201   -2.3865    0.0127 C   0  0  0  0  0  0  0  0  0  0  0  0
   -3.5537   -1.4582   -0.9553 N   0  0  0  0  0  0  0  0  0  0  0  0
   -2.4981   -0.6507   -1.0512 C   0  0  0  0  0  0  0  0  0  0  0  0
   -2.3763    0.3031   -2.1165 N   0  0  0  0  0  0  0  0  0  0  0  0
   -3.4298    0.5609   -3.0093 C   0  0  0  0  0  0  0  0  0  0  0  0
   -3.1729    0.9260   -4.3138 C   0  0  0  0  0  0  0  0  0  0  0  0
   -4.1647    1.2138   -5.2179 C   0  0  0  0  0  0  0  0  0  0  0  0
   -3.8994    1.5777   -6.5222 O   0  0  0  0  0  0  0  0  0  0  0  0
   -4.8325    1.8860   -7.5081 C   0  0  0  0  0  0  0  0  0  0  0  0
   -5.4759    1.1357   -4.8044 C   0  0  0  0  0  0  0  0  0  0  0  0
   -5.7855    0.7721   -3.4939 C   0  0  0  0  0  0  0  0  0  0  0  0
   -7.1655    0.6939   -3.0875 C   0  0  0  0  0  0  0  0  0  0  0  0
   -8.0893    0.6959   -3.9593 O   0  0  0  0  0  0  0  0  0  0  0  0
   -7.5367    0.6169   -1.7230 N   0  0  0  0  0  0  0  0  0  0  0  0
   -8.9432    0.5360   -1.2815 C   0  0  0  0  0  0  0  0  0  0  0  0
   -8.9513    0.4977    0.2065 C   0  0  0  0  0  0  0  0  0  0  0  0
   -8.2092   -0.6433    0.6899 N   0  0  0  0  0  0  0  0  0  0  0  0
   -8.1577   -0.6162    2.1531 C   0  0  0  0  0  0  0  0  0  0  0  0
   -9.2314   -1.5257    2.6789 C   0  0  0  0  0  0  0  0  0  0  0  0
  -10.3973   -1.3734    1.9258 O   0  0  0  0  0  0  0  0  0  0  0  0
  -10.2516   -1.9258    0.6472 C   0  0  0  0  0  0  0  0  0  0  0  0
   -8.7897   -1.9001    0.2421 C   0  0  0  0  0  0  0  0  0  0  0  0
   -4.7396    0.4902   -2.6201 C   0  0  0  0  0  0  0  0  0  0  0  0
   -1.5040   -0.7491   -0.1167 N   0  0  0  0  0  0  0  0  0  0  0  0
    1.4116   -1.1065    0.7938 C   0  0  0  0  0  0  0  0  0  0  0  0
    1.1955   -2.0308   -0.2021 C   0  0  0  0  0  0  0  0  0  0  0  0
    2.1386   -2.1069   -1.2207 C   0  0  0  0  0  0  0  0  0  0  0  0
    3.2528   -1.2985   -1.2501 C   0  0  0  0  0  0  0  0  0  0  0  0
    3.4515   -0.3830   -0.2447 C   0  0  0  0  0  0  0  0  0  0  0  0
    2.5433   -0.2656    0.7954 C   0  0  0  0  0  0  0  0  0  0  0  0
    8.4140    0.2534    2.3153 N   0  0  0  0  0  0  0  0  0  0  0  0
    8.4184    0.0684    0.9087 C   0  0  0  0  0  0  0  0  0  0  0  0
    9.2040    0.9025    0.1161 C   0  0  0  0  0  0  0  0  0  0  0  0
    9.2307    0.7547   -1.2499 C   0  0  0  0  0  0  0  0  0  0  0  0
    8.4918   -0.2138   -1.8979 C   0  0  0  0  0  0  0  0  0  0  0  0
    8.5286   -0.3655   -3.3841 C   0  0  0  0  0  0  0  0  0  0  0  0
    7.7178   -1.0349   -1.1095 C   0  0  0  0  0  0  0  0  0  0  0  0
    7.6815   -0.8962    0.2721 C   0  0  0  0  0  0  0  0  0  0  0  0
    9.2686   -0.2060    3.2153 N   0  0  0  0  0  0  0  0  0  0  0  0
   11.4810   -0.4133    4.8855 H   0  0  0  0  0  0  0  0  0  0  0  0
   11.1930   -1.0985    6.5754 H   0  0  0  0  0  0  0  0  0  0  0  0
   10.5002   -1.8941    5.0604 H   0  0  0  0  0  0  0  0  0  0  0  0
    9.8795    0.9029    6.1674 H   0  0  0  0  0  0  0  0  0  0  0  0
    8.8695   -0.5491    6.4585 H   0  0  0  0  0  0  0  0  0  0  0  0
    7.2164    1.4672    5.0895 H   0  0  0  0  0  0  0  0  0  0  0  0
    6.4081    2.6039    1.9411 H   0  0  0  0  0  0  0  0  0  0  0  0
    3.9541    2.3992    1.3101 H   0  0  0  0  0  0  0  0  0  0  0  0
    2.0776    1.4663    3.6070 H   0  0  0  0  0  0  0  0  0  0  0  0
    0.0353   -0.0055    3.6634 H   0  0  0  0  0  0  0  0  0  0  0  0
   -2.7584   -3.1824    1.7469 H   0  0  0  0  0  0  0  0  0  0  0  0
   -4.6045   -3.0397    0.0641 H   0  0  0  0  0  0  0  0  0  0  0  0
   -1.4551    0.8146   -2.2141 H   0  0  0  0  0  0  0  0  0  0  0  0
   -2.1237    0.9806   -4.6188 H   0  0  0  0  0  0  0  0  0  0  0  0
   -5.0496    2.9759   -7.4337 H   0  0  0  0  0  0  0  0  0  0  0  0
   -5.7873    1.3509   -7.4157 H   0  0  0  0  0  0  0  0  0  0  0  0
   -4.4637    1.6851   -8.5380 H   0  0  0  0  0  0  0  0  0  0  0  0
   -6.3159    1.3447   -5.4510 H   0  0  0  0  0  0  0  0  0  0  0  0
   -6.7722    0.6228   -1.0096 H   0  0  0  0  0  0  0  0  0  0  0  0
   -9.4754   -0.2969   -1.7306 H   0  0  0  0  0  0  0  0  0  0  0  0
   -9.3907    1.5113   -1.6478 H   0  0  0  0  0  0  0  0  0  0  0  0
   -8.4637    1.4219    0.5949 H   0  0  0  0  0  0  0  0  0  0  0  0
  -10.0046    0.5158    0.5858 H   0  0  0  0  0  0  0  0  0  0  0  0
   -8.3065    0.4129    2.5155 H   0  0  0  0  0  0  0  0  0  0  0  0
   -7.1819   -1.0568    2.4845 H   0  0  0  0  0  0  0  0  0  0  0  0
   -9.5053   -1.2882    3.7279 H   0  0  0  0  0  0  0  0  0  0  0  0
   -8.8442   -2.5689    2.6594 H   0  0  0  0  0  0  0  0  0  0  0  0
  -10.8527   -1.3840   -0.1028 H   0  0  0  0  0  0  0  0  0  0  0  0
  -10.5826   -2.9833    0.6391 H   0  0  0  0  0  0  0  0  0  0  0  0
   -8.2350   -2.7510    0.6779 H   0  0  0  0  0  0  0  0  0  0  0  0
   -8.7405   -1.9273   -0.8538 H   0  0  0  0  0  0  0  0  0  0  0  0
   -4.9610    0.2189   -1.6199 H   0  0  0  0  0  0  0  0  0  0  0  0
    0.3414   -2.6812   -0.1715 H   0  0  0  0  0  0  0  0  0  0  0  0
    1.9889   -2.8272   -2.0169 H   0  0  0  0  0  0  0  0  0  0  0  0
    4.0075   -1.3405   -2.0421 H   0  0  0  0  0  0  0  0  0  0  0  0
    4.3108    0.2783   -0.2142 H   0  0  0  0  0  0  0  0  0  0  0  0
    9.8072    1.6863    0.5870 H   0  0  0  0  0  0  0  0  0  0  0  0
    9.8377    1.3947   -1.8926 H   0  0  0  0  0  0  0  0  0  0  0  0
    8.7471    0.6238   -3.8361 H   0  0  0  0  0  0  0  0  0  0  0  0
    7.5734   -0.7978   -3.6882 H   0  0  0  0  0  0  0  0  0  0  0  0
    9.3993   -1.0096   -3.6498 H   0  0  0  0  0  0  0  0  0  0  0  0
    7.1189   -1.8140   -1.5815 H   0  0  0  0  0  0  0  0  0  0  0  0
    7.0610   -1.5597    0.8596 H   0  0  0  0  0  0  0  0  0  0  0  0
  1  2  1  0
  2  3  1  0
  3  4  1  0
  4  5  2  0
  5  6  1  0
  6  7  1  0
  7  8  2  0
  7  9  1  0
  9 10  1  0
 10 11  2  0
 11 12  1  0
 12 13  2  0
 13 14  1  0
 14 15  1  0
 15 16  2  0
 16 17  1  0
 17 18  2  0
 18 19  1  0
 19 20  1  0
 20 21  1  0
 21 22  2  0
 22 23  1  0
 23 24  1  0
 24 25  1  0
 23 26  2  0
 26 27  1  0
 27 28  1  0
 28 29  2  0
 28 30  1  0
 30 31  1  0
 31 32  1  0
 32 33  1  0
 33 34  1  0
 34 35  1  0
 35 36  1  0
 36 37  1  0
 37 38  1  0
 27 39  2  0
 19 40  2  0
 13 41  1  0
 41 42  2  0
 42 43  1  0
 43 44  2  0
 44 45  1  0
 45 46  2  0
  5 47  1  0
 47 48  1  0
 48 49  2  0
 49 50  1  0
 50 51  2  0
 51 52  1  0
 51 53  1  0
 53 54  2  0
 47 55  1  0
 55  3  2  0
 46 10  1  0
 54 48  1  0
 40 15  1  0
 46 41  1  0
 39 21  1  0
 38 33  1  0
  1 56  1  0
  1 57  1  0
  1 58  1  0
  2 59  1  0
  2 60  1  0
  4 61  1  0
  6 62  1  0
  9 63  1  0
 11 64  1  0
 12 65  1  0
 16 66  1  0
 17 67  1  0
 20 68  1  0
 22 69  1  0
 25 70  1  0
 25 71  1  0
 25 72  1  0
 26 73  1  0
 30 74  1  0
 31 75  1  0
 31 76  1  0
 32 77  1  0
 32 78  1  0
 34 79  1  0
 34 80  1  0
 35 81  1  0
 35 82  1  0
 37 83  1  0
 37 84  1  0
 38 85  1  0
 38 86  1  0
 39 87  1  0
 42 88  1  0
 43 89  1  0
 44 90  1  0
 45 91  1  0
 49 92  1  0
 50 93  1  0
 52 94  1  0
 52 95  1  0
 52 96  1  0
 53 97  1  0
 54 98  1  0
M  END
$$$$
