@<TRIPOS>MOLECULE
*****
 98 104 0 0 0
SMALL
GASTEIGER

@<TRIPOS>ATOM
      1 C          10.7748   -0.9278    5.5428 C.3     1  UNL1       -0.0598
      2 C           9.5543   -0.0552    5.7149 C.3     1  UNL1       -0.0114
      3 C           8.8829    0.2323    4.4443 C.ar    1  UNL1        0.0650
      4 C           7.7497    0.9882    4.2909 C.ar    1  UNL1        0.0015
      5 C           7.4810    0.9817    2.9424 C.ar    1  UNL1        0.1299
      6 N           6.3726    1.6580    2.3475 N.am    1  UNL1       -0.2538
      7 C           5.1342    0.9367    2.3143 C.2     1  UNL1        0.3092
      8 O           5.0820   -0.2299    2.8178 O.2     1  UNL1       -0.2521
      9 N           3.9397    1.4515    1.7447 N.am    1  UNL1       -0.2686
     10 C           2.7787    0.6477    1.7948 C.ar    1  UNL1        0.0427
     11 C           1.8612    0.7393    2.8394 C.ar    1  UNL1       -0.0363
     12 C           0.7473   -0.0698    2.8610 C.ar    1  UNL1       -0.0169
     13 C           0.5163   -0.9978    1.8354 C.ar    1  UNL1        0.1381
     14 O          -0.6083   -1.7994    1.8734 O.3     1  UNL1       -0.4373
     15 C          -1.5727   -1.6441    0.8921 C.ar    1  UNL1        0.2249
     16 C          -2.7004   -2.4625    0.9393 C.ar    1  UNL1        0.0186
     17 C          -3.7201   -2.3865    0.0127 C.ar    1  UNL1        0.0362
     18 N          -3.5537   -1.4582   -0.9553 N.ar    1  UNL1       -0.2225
     19 C          -2.4981   -0.6507   -1.0512 C.ar    1  UNL1        0.2226
     20 N          -2.3763    0.3031   -2.1165 N.pl3   1  UNL1       -0.2834
     21 C          -3.4298    0.5609   -3.0093 C.ar    1  UNL1        0.0378
     22 C          -3.1729    0.9260   -4.3138 C.ar    1  UNL1        0.0013
     23 C          -4.1647    1.2138   -5.2179 C.ar    1  UNL1        0.1226
     24 O          -3.8994    1.5777   -6.5222 O.3     1  UNL1       -0.4950
     25 C          -4.8325    1.8860   -7.5081 C.3     1  UNL1        0.0788
     26 C          -5.4759    1.1357   -4.8044 C.ar    1  UNL1       -0.0077
     27 C          -5.7855    0.7721   -3.4939 C.ar    1  UNL1        0.0419
     28 C          -7.1655    0.6939   -3.0875 C.2     1  UNL1        0.2443
     29 O          -8.0893    0.6959   -3.9593 O.2     1  UNL1       -0.2702
     30 N          -7.5367    0.6169   -1.7230 N.am    1  UNL1       -0.3101
     31 C          -8.9432    0.5360   -1.2815 C.3     1  UNL1        0.0247
     32 C          -8.9513    0.4977    0.2065 C.3     1  UNL1        0.0146
     33 N          -8.2092   -0.6433    0.6899 N.3     1  UNL1       -0.2965
     34 C          -8.1577   -0.6162    2.1531 C.3     1  UNL1        0.0225
     35 C          -9.2314   -1.5257    2.6789 C.3     1  UNL1        0.0604
     36 O         -10.3973   -1.3734    1.9258 O.3     1  UNL1       -0.3772
     37 C         -10.2516   -1.9258    0.6472 C.3     1  UNL1        0.0604
     38 C          -8.7897   -1.9001    0.2421 C.3     1  UNL1        0.0225
     39 C          -4.7396    0.4902   -2.6201 C.ar    1  UNL1       -0.0281
     40 N          -1.5040   -0.7491   -0.1167 N.ar    1  UNL1       -0.1789
     41 C           1.4116   -1.1065    0.7938 C.ar    1  UNL1        0.0262
     42 C           1.1955   -2.0308   -0.2021 C.ar    1  UNL1       -0.0505
     43 C           2.1386   -2.1069   -1.2207 C.ar    1  UNL1       -0.0611
     44 C           3.2528   -1.2985   -1.2501 C.ar    1  UNL1       -0.0611
     45 C           3.4515   -0.3830   -0.2447 C.ar    1  UNL1       -0.0521
     46 C           2.5433   -0.2656    0.7954 C.ar    1  UNL1        0.0069
     47 N           8.4140    0.2534    2.3153 N.ar    1  UNL1       -0.2181
     48 C           8.4184    0.0684    0.9087 C.ar    1  UNL1        0.0674
     49 C           9.2040    0.9025    0.1161 C.ar    1  UNL1       -0.0359
     50 C           9.2307    0.7547   -1.2499 C.ar    1  UNL1       -0.0568
     51 C           8.4918   -0.2138   -1.8979 C.ar    1  UNL1       -0.0503
     52 C           8.5286   -0.3655   -3.3841 C.3     1  UNL1       -0.0397
     53 C           7.7178   -1.0349   -1.1095 C.ar    1  UNL1       -0.0568
     54 C           7.6815   -0.8962    0.2721 C.ar    1  UNL1       -0.0359
     55 N           9.2686   -0.2060    3.2153 N.ar    1  UNL1       -0.1696
     56 H          11.4810   -0.4133    4.8855 H       1  UNL1        0.0233
     57 H          11.1930   -1.0985    6.5754 H       1  UNL1        0.0233
     58 H          10.5002   -1.8941    5.0604 H       1  UNL1        0.0233
     59 H           9.8795    0.9029    6.1674 H       1  UNL1        0.0326
     60 H           8.8695   -0.5491    6.4585 H       1  UNL1        0.0326
     61 H           7.2164    1.4672    5.0895 H       1  UNL1        0.0670
     62 H           6.4081    2.6039    1.9411 H       1  UNL1        0.1578
     63 H           3.9541    2.3992    1.3101 H       1  UNL1        0.1564
     64 H           2.0776    1.4663    3.6070 H       1  UNL1        0.0637
     65 H           0.0353   -0.0055    3.6634 H       1  UNL1        0.0655
     66 H          -2.7584   -3.1824    1.7469 H       1  UNL1        0.0686
     67 H          -4.6045   -3.0397    0.0641 H       1  UNL1        0.0832
     68 H          -1.4551    0.8146   -2.2141 H       1  UNL1        0.1550
     69 H          -2.1237    0.9806   -4.6188 H       1  UNL1        0.0673
     70 H          -5.0496    2.9759   -7.4337 H       1  UNL1        0.0660
     71 H          -5.7873    1.3509   -7.4157 H       1  UNL1        0.0660
     72 H          -4.4637    1.6851   -8.5380 H       1  UNL1        0.0660
     73 H          -6.3159    1.3447   -5.4510 H       1  UNL1        0.0662
     74 H          -6.7722    0.6228   -1.0096 H       1  UNL1        0.1490
     75 H          -9.4754   -0.2969   -1.7306 H       1  UNL1        0.0475
     76 H          -9.3907    1.5113   -1.6478 H       1  UNL1        0.0475
     77 H          -8.4637    1.4219    0.5949 H       1  UNL1        0.0442
     78 H         -10.0046    0.5158    0.5858 H       1  UNL1        0.0442
     79 H          -8.3065    0.4129    2.5155 H       1  UNL1        0.0449
     80 H          -7.1819   -1.0568    2.4845 H       1  UNL1        0.0449
     81 H          -9.5053   -1.2882    3.7279 H       1  UNL1        0.0572
     82 H          -8.8442   -2.5689    2.6594 H       1  UNL1        0.0572
     83 H         -10.8527   -1.3840   -0.1028 H       1  UNL1        0.0572
     84 H         -10.5826   -2.9833    0.6391 H       1  UNL1        0.0572
     85 H          -8.2350   -2.7510    0.6779 H       1  UNL1        0.0449
     86 H          -8.7405   -1.9273   -0.8538 H       1  UNL1        0.0449
     87 H          -4.9610    0.2189   -1.6199 H       1  UNL1        0.0644
     88 H           0.3414   -2.6812   -0.1715 H       1  UNL1        0.0625
     89 H           1.9889   -2.8272   -2.0169 H       1  UNL1        0.0618
     90 H           4.0075   -1.3405   -2.0421 H       1  UNL1        0.0618
     91 H           4.3108    0.2783   -0.2142 H       1  UNL1        0.0624
     92 H           9.8072    1.6863    0.5870 H       1  UNL1        0.0639
     93 H           9.8377    1.3947   -1.8926 H       1  UNL1        0.0621
     94 H           8.7471    0.6238   -3.8361 H       1  UNL1        0.0278
     95 H           7.5734   -0.7978   -3.6882 H       1  UNL1        0.0278
     96 H           9.3993   -1.0096   -3.6498 H       1  UNL1        0.0278
     97 H           7.1189   -1.8140   -1.5815 H       1  UNL1        0.0621
     98 H           7.0610   -1.5597    0.8596 H       1  UNL1        0.0639
@<TRIPOS>BOND
     1     1     2    1
     2     2     3    1
     3     3     4   ar
     4     4     5   ar
     5     5     6    1
     6     6     7   am
     7     7     8    2
     8     7     9   am
     9     9    10    1
    10    10    11   ar
    11    11    12   ar
    12    12    13   ar
    13    13    14    1
    14    14    15    1
    15    15    16   ar
    16    16    17   ar
    17    17    18   ar
    18    18    19   ar
    19    19    20    1
    20    20    21    1
    21    21    22   ar
    22    22    23   ar
    23    23    24    1
    24    24    25    1
    25    23    26   ar
    26    26    27   ar
    27    27    28    1
    28    28    29    2
    29    28    30   am
    30    30    31    1
    31    31    32    1
    32    32    33    1
    33    33    34    1
    34    34    35    1
    35    35    36    1
    36    36    37    1
    37    37    38    1
    38    27    39   ar
    39    19    40   ar
    40    13    41   ar
    41    41    42   ar
    42    42    43   ar
    43    43    44   ar
    44    44    45   ar
    45    45    46   ar
    46     5    47   ar
    47    47    48    1
    48    48    49   ar
    49    49    50   ar
    50    50    51   ar
    51    51    52    1
    52    51    53   ar
    53    53    54   ar
    54    47    55   ar
    55    55     3   ar
    56    46    10   ar
    57    54    48   ar
    58    40    15   ar
    59    46    41   ar
    60    39    21   ar
    61    38    33    1
    62     1    56    1
    63     1    57    1
    64     1    58    1
    65     2    59    1
    66     2    60    1
    67     4    61    1
    68     6    62    1
    69     9    63    1
    70    11    64    1
    71    12    65    1
    72    16    66    1
    73    17    67    1
    74    20    68    1
    75    22    69    1
    76    25    70    1
    77    25    71    1
    78    25    72    1
    79    26    73    1
    80    30    74    1
    81    31    75    1
    82    31    76    1
    83    32    77    1
    84    32    78    1
    85    34    79    1
    86    34    80    1
    87    35    81    1
    88    35    82    1
    89    37    83    1
    90    37    84    1
    91    38    85    1
    92    38    86    1
    93    39    87    1
    94    42    88    1
    95    43    89    1
    96    44    90    1
    97    45    91    1
    98    49    92    1
    99    50    93    1
   100    52    94    1
   101    52    95    1
   102    52    96    1
   103    53    97    1
   104    54    98    1
