@<TRIPOS>MOLECULE
*****
 58 57 0 0 0
SMALL
GASTEIGER

@<TRIPOS>ATOM
      1 C          -3.4705    0.4764    0.2846 C.3     1  UNL1        0.1165
      2 C          -1.9351    0.2081    0.2079 C.3     1  UNL1        0.0766
      3 O          -1.5175   -0.4204    1.2925 O.3     1  UNL1       -0.3771
      4 C          -0.2699   -0.6883    1.6006 C.3     1  UNL1        0.0478
      5 C           0.6703   -1.5040    0.7929 C.3     1  UNL1       -0.0295
      6 C           1.0105   -0.9334   -0.5234 C.3     1  UNL1       -0.0510
      7 C           2.0212   -1.8025   -1.2840 C.3     1  UNL1       -0.0530
      8 C           3.3018   -1.9425   -0.5175 C.3     1  UNL1       -0.0531
      9 C           3.9669   -0.6034   -0.2601 C.3     1  UNL1       -0.0531
     10 C           5.2282   -0.9009    0.5108 C.3     1  UNL1       -0.0531
     11 C           6.0215    0.3167    0.8560 C.3     1  UNL1       -0.0533
     12 C           6.4389    1.0483   -0.4166 C.3     1  UNL1       -0.0559
     13 C           7.2451    2.2813   -0.0021 C.3     1  UNL1       -0.0653
     14 C          -4.1573   -0.8795    0.2255 C.3     1  UNL1        0.0770
     15 O          -3.7427   -1.4595   -0.9406 O.3     1  UNL1       -0.3683
     16 C          -4.1602   -2.7324   -1.1772 C.3     1  UNL1        0.1427
     17 C          -5.6568   -2.8403   -1.2205 C.3     1  UNL1        0.4128
     18 F          -6.0192   -4.1674   -1.5080 F       1  UNL1       -0.1682
     19 F          -6.2553   -2.0239   -2.1336 F       1  UNL1       -0.1682
     20 F          -6.1566   -2.5963    0.0686 F       1  UNL1       -0.1682
     21 O          -3.7328    1.2385    1.3617 O.3     1  UNL1       -0.2787
     22 P          -4.3569    2.7607    1.1083 P.3     1  UNL1        0.4751
     23 O          -3.0685    3.8588    1.0567 O.3     1  UNL1       -0.3025
     24 O          -5.2782    3.2241    2.2093 O.2     1  UNL1       -0.2273
     25 O          -5.1252    2.8237   -0.4030 O.3     1  UNL1       -0.2900
     26 C          -5.8632    3.9984   -0.4426 C.3     1  UNL1        0.0479
     27 H          -3.7235    1.0075   -0.6470 H       1  UNL1        0.0648
     28 H          -1.4870    1.2030    0.0290 H       1  UNL1        0.0586
     29 H          -1.8959   -0.4598   -0.7045 H       1  UNL1        0.0586
     30 H           0.2348    0.3479    1.8164 H       1  UNL1        0.0560
     31 H          -0.2494   -1.0881    2.6952 H       1  UNL1        0.0560
     32 H           0.2274   -2.5339    0.6599 H       1  UNL1        0.0287
     33 H           1.5896   -1.7201    1.4130 H       1  UNL1        0.0287
     34 H           0.1364   -0.8753   -1.1793 H       1  UNL1        0.0266
     35 H           1.4350    0.0788   -0.4402 H       1  UNL1        0.0266
     36 H           1.6142   -2.7954   -1.4813 H       1  UNL1        0.0265
     37 H           2.2291   -1.3040   -2.2521 H       1  UNL1        0.0265
     38 H           4.0232   -2.5212   -1.1411 H       1  UNL1        0.0265
     39 H           3.1998   -2.4812    0.4306 H       1  UNL1        0.0265
     40 H           4.1180   -0.0392   -1.1811 H       1  UNL1        0.0265
     41 H           3.3251    0.0348    0.3940 H       1  UNL1        0.0265
     42 H           4.9405   -1.3947    1.4559 H       1  UNL1        0.0265
     43 H           5.9004   -1.5634   -0.1047 H       1  UNL1        0.0265
     44 H           6.9767   -0.0402    1.3158 H       1  UNL1        0.0265
     45 H           5.5573    0.9906    1.5751 H       1  UNL1        0.0265
     46 H           7.0668    0.3910   -1.0464 H       1  UNL1        0.0263
     47 H           5.5541    1.3912   -0.9633 H       1  UNL1        0.0263
     48 H           6.5626    3.0938    0.2790 H       1  UNL1        0.0230
     49 H           7.8922    2.5297   -0.8808 H       1  UNL1        0.0230
     50 H           7.8671    1.9969    0.8478 H       1  UNL1        0.0230
     51 H          -5.2557   -0.6778    0.1477 H       1  UNL1        0.0586
     52 H          -3.8848   -1.5463    1.0644 H       1  UNL1        0.0586
     53 H          -3.7522   -3.1290   -2.1551 H       1  UNL1        0.0650
     54 H          -3.7391   -3.4402   -0.4090 H       1  UNL1        0.0650
     55 H          -3.3710    4.8086    1.0760 H       1  UNL1        0.2220
     56 H          -5.2431    4.8878   -0.7211 H       1  UNL1        0.0529
     57 H          -6.3177    4.1453    0.5584 H       1  UNL1        0.0529
     58 H          -6.6697    3.9627   -1.1974 H       1  UNL1        0.0529
@<TRIPOS>BOND
     1     1     2    1
     2     2     3    1
     3     3     4    1
     4     4     5    1
     5     5     6    1
     6     6     7    1
     7     7     8    1
     8     8     9    1
     9     9    10    1
    10    10    11    1
    11    11    12    1
    12    12    13    1
    13     1    14    1
    14    14    15    1
    15    15    16    1
    16    16    17    1
    17    17    18    1
    18    17    19    1
    19    17    20    1
    20     1    21    1
    21    22    21    1
    22    22    23    1
    23    22    24    2
    24    22    25    1
    25    25    26    1
    26     1    27    1
    27     2    28    1
    28     2    29    1
    29     4    30    1
    30     4    31    1
    31     5    32    1
    32     5    33    1
    33     6    34    1
    34     6    35    1
    35     7    36    1
    36     7    37    1
    37     8    38    1
    38     8    39    1
    39     9    40    1
    40     9    41    1
    41    10    42    1
    42    10    43    1
    43    11    44    1
    44    11    45    1
    45    12    46    1
    46    12    47    1
    47    13    48    1
    48    13    49    1
    49    13    50    1
    50    14    51    1
    51    14    52    1
    52    16    53    1
    53    16    54    1
    54    23    55    1
    55    26    56    1
    56    26    57    1
    57    26    58    1
