
     RDKit          3D

 16 15  0  0  0  0  0  0  0  0999 V2000
   -0.3368   -1.4636   -0.8644 N   0  0  0  0  0  0  0  0  0  0  0  0
   -0.3444   -0.4660    0.1632 C   0  0  1  0  0  0  0  0  0  0  0  0
    0.3460    0.7925   -0.2783 C   0  0  0  0  0  0  0  0  0  0  0  0
    1.7576    0.4383   -0.6133 C   0  0  0  0  0  0  0  0  0  0  0  0
    2.8253    0.7262    0.2426 O   0  0  0  0  0  0  0  0  0  0  0  0
    2.0745   -0.1375   -1.6788 O   0  0  0  0  0  0  0  0  0  0  0  0
   -1.7288   -0.0736    0.5660 C   0  0  0  0  0  0  0  0  0  0  0  0
   -1.7092    0.9038    1.5723 O   0  0  0  0  0  0  0  0  0  0  0  0
   -2.8603   -0.4369    0.1911 O   0  0  0  0  0  0  0  0  0  0  0  0
   -0.8061   -2.3281   -0.5353 H   0  0  0  0  0  0  0  0  0  0  0  0
   -0.5925   -1.1316   -1.7991 H   0  0  0  0  0  0  0  0  0  0  0  0
    0.1594   -0.8496    1.0570 H   0  0  0  0  0  0  0  0  0  0  0  0
    0.3531    1.4975    0.5772 H   0  0  0  0  0  0  0  0  0  0  0  0
   -0.1558    1.3004   -1.1171 H   0  0  0  0  0  0  0  0  0  0  0  0
    3.5405    0.0468    0.4136 H   0  0  0  0  0  0  0  0  0  0  0  0
   -2.5224    1.1815    2.1034 H   0  0  0  0  0  0  0  0  0  0  0  0
  1  2  1  0
  2  3  1  0
  3  4  1  0
  4  5  1  0
  4  6  2  0
  2  7  1  0
  7  8  1  0
  7  9  2  0
  1 10  1  0
  1 11  1  0
  2 12  1  1
  3 13  1  0
  3 14  1  0
  5 15  1  0
  8 16  1  0
M  END
$$$$
