
     RDKit          3D

 25 25  0  0  0  0  0  0  0  0999 V2000
    1.4798   -0.6005   -0.4808 C   0  0  1  0  0  0  0  0  0  0  0  0
    2.6099   -1.4506   -0.1254 N   0  0  0  0  0  0  0  0  0  0  0  0
    0.2462   -1.2692    0.0571 C   0  0  0  0  0  0  0  0  0  0  0  0
   -1.0083   -0.5413   -0.2124 C   0  0  0  0  0  0  0  0  0  0  0  0
   -1.8096   -0.7012   -1.3204 C   0  0  0  0  0  0  0  0  0  0  0  0
   -2.9666   -0.0017   -1.5267 C   0  0  0  0  0  0  0  0  0  0  0  0
   -3.3734    0.9197   -0.5878 C   0  0  0  0  0  0  0  0  0  0  0  0
   -2.5888    1.1026    0.5366 C   0  0  0  0  0  0  0  0  0  0  0  0
   -1.4299    0.3894    0.7245 C   0  0  0  0  0  0  0  0  0  0  0  0
    1.6626    0.7778   -0.0085 C   0  0  0  0  0  0  0  0  0  0  0  0
    0.8468    1.6701   -0.1884 O   0  0  0  0  0  0  0  0  0  0  0  0
    2.9028    1.1516    0.7387 C   0  0  0  0  0  0  0  0  0  0  0  0
    2.8557    2.8608    1.1824 Cl  0  0  0  0  0  0  0  0  0  0  0  0
    1.4408   -0.6243   -1.6004 H   0  0  0  0  0  0  0  0  0  0  0  0
    2.2881   -2.4431   -0.3189 H   0  0  0  0  0  0  0  0  0  0  0  0
    2.7330   -1.3630    0.9222 H   0  0  0  0  0  0  0  0  0  0  0  0
    0.3711   -1.4048    1.1380 H   0  0  0  0  0  0  0  0  0  0  0  0
    0.1730   -2.2698   -0.4130 H   0  0  0  0  0  0  0  0  0  0  0  0
   -1.4892   -1.4264   -2.0592 H   0  0  0  0  0  0  0  0  0  0  0  0
   -3.5735   -0.1615   -2.4238 H   0  0  0  0  0  0  0  0  0  0  0  0
   -4.2932    1.4526   -0.7864 H   0  0  0  0  0  0  0  0  0  0  0  0
   -2.9710    1.8447    1.2338 H   0  0  0  0  0  0  0  0  0  0  0  0
   -0.9183    0.6373    1.6502 H   0  0  0  0  0  0  0  0  0  0  0  0
    3.7697    0.9133    0.0714 H   0  0  0  0  0  0  0  0  0  0  0  0
    3.0423    0.5375    1.6354 H   0  0  0  0  0  0  0  0  0  0  0  0
  1  2  1  0
  1  3  1  0
  3  4  1  0
  4  5  2  0
  5  6  1  0
  6  7  2  0
  7  8  1  0
  8  9  2  0
  1 10  1  0
 10 11  2  0
 10 12  1  0
 12 13  1  0
  9  4  1  0
  1 14  1  6
  2 15  1  0
  2 16  1  0
  3 17  1  0
  3 18  1  0
  5 19  1  0
  6 20  1  0
  7 21  1  0
  8 22  1  0
  9 23  1  0
 12 24  1  0
 12 25  1  0
M  END
$$$$
