
     RDKit          3D

 62 64  0  0  0  0  0  0  0  0999 V2000
   -1.8135   -2.1605    1.2994 C   0  0  0  0  0  0  0  0  0  0  0  0
   -0.6542   -1.6052    1.0278 C   0  0  0  0  0  0  0  0  0  0  0  0
    0.5329   -2.5325    1.0363 C   0  0  0  0  0  0  0  0  0  0  0  0
   -0.5719   -0.2027    0.6508 C   0  0  0  0  0  0  0  0  0  0  0  0
   -1.6557    0.4518    0.1356 C   0  0  0  0  0  0  0  0  0  0  0  0
   -2.8357   -0.2338   -0.2851 N   0  0  0  0  0  0  0  0  0  0  0  0
   -2.8073   -1.2001   -1.3277 C   0  0  0  0  0  0  0  0  0  0  0  0
   -1.6121   -1.4217   -1.9875 C   0  0  0  0  0  0  0  0  0  0  0  0
   -1.4928   -2.3408   -2.9940 C   0  0  0  0  0  0  0  0  0  0  0  0
   -2.5859   -3.0308   -3.3274 N   0  0  0  0  0  0  0  0  0  0  0  0
   -3.7525   -2.8355   -2.7060 C   0  0  0  0  0  0  0  0  0  0  0  0
   -3.9310   -1.9069   -1.6679 C   0  0  0  0  0  0  0  0  0  0  0  0
   -5.2197   -1.7624   -1.0486 C   0  0  0  0  0  0  0  0  0  0  0  0
   -6.1604   -2.5085   -1.4995 O   0  0  0  0  0  0  0  0  0  0  0  0
   -5.5927   -0.9326   -0.0334 O   0  0  0  0  0  0  0  0  0  0  0  0
   -6.9044   -0.8905    0.4860 C   0  0  0  0  0  0  0  0  0  0  0  0
   -1.6250    1.8561   -0.0736 C   0  0  0  0  0  0  0  0  0  0  0  0
   -0.5029    2.5472    0.2394 C   0  0  0  0  0  0  0  0  0  0  0  0
   -0.4093    3.9877    0.0540 C   0  0  0  0  0  0  0  0  0  0  0  0
    0.7831    4.5987    0.4714 C   0  0  0  0  0  0  0  0  0  0  0  0
    1.0073    5.9288    0.3522 C   0  0  0  0  0  0  0  0  0  0  0  0
    2.5125    6.6854    0.8812 Cl  0  0  0  0  0  0  0  0  0  0  0  0
    0.0446    6.7467   -0.1980 C   0  0  0  0  0  0  0  0  0  0  0  0
   -1.1278    6.1630   -0.6112 C   0  0  0  0  0  0  0  0  0  0  0  0
   -1.3619    4.7920   -0.4897 C   0  0  0  0  0  0  0  0  0  0  0  0
   -2.5388    4.2761   -0.9213 F   0  0  0  0  0  0  0  0  0  0  0  0
    0.5362    1.8805    0.7348 N   0  0  0  0  0  0  0  0  0  0  0  0
    0.5733    0.5541    0.9593 C   0  0  0  0  0  0  0  0  0  0  0  0
    1.7237   -0.0447    1.5167 N   0  0  0  0  0  0  0  0  0  0  0  0
    2.8777   -0.4322    0.7728 C   0  0  0  0  0  0  0  0  0  0  0  0
    2.9035   -0.2442   -0.4470 O   0  0  0  0  0  0  0  0  0  0  0  0
    3.9447   -1.0054    1.4005 O   0  0  0  0  0  0  0  0  0  0  0  0
    5.0957   -1.4052    0.7366 C   0  0  0  0  0  0  0  0  0  0  0  0
    5.8297   -0.3281    0.0183 C   0  0  0  0  0  0  0  0  0  0  0  0
    6.0396   -2.0005    1.7856 C   0  0  0  0  0  0  0  0  0  0  0  0
    4.7129   -2.4811   -0.2599 C   0  0  0  0  0  0  0  0  0  0  0  0
   -1.8020   -3.2521    1.5015 H   0  0  0  0  0  0  0  0  0  0  0  0
   -2.7704   -1.7008    1.3972 H   0  0  0  0  0  0  0  0  0  0  0  0
    1.0622   -2.4165    0.0734 H   0  0  0  0  0  0  0  0  0  0  0  0
    0.1171   -3.5797    0.9975 H   0  0  0  0  0  0  0  0  0  0  0  0
    1.1661   -2.3809    1.8984 H   0  0  0  0  0  0  0  0  0  0  0  0
   -3.7030    0.0311    0.1986 H   0  0  0  0  0  0  0  0  0  0  0  0
   -0.7422   -0.8508   -1.7145 H   0  0  0  0  0  0  0  0  0  0  0  0
   -0.5382   -2.5141   -3.5167 H   0  0  0  0  0  0  0  0  0  0  0  0
   -4.6311   -3.4236   -3.0094 H   0  0  0  0  0  0  0  0  0  0  0  0
   -7.0253   -0.0851    1.2258 H   0  0  0  0  0  0  0  0  0  0  0  0
   -7.6365   -0.7265   -0.3363 H   0  0  0  0  0  0  0  0  0  0  0  0
   -7.1911   -1.8574    0.9845 H   0  0  0  0  0  0  0  0  0  0  0  0
   -2.5256    2.2734   -0.4739 H   0  0  0  0  0  0  0  0  0  0  0  0
    1.5645    3.9690    0.9127 H   0  0  0  0  0  0  0  0  0  0  0  0
    0.2076    7.8264   -0.3033 H   0  0  0  0  0  0  0  0  0  0  0  0
   -1.9300    6.7629   -1.0565 H   0  0  0  0  0  0  0  0  0  0  0  0
    1.7590   -0.2169    2.5545 H   0  0  0  0  0  0  0  0  0  0  0  0
    5.3089   -0.0727   -0.9454 H   0  0  0  0  0  0  0  0  0  0  0  0
    6.8137   -0.7629   -0.3170 H   0  0  0  0  0  0  0  0  0  0  0  0
    6.0702    0.5515    0.6208 H   0  0  0  0  0  0  0  0  0  0  0  0
    7.0597   -2.1381    1.3731 H   0  0  0  0  0  0  0  0  0  0  0  0
    6.0728   -1.2636    2.6280 H   0  0  0  0  0  0  0  0  0  0  0  0
    5.5829   -2.9297    2.1382 H   0  0  0  0  0  0  0  0  0  0  0  0
    5.5567   -3.1635   -0.4846 H   0  0  0  0  0  0  0  0  0  0  0  0
    4.3524   -2.0031   -1.1939 H   0  0  0  0  0  0  0  0  0  0  0  0
    3.8399   -3.0382    0.1665 H   0  0  0  0  0  0  0  0  0  0  0  0
  1  2  2  3
  2  3  1  0
  2  4  1  0
  4  5  2  0
  5  6  1  0
  6  7  1  0
  7  8  2  0
  8  9  1  0
  9 10  2  0
 10 11  1  0
 11 12  2  0
 12 13  1  0
 13 14  2  0
 13 15  1  0
 15 16  1  0
  5 17  1  0
 17 18  2  0
 18 19  1  0
 19 20  2  0
 20 21  1  0
 21 22  1  0
 21 23  2  0
 23 24  1  0
 24 25  2  0
 25 26  1  0
 18 27  1  0
 27 28  2  0
 28 29  1  0
 29 30  1  0
 30 31  2  0
 30 32  1  0
 32 33  1  0
 33 34  1  0
 33 35  1  0
 33 36  1  0
 28  4  1  0
 12  7  1  0
 25 19  1  0
  1 37  1  0
  1 38  1  0
  3 39  1  0
  3 40  1  0
  3 41  1  0
  6 42  1  0
  8 43  1  0
  9 44  1  0
 11 45  1  0
 16 46  1  0
 16 47  1  0
 16 48  1  0
 17 49  1  0
 20 50  1  0
 23 51  1  0
 24 52  1  0
 29 53  1  0
 34 54  1  0
 34 55  1  0
 34 56  1  0
 35 57  1  0
 35 58  1  0
 35 59  1  0
 36 60  1  0
 36 61  1  0
 36 62  1  0
M  END
$$$$
