@<TRIPOS>MOLECULE
*****
 62 64 0 0 0
SMALL
GASTEIGER

@<TRIPOS>ATOM
      1 C          -1.8135   -2.1605    1.2994 C.2     1  UNL1       -0.0950
      2 C          -0.6542   -1.6052    1.0278 C.2     1  UNL1       -0.0453
      3 C           0.5329   -2.5325    1.0363 C.3     1  UNL1       -0.0395
      4 C          -0.5719   -0.2027    0.6508 C.ar    1  UNL1        0.0387
      5 C          -1.6557    0.4518    0.1356 C.ar    1  UNL1        0.0442
      6 N          -2.8357   -0.2338   -0.2851 N.pl3   1  UNL1       -0.3132
      7 C          -2.8073   -1.2001   -1.3277 C.ar    1  UNL1        0.0484
      8 C          -1.6121   -1.4217   -1.9875 C.ar    1  UNL1       -0.0216
      9 C          -1.4928   -2.3408   -2.9940 C.ar    1  UNL1        0.0294
     10 N          -2.5859   -3.0308   -3.3274 N.ar    1  UNL1       -0.2623
     11 C          -3.7525   -2.8355   -2.7060 C.ar    1  UNL1        0.0433
     12 C          -3.9310   -1.9069   -1.6679 C.ar    1  UNL1        0.0981
     13 C          -5.2197   -1.7624   -1.0486 C.2     1  UNL1        0.3422
     14 O          -6.1604   -2.5085   -1.4995 O.2     1  UNL1       -0.2448
     15 O          -5.5927   -0.9326   -0.0334 O.3     1  UNL1       -0.4644
     16 C          -6.9044   -0.8905    0.4860 C.3     1  UNL1        0.0820
     17 C          -1.6250    1.8561   -0.0736 C.ar    1  UNL1       -0.0137
     18 C          -0.5029    2.5472    0.2394 C.ar    1  UNL1        0.0777
     19 C          -0.4093    3.9877    0.0540 C.ar    1  UNL1        0.0370
     20 C           0.7831    4.5987    0.4714 C.ar    1  UNL1       -0.0314
     21 C           1.0073    5.9288    0.3522 C.ar    1  UNL1        0.0418
     22 CL          2.5125    6.6854    0.8812 Cl      1  UNL1       -0.0835
     23 C           0.0446    6.7467   -0.1980 C.ar    1  UNL1       -0.0406
     24 C          -1.1278    6.1630   -0.6112 C.ar    1  UNL1       -0.0244
     25 C          -1.3619    4.7920   -0.4897 C.ar    1  UNL1        0.1326
     26 F          -2.5388    4.2761   -0.9213 F       1  UNL1       -0.2048
     27 N           0.5362    1.8805    0.7348 N.ar    1  UNL1       -0.2309
     28 C           0.5733    0.5541    0.9593 C.ar    1  UNL1        0.1373
     29 N           1.7237   -0.0447    1.5167 N.am    1  UNL1       -0.2350
     30 C           2.8777   -0.4322    0.7728 C.2     1  UNL1        0.4062
     31 O           2.9035   -0.2442   -0.4470 O.2     1  UNL1       -0.2261
     32 O           3.9447   -1.0054    1.4005 O.3     1  UNL1       -0.4444
     33 C           5.0957   -1.4052    0.7366 C.3     1  UNL1        0.1068
     34 C           5.8297   -0.3281    0.0183 C.3     1  UNL1       -0.0253
     35 C           6.0396   -2.0005    1.7856 C.3     1  UNL1       -0.0253
     36 C           4.7129   -2.4811   -0.2599 C.3     1  UNL1       -0.0253
     37 H          -1.8020   -3.2521    1.5015 H       1  UNL1        0.0538
     38 H          -2.7704   -1.7008    1.3972 H       1  UNL1        0.0538
     39 H           1.0622   -2.4165    0.0734 H       1  UNL1        0.0278
     40 H           0.1171   -3.5797    0.9975 H       1  UNL1        0.0278
     41 H           1.1661   -2.3809    1.8984 H       1  UNL1        0.0278
     42 H          -3.7030    0.0311    0.1986 H       1  UNL1        0.1522
     43 H          -0.7422   -0.8508   -1.7145 H       1  UNL1        0.0651
     44 H          -0.5382   -2.5141   -3.5167 H       1  UNL1        0.0830
     45 H          -4.6311   -3.4236   -3.0094 H       1  UNL1        0.0838
     46 H          -7.0253   -0.0851    1.2258 H       1  UNL1        0.0661
     47 H          -7.6365   -0.7265   -0.3363 H       1  UNL1        0.0661
     48 H          -7.1911   -1.8574    0.9845 H       1  UNL1        0.0661
     49 H          -2.5256    2.2734   -0.4739 H       1  UNL1        0.0658
     50 H           1.5645    3.9690    0.9127 H       1  UNL1        0.0639
     51 H           0.2076    7.8264   -0.3033 H       1  UNL1        0.0633
     52 H          -1.9300    6.7629   -1.0565 H       1  UNL1        0.0647
     53 H           1.7590   -0.2169    2.5545 H       1  UNL1        0.1596
     54 H           5.3089   -0.0727   -0.9454 H       1  UNL1        0.0268
     55 H           6.8137   -0.7629   -0.3170 H       1  UNL1        0.0268
     56 H           6.0702    0.5515    0.6208 H       1  UNL1        0.0268
     57 H           7.0597   -2.1381    1.3731 H       1  UNL1        0.0268
     58 H           6.0728   -1.2636    2.6280 H       1  UNL1        0.0268
     59 H           5.5829   -2.9297    2.1382 H       1  UNL1        0.0268
     60 H           5.5567   -3.1635   -0.4846 H       1  UNL1        0.0268
     61 H           4.3524   -2.0031   -1.1939 H       1  UNL1        0.0268
     62 H           3.8399   -3.0382    0.1665 H       1  UNL1        0.0268
@<TRIPOS>BOND
     1     1     2    2
     2     2     3    1
     3     2     4    1
     4     4     5   ar
     5     5     6    1
     6     6     7    1
     7     7     8   ar
     8     8     9   ar
     9     9    10   ar
    10    10    11   ar
    11    11    12   ar
    12    12    13    1
    13    13    14    2
    14    13    15    1
    15    15    16    1
    16     5    17   ar
    17    17    18   ar
    18    18    19    1
    19    19    20   ar
    20    20    21   ar
    21    21    22    1
    22    21    23   ar
    23    23    24   ar
    24    24    25   ar
    25    25    26    1
    26    18    27   ar
    27    27    28   ar
    28    28    29    1
    29    29    30   am
    30    30    31    2
    31    30    32    1
    32    32    33    1
    33    33    34    1
    34    33    35    1
    35    33    36    1
    36    28     4   ar
    37    12     7   ar
    38    25    19   ar
    39     1    37    1
    40     1    38    1
    41     3    39    1
    42     3    40    1
    43     3    41    1
    44     6    42    1
    45     8    43    1
    46     9    44    1
    47    11    45    1
    48    16    46    1
    49    16    47    1
    50    16    48    1
    51    17    49    1
    52    20    50    1
    53    23    51    1
    54    24    52    1
    55    29    53    1
    56    34    54    1
    57    34    55    1
    58    34    56    1
    59    35    57    1
    60    35    58    1
    61    35    59    1
    62    36    60    1
    63    36    61    1
    64    36    62    1
