@<TRIPOS>MOLECULE
*****
 48 50 0 0 0
SMALL
GASTEIGER

@<TRIPOS>ATOM
      1 C           7.1914   -1.2512    1.1037 C.3     1  UNL1       -0.0195
      2 C           5.9267   -0.5199    0.8399 C.ar    1  UNL1        0.0754
      3 N           4.8671   -1.2273    0.4231 N.ar    1  UNL1       -0.2342
      4 C           3.6924   -0.6251    0.1667 C.ar    1  UNL1        0.1234
      5 N           2.6045   -1.4055   -0.2375 N.pl3   1  UNL1       -0.2975
      6 C           1.3473   -0.8493   -0.6588 C.ar    1  UNL1        0.0683
      7 C           0.2345   -1.0869    0.1238 C.ar    1  UNL1        0.0034
      8 C          -0.9946   -0.5779   -0.2289 C.ar    1  UNL1        0.1433
      9 N          -2.1479   -0.8245    0.5653 N.pl3   1  UNL1       -0.3233
     10 C          -3.4180   -0.2578    0.1649 C.3     1  UNL1        0.0371
     11 C          -3.3726    1.2532    0.1898 C.3     1  UNL1       -0.0331
     12 C          -4.7489    1.7678   -0.1008 C.3     1  UNL1       -0.0513
     13 C          -5.6395    1.4127    1.0691 C.3     1  UNL1       -0.0515
     14 C          -5.1801    0.2135    1.8304 C.3     1  UNL1       -0.0360
     15 C          -4.5886   -0.8179    0.8914 C.3     1  UNL1        0.0234
     16 N          -4.1148   -1.9694    1.6748 N.3     1  UNL1       -0.3257
     17 N          -1.0389    0.1423   -1.3486 N.ar    1  UNL1       -0.1336
     18 N          -0.0243    0.3962   -2.1236 N.ar    1  UNL1       -0.1409
     19 C           1.2068   -0.0987   -1.7968 C.ar    1  UNL1        0.1685
     20 C           2.3238    0.1211   -2.7094 C.2     1  UNL1        0.2635
     21 N           2.1521    0.9909   -3.7963 N.am    1  UNL1       -0.3240
     22 O           3.4065   -0.4490   -2.5295 O.2     1  UNL1       -0.2686
     23 C           3.6033    0.7591    0.3457 C.ar    1  UNL1       -0.0188
     24 C           4.6891    1.4889    0.7735 C.ar    1  UNL1       -0.0214
     25 C           5.8828    0.8379    1.0283 C.ar    1  UNL1        0.1444
     26 F           6.9450    1.5377    1.4452 F       1  UNL1       -0.2036
     27 H           6.9534   -2.1577    1.7064 H       1  UNL1        0.0293
     28 H           7.8924   -0.5823    1.6216 H       1  UNL1        0.0293
     29 H           7.6441   -1.5374    0.1387 H       1  UNL1        0.0293
     30 H           2.6764   -2.4388   -0.2435 H       1  UNL1        0.1536
     31 H           0.3269   -1.6787    1.0233 H       1  UNL1        0.0672
     32 H          -2.0756   -1.4070    1.4252 H       1  UNL1        0.1478
     33 H          -3.5297   -0.5239   -0.9279 H       1  UNL1        0.0513
     34 H          -3.1069    1.5766    1.2394 H       1  UNL1        0.0284
     35 H          -2.5970    1.6767   -0.4618 H       1  UNL1        0.0284
     36 H          -5.0973    1.2927   -1.0430 H       1  UNL1        0.0266
     37 H          -4.6972    2.8636   -0.1766 H       1  UNL1        0.0266
     38 H          -6.6795    1.3116    0.6979 H       1  UNL1        0.0266
     39 H          -5.6357    2.2751    1.7787 H       1  UNL1        0.0266
     40 H          -4.4020    0.4493    2.5843 H       1  UNL1        0.0281
     41 H          -6.0714   -0.2733    2.2959 H       1  UNL1        0.0281
     42 H          -5.3205   -1.2170    0.1890 H       1  UNL1        0.0476
     43 H          -4.9158   -2.4527    2.1403 H       1  UNL1        0.1185
     44 H          -3.6647   -2.6028    0.9534 H       1  UNL1        0.1185
     45 H           2.5230    1.9531   -3.7530 H       1  UNL1        0.1453
     46 H           1.6549    0.6743   -4.6433 H       1  UNL1        0.1453
     47 H           2.6749    1.2596    0.1460 H       1  UNL1        0.0653
     48 H           4.6422    2.5782    0.9217 H       1  UNL1        0.0648
@<TRIPOS>BOND
     1     1     2    1
     2     2     3   ar
     3     3     4   ar
     4     4     5    1
     5     5     6    1
     6     6     7   ar
     7     7     8   ar
     8     8     9    1
     9     9    10    1
    10    10    11    1
    11    11    12    1
    12    12    13    1
    13    13    14    1
    14    14    15    1
    15    15    16    1
    16     8    17   ar
    17    17    18   ar
    18    18    19   ar
    19    19    20    1
    20    20    21   am
    21    20    22    2
    22     4    23   ar
    23    23    24   ar
    24    24    25   ar
    25    25    26    1
    26    25     2   ar
    27    19     6   ar
    28    15    10    1
    29     1    27    1
    30     1    28    1
    31     1    29    1
    32     5    30    1
    33     7    31    1
    34     9    32    1
    35    10    33    1
    36    11    34    1
    37    11    35    1
    38    12    36    1
    39    12    37    1
    40    13    38    1
    41    13    39    1
    42    14    40    1
    43    14    41    1
    44    15    42    1
    45    16    43    1
    46    16    44    1
    47    21    45    1
    48    21    46    1
    49    23    47    1
    50    24    48    1
