@<TRIPOS>MOLECULE
*****
 46 50 0 0 0
SMALL
GASTEIGER

@<TRIPOS>ATOM
      1 C          -3.1946    1.3799   -0.3460 C.3     1  UNL1       -0.0223
      2 C          -2.5328    0.1337   -0.8741 C.3     1  UNL1        0.1365
      3 C          -3.6336   -0.7232   -1.5161 C.3     1  UNL1       -0.0085
      4 C          -3.6883   -2.0865   -0.8817 C.3     1  UNL1       -0.0258
      5 C          -3.6613   -2.0555    0.6079 C.3     1  UNL1        0.0484
      6 O          -2.8727   -1.0331    1.1320 O.3     1  UNL1       -0.3697
      7 C          -1.9050   -0.7034    0.1847 C.3     1  UNL1        0.1304
      8 C          -0.6740   -0.1076    0.8130 C.3     1  UNL1        0.1583
      9 C          -0.9733    0.9822    1.7947 C.3     1  UNL1        0.1244
     10 O          -0.0073    0.7445    2.8119 O.2     1  UNL1       -0.4630
     11 C           0.2598   -0.6238    2.7898 C.2     1  UNL1        0.2762
     12 N           0.8555   -1.3811    3.8444 N.pl3   1  UNL1       -0.3134
     13 N          -0.1032   -1.1338    1.6795 N.2     1  UNL1       -0.2193
     14 C           0.2554    0.2835   -0.2476 C.ar    1  UNL1        0.0282
     15 C           1.6058    0.3673   -0.0028 C.ar    1  UNL1       -0.0448
     16 C           2.5144    0.7376   -0.9917 C.ar    1  UNL1       -0.0144
     17 C           3.9545    0.8196   -0.7043 C.ar    1  UNL1        0.0183
     18 C           4.8889    0.5550   -1.6748 C.ar    1  UNL1        0.0385
     19 N           6.1824    0.6426   -1.3652 N.ar    1  UNL1       -0.2431
     20 C           6.6385    0.9786   -0.1453 C.ar    1  UNL1        0.1159
     21 N           5.7110    1.2328    0.7875 N.ar    1  UNL1       -0.2431
     22 C           4.3921    1.1659    0.5536 C.ar    1  UNL1        0.0385
     23 C           2.0235    1.0233   -2.2424 C.ar    1  UNL1       -0.0505
     24 C           0.6617    0.9371   -2.4827 C.ar    1  UNL1       -0.0190
     25 C          -0.2272    0.5712   -1.5022 C.ar    1  UNL1        0.1271
     26 O          -1.5718    0.5098   -1.8268 O.3     1  UNL1       -0.4829
     27 H          -3.9878    1.6601   -1.0991 H       1  UNL1        0.0269
     28 H          -2.4806    2.2246   -0.3344 H       1  UNL1        0.0269
     29 H          -3.7244    1.2211    0.6032 H       1  UNL1        0.0269
     30 H          -4.6284   -0.2476   -1.4154 H       1  UNL1        0.0305
     31 H          -3.3804   -0.8909   -2.6034 H       1  UNL1        0.0305
     32 H          -4.6813   -2.5323   -1.1823 H       1  UNL1        0.0289
     33 H          -2.9346   -2.7934   -1.3185 H       1  UNL1        0.0289
     34 H          -3.2050   -3.0089    0.9675 H       1  UNL1        0.0560
     35 H          -4.6833   -2.0341    1.0634 H       1  UNL1        0.0560
     36 H          -1.5872   -1.6614   -0.2823 H       1  UNL1        0.0665
     37 H          -1.9572    0.8446    2.2495 H       1  UNL1        0.0726
     38 H          -0.8014    2.0005    1.3971 H       1  UNL1        0.0726
     39 H           0.7159   -1.1043    4.8370 H       1  UNL1        0.1466
     40 H           1.4446   -2.2257    3.6828 H       1  UNL1        0.1466
     41 H           2.0074    0.1458    0.9753 H       1  UNL1        0.0628
     42 H           4.5519    0.2758   -2.6883 H       1  UNL1        0.0837
     43 H           7.7117    1.0435    0.0827 H       1  UNL1        0.1047
     44 H           3.6686    1.3852    1.3573 H       1  UNL1        0.0837
     45 H           2.7358    1.3098   -3.0034 H       1  UNL1        0.0625
     46 H           0.3174    1.1713   -3.4839 H       1  UNL1        0.0654
@<TRIPOS>BOND
     1     2     1    1
     2     2     3    1
     3     3     4    1
     4     4     5    1
     5     5     6    1
     6     6     7    1
     7     7     8    1
     8     8     9    1
     9     9    10    1
    10    10    11    1
    11    11    12    1
    12    11    13    2
    13     8    14    1
    14    14    15   ar
    15    15    16   ar
    16    16    17    1
    17    17    18   ar
    18    18    19   ar
    19    19    20   ar
    20    20    21   ar
    21    21    22   ar
    22    16    23   ar
    23    23    24   ar
    24    24    25   ar
    25    25    26    1
    26     7     2    1
    27    13     8    1
    28    25    14   ar
    29    26     2    1
    30    22    17   ar
    31     1    27    1
    32     1    28    1
    33     1    29    1
    34     3    30    1
    35     3    31    1
    36     4    32    1
    37     4    33    1
    38     5    34    1
    39     5    35    1
    40     7    36    1
    41     9    37    1
    42     9    38    1
    43    12    39    1
    44    12    40    1
    45    15    41    1
    46    18    42    1
    47    20    43    1
    48    22    44    1
    49    23    45    1
    50    24    46    1
