
     RDKit          3D

 33 36  0  0  0  0  0  0  0  0999 V2000
    1.2342    2.3509    1.0369 O   0  0  0  0  0  0  0  0  0  0  0  0
    0.6880    1.3291    0.5853 C   0  0  0  0  0  0  0  0  0  0  0  0
   -0.6861    1.4361    0.5629 C   0  0  0  0  0  0  0  0  0  0  0  0
   -1.4192    0.3846    0.0899 C   0  0  0  0  0  0  0  0  0  0  0  0
   -0.7958   -0.6920   -0.3275 O   0  0  0  0  0  0  0  0  0  0  0  0
    0.4863   -0.8459   -0.3290 C   0  0  0  0  0  0  0  0  0  0  0  0
    1.2750    0.1787    0.1355 C   0  0  0  0  0  0  0  0  0  0  0  0
    2.6157    0.0439    0.1448 C   0  0  0  0  0  0  0  0  0  0  0  0
    3.4302    1.0430    0.6000 C   0  0  0  0  0  0  0  0  0  0  0  0
    4.7997    0.8864    0.6016 C   0  0  0  0  0  0  0  0  0  0  0  0
    5.2958   -0.3180    0.1250 C   0  0  0  0  0  0  0  0  0  0  0  0
    4.5214   -1.3504   -0.3421 C   0  0  0  0  0  0  0  0  0  0  0  0
    3.1615   -1.1296   -0.3166 C   0  0  0  0  0  0  0  0  0  0  0  0
    2.3724   -2.1789   -0.7914 C   0  0  0  0  0  0  0  0  0  0  0  0
    1.0012   -2.0346   -0.7982 C   0  0  0  0  0  0  0  0  0  0  0  0
   -2.8717    0.3963    0.0240 C   0  0  0  0  0  0  0  0  0  0  0  0
   -3.6893    1.4339    0.4157 C   0  0  0  0  0  0  0  0  0  0  0  0
   -5.0595    1.4152    0.3411 C   0  0  0  0  0  0  0  0  0  0  0  0
   -5.6991    0.3010   -0.1534 C   0  0  0  0  0  0  0  0  0  0  0  0
   -4.9466   -0.7710   -0.5626 C   0  0  0  0  0  0  0  0  0  0  0  0
   -3.5740   -0.6908   -0.4624 C   0  0  0  0  0  0  0  0  0  0  0  0
   -1.2284    2.2988    0.8952 H   0  0  0  0  0  0  0  0  0  0  0  0
    3.1595    1.9986    0.9842 H   0  0  0  0  0  0  0  0  0  0  0  0
    5.5382    1.6172    0.9415 H   0  0  0  0  0  0  0  0  0  0  0  0
    6.3728   -0.4774    0.1112 H   0  0  0  0  0  0  0  0  0  0  0  0
    4.9593   -2.2724   -0.7042 H   0  0  0  0  0  0  0  0  0  0  0  0
    2.7830   -3.1208   -1.1631 H   0  0  0  0  0  0  0  0  0  0  0  0
    0.3785   -2.8312   -1.1598 H   0  0  0  0  0  0  0  0  0  0  0  0
   -3.2395    2.3307    0.8106 H   0  0  0  0  0  0  0  0  0  0  0  0
   -5.6487    2.2675    0.6669 H   0  0  0  0  0  0  0  0  0  0  0  0
   -6.7678    0.2225   -0.2382 H   0  0  0  0  0  0  0  0  0  0  0  0
   -5.4360   -1.6533   -0.9534 H   0  0  0  0  0  0  0  0  0  0  0  0
   -3.0109   -1.5682   -0.7998 H   0  0  0  0  0  0  0  0  0  0  0  0
  1  2  2  0
  2  3  1  0
  3  4  2  0
  4  5  1  0
  5  6  1  0
  6  7  2  0
  7  8  1  0
  8  9  2  0
  9 10  1  0
 10 11  2  0
 11 12  1  0
 12 13  2  0
 13 14  1  0
 14 15  2  0
  4 16  1  0
 16 17  2  0
 17 18  1  0
 18 19  2  0
 19 20  1  0
 20 21  2  0
  7  2  1  0
 13  8  1  0
 21 16  1  0
 15  6  1  0
  3 22  1  0
  9 23  1  0
 10 24  1  0
 11 25  1  0
 12 26  1  0
 14 27  1  0
 15 28  1  0
 17 29  1  0
 18 30  1  0
 19 31  1  0
 20 32  1  0
 21 33  1  0
M  END
$$$$
