@<TRIPOS>MOLECULE
*****
 33 36 0 0 0
SMALL
GASTEIGER

@<TRIPOS>ATOM
      1 O           1.2342    2.3509    1.0369 O.2     1  UNL1       -0.2870
      2 C           0.6880    1.3291    0.5853 C.ar    1  UNL1        0.1937
      3 C          -0.6861    1.4361    0.5629 C.ar    1  UNL1        0.0287
      4 C          -1.4192    0.3846    0.0899 C.ar    1  UNL1        0.1392
      5 O          -0.7958   -0.6920   -0.3275 O.2     1  UNL1       -0.4546
      6 C           0.4863   -0.8459   -0.3290 C.ar    1  UNL1        0.1398
      7 C           1.2750    0.1787    0.1355 C.ar    1  UNL1        0.0717
      8 C           2.6157    0.0439    0.1448 C.ar    1  UNL1       -0.0035
      9 C           3.4302    1.0430    0.6000 C.ar    1  UNL1       -0.0532
     10 C           4.7997    0.8864    0.6016 C.ar    1  UNL1       -0.0611
     11 C           5.2958   -0.3180    0.1250 C.ar    1  UNL1       -0.0612
     12 C           4.5214   -1.3504   -0.3421 C.ar    1  UNL1       -0.0540
     13 C           3.1615   -1.1296   -0.3166 C.ar    1  UNL1       -0.0170
     14 C           2.3724   -2.1789   -0.7914 C.ar    1  UNL1       -0.0505
     15 C           1.0012   -2.0346   -0.7982 C.ar    1  UNL1       -0.0180
     16 C          -2.8717    0.3963    0.0240 C.ar    1  UNL1        0.0174
     17 C          -3.6893    1.4339    0.4157 C.ar    1  UNL1       -0.0511
     18 C          -5.0595    1.4152    0.3411 C.ar    1  UNL1       -0.0611
     19 C          -5.6991    0.3010   -0.1534 C.ar    1  UNL1       -0.0617
     20 C          -4.9466   -0.7710   -0.5626 C.ar    1  UNL1       -0.0611
     21 C          -3.5740   -0.6908   -0.4624 C.ar    1  UNL1       -0.0511
     22 H          -1.2284    2.2988    0.8952 H       1  UNL1        0.0693
     23 H           3.1595    1.9986    0.9842 H       1  UNL1        0.0624
     24 H           5.5382    1.6172    0.9415 H       1  UNL1        0.0618
     25 H           6.3728   -0.4774    0.1112 H       1  UNL1        0.0618
     26 H           4.9593   -2.2724   -0.7042 H       1  UNL1        0.0624
     27 H           2.7830   -3.1208   -1.1631 H       1  UNL1        0.0625
     28 H           0.3785   -2.8312   -1.1598 H       1  UNL1        0.0655
     29 H          -3.2395    2.3307    0.8106 H       1  UNL1        0.0625
     30 H          -5.6487    2.2675    0.6669 H       1  UNL1        0.0618
     31 H          -6.7678    0.2225   -0.2382 H       1  UNL1        0.0618
     32 H          -5.4360   -1.6533   -0.9534 H       1  UNL1        0.0618
     33 H          -3.0109   -1.5682   -0.7998 H       1  UNL1        0.0625
@<TRIPOS>BOND
     1     1     2    2
     2     2     3   ar
     3     3     4   ar
     4     4     5   ar
     5     5     6   ar
     6     6     7   ar
     7     7     8   ar
     8     8     9   ar
     9     9    10   ar
    10    10    11   ar
    11    11    12   ar
    12    12    13   ar
    13    13    14   ar
    14    14    15   ar
    15     4    16    1
    16    16    17   ar
    17    17    18   ar
    18    18    19   ar
    19    19    20   ar
    20    20    21   ar
    21     7     2   ar
    22    13     8   ar
    23    21    16   ar
    24    15     6   ar
    25     3    22    1
    26     9    23    1
    27    10    24    1
    28    11    25    1
    29    12    26    1
    30    14    27    1
    31    15    28    1
    32    17    29    1
    33    18    30    1
    34    19    31    1
    35    20    32    1
    36    21    33    1
