@<TRIPOS>MOLECULE
*****
 61 65 0 0 0
SMALL
GASTEIGER

@<TRIPOS>ATOM
      1 C          -3.2553    2.7590   -2.4492 C.3     1  UNL1        0.0124
      2 C          -4.2856    2.5284   -1.3897 C.2     1  UNL1        0.2128
      3 O          -4.9529    3.4903   -0.9589 O.2     1  UNL1       -0.2759
      4 N          -4.4971    1.2342   -0.8854 N.am    1  UNL1       -0.2970
      5 C          -5.4837    1.0022    0.1318 C.3     1  UNL1        0.0204
      6 C          -4.9969    0.1422    1.2472 C.3     1  UNL1        0.0039
      7 C          -3.6682   -0.4765    1.0046 C.ar    1  UNL1        0.0280
      8 C          -3.0533   -0.4977   -0.2091 C.ar    1  UNL1       -0.0087
      9 C          -1.8005   -1.0936   -0.3870 C.ar    1  UNL1       -0.0287
     10 C          -1.1946   -1.6660    0.7073 C.ar    1  UNL1        0.0997
     11 N           0.0731   -2.2973    0.6127 N.pl3   1  UNL1       -0.2956
     12 C           0.2753   -3.6915    0.8871 C.3     1  UNL1        0.0177
     13 C           1.6795   -4.1331    1.0523 C.3     1  UNL1       -0.0328
     14 C           2.6304   -3.5061    0.0546 C.3     1  UNL1       -0.0245
     15 C           2.4229   -2.0534   -0.0533 C.ar    1  UNL1       -0.0254
     16 C           3.4637   -1.2444   -0.4251 C.ar    1  UNL1       -0.0486
     17 C           3.2639    0.1417   -0.5167 C.ar    1  UNL1       -0.0061
     18 C           4.3849    0.9889   -0.8857 C.ar    1  UNL1        0.0200
     19 C           5.1644    0.7579   -2.0245 C.ar    1  UNL1        0.0571
     20 N           6.1078    1.6893   -2.0594 N.ar    1  UNL1       -0.1793
     21 N           6.0135    2.5170   -1.0344 N.ar    1  UNL1       -0.2739
     22 C           6.8881    3.6451   -0.7732 C.3     1  UNL1        0.0302
     23 C           4.9502    2.0851   -0.3091 C.ar    1  UNL1        0.0329
     24 C           2.0512    0.7218   -0.2454 C.ar    1  UNL1        0.0270
     25 C           1.7472    2.1668   -0.3431 C.3     1  UNL1        0.2650
     26 F           1.2556    2.6716    0.8446 F       1  UNL1       -0.2039
     27 F           0.7769    2.3322   -1.3378 F       1  UNL1       -0.2039
     28 C           1.0135   -0.1311    0.1306 C.ar    1  UNL1       -0.0310
     29 C           1.1886   -1.5045    0.2278 C.ar    1  UNL1        0.0377
     30 C          -1.8528   -1.6202    1.9107 C.ar    1  UNL1        0.2727
     31 O          -1.2943   -2.1499    2.9286 O.2     1  UNL1       -0.2657
     32 N          -3.0638   -1.0397    2.0641 N.ar    1  UNL1       -0.3135
     33 C          -3.7203   -1.0223    3.3820 C.3     1  UNL1        0.0150
     34 C          -3.7269    0.1288   -1.3839 C.3     1  UNL1        0.0414
     35 H          -3.4147    2.0672   -3.2956 H       1  UNL1        0.0323
     36 H          -2.2573    2.5507   -2.0351 H       1  UNL1        0.0323
     37 H          -3.2753    3.7973   -2.8127 H       1  UNL1        0.0323
     38 H          -5.8226    1.9936    0.5552 H       1  UNL1        0.0468
     39 H          -6.4154    0.5688   -0.3305 H       1  UNL1        0.0468
     40 H          -5.7140   -0.6860    1.4230 H       1  UNL1        0.0343
     41 H          -4.8951    0.7159    2.2134 H       1  UNL1        0.0343
     42 H          -1.3487   -1.0874   -1.3695 H       1  UNL1        0.0642
     43 H          -0.2737   -3.9765    1.8286 H       1  UNL1        0.0468
     44 H          -0.1714   -4.2660    0.0231 H       1  UNL1        0.0468
     45 H           1.7149   -5.2420    0.8428 H       1  UNL1        0.0284
     46 H           2.0256   -4.0118    2.0972 H       1  UNL1        0.0284
     47 H           3.6672   -3.6566    0.4627 H       1  UNL1        0.0314
     48 H           2.6023   -4.0283   -0.9239 H       1  UNL1        0.0314
     49 H           4.4593   -1.6092   -0.6604 H       1  UNL1        0.0627
     50 H           4.9994   -0.0413   -2.7242 H       1  UNL1        0.0854
     51 H           7.3759    3.9449   -1.7322 H       1  UNL1        0.0473
     52 H           6.3359    4.5249   -0.4141 H       1  UNL1        0.0473
     53 H           7.7219    3.3717   -0.0891 H       1  UNL1        0.0473
     54 H           4.6141    2.5444    0.5909 H       1  UNL1        0.0832
     55 H           2.6398    2.7006   -0.6956 H       1  UNL1        0.1072
     56 H           0.0631    0.3022    0.3492 H       1  UNL1        0.0641
     57 H          -3.7993    0.0022    3.7812 H       1  UNL1        0.0457
     58 H          -4.7320   -1.4567    3.2905 H       1  UNL1        0.0457
     59 H          -3.1423   -1.6929    4.0496 H       1  UNL1        0.0457
     60 H          -4.4643   -0.6238   -1.7815 H       1  UNL1        0.0514
     61 H          -2.9980    0.4191   -2.1583 H       1  UNL1        0.0514
@<TRIPOS>BOND
     1     1     2    1
     2     2     3    2
     3     2     4   am
     4     4     5    1
     5     5     6    1
     6     6     7    1
     7     7     8   ar
     8     8     9   ar
     9     9    10   ar
    10    10    11    1
    11    11    12    1
    12    12    13    1
    13    13    14    1
    14    14    15    1
    15    15    16   ar
    16    16    17   ar
    17    17    18    1
    18    18    19   ar
    19    19    20   ar
    20    20    21   ar
    21    21    22    1
    22    21    23   ar
    23    17    24   ar
    24    24    25    1
    25    25    26    1
    26    25    27    1
    27    24    28   ar
    28    28    29   ar
    29    10    30   ar
    30    30    31    2
    31    30    32   ar
    32    32    33    1
    33     8    34    1
    34    34     4    1
    35    32     7   ar
    36    29    11    1
    37    29    15   ar
    38    23    18   ar
    39     1    35    1
    40     1    36    1
    41     1    37    1
    42     5    38    1
    43     5    39    1
    44     6    40    1
    45     6    41    1
    46     9    42    1
    47    12    43    1
    48    12    44    1
    49    13    45    1
    50    13    46    1
    51    14    47    1
    52    14    48    1
    53    16    49    1
    54    19    50    1
    55    22    51    1
    56    22    52    1
    57    22    53    1
    58    23    54    1
    59    25    55    1
    60    28    56    1
    61    33    57    1
    62    33    58    1
    63    33    59    1
    64    34    60    1
    65    34    61    1
