
     RDKit          3D

 61 65  0  0  0  0  0  0  0  0999 V2000
   -3.2553    2.7590   -2.4492 C   0  0  0  0  0  0  0  0  0  0  0  0
   -4.2856    2.5284   -1.3897 C   0  0  0  0  0  0  0  0  0  0  0  0
   -4.9529    3.4903   -0.9589 O   0  0  0  0  0  0  0  0  0  0  0  0
   -4.4971    1.2342   -0.8854 N   0  0  0  0  0  0  0  0  0  0  0  0
   -5.4837    1.0022    0.1318 C   0  0  0  0  0  0  0  0  0  0  0  0
   -4.9969    0.1422    1.2472 C   0  0  0  0  0  0  0  0  0  0  0  0
   -3.6682   -0.4765    1.0046 C   0  0  0  0  0  0  0  0  0  0  0  0
   -3.0533   -0.4977   -0.2091 C   0  0  0  0  0  0  0  0  0  0  0  0
   -1.8005   -1.0936   -0.3870 C   0  0  0  0  0  0  0  0  0  0  0  0
   -1.1946   -1.6660    0.7073 C   0  0  0  0  0  0  0  0  0  0  0  0
    0.0731   -2.2973    0.6127 N   0  0  0  0  0  0  0  0  0  0  0  0
    0.2753   -3.6915    0.8871 C   0  0  0  0  0  0  0  0  0  0  0  0
    1.6795   -4.1331    1.0523 C   0  0  0  0  0  0  0  0  0  0  0  0
    2.6304   -3.5061    0.0546 C   0  0  0  0  0  0  0  0  0  0  0  0
    2.4229   -2.0534   -0.0533 C   0  0  0  0  0  0  0  0  0  0  0  0
    3.4637   -1.2444   -0.4251 C   0  0  0  0  0  0  0  0  0  0  0  0
    3.2639    0.1417   -0.5167 C   0  0  0  0  0  0  0  0  0  0  0  0
    4.3849    0.9889   -0.8857 C   0  0  0  0  0  0  0  0  0  0  0  0
    5.1644    0.7579   -2.0245 C   0  0  0  0  0  0  0  0  0  0  0  0
    6.1078    1.6893   -2.0594 N   0  0  0  0  0  0  0  0  0  0  0  0
    6.0135    2.5170   -1.0344 N   0  0  0  0  0  0  0  0  0  0  0  0
    6.8881    3.6451   -0.7732 C   0  0  0  0  0  0  0  0  0  0  0  0
    4.9502    2.0851   -0.3091 C   0  0  0  0  0  0  0  0  0  0  0  0
    2.0512    0.7218   -0.2454 C   0  0  0  0  0  0  0  0  0  0  0  0
    1.7472    2.1668   -0.3431 C   0  0  0  0  0  0  0  0  0  0  0  0
    1.2556    2.6716    0.8446 F   0  0  0  0  0  0  0  0  0  0  0  0
    0.7769    2.3322   -1.3378 F   0  0  0  0  0  0  0  0  0  0  0  0
    1.0135   -0.1311    0.1306 C   0  0  0  0  0  0  0  0  0  0  0  0
    1.1886   -1.5045    0.2278 C   0  0  0  0  0  0  0  0  0  0  0  0
   -1.8528   -1.6202    1.9107 C   0  0  0  0  0  0  0  0  0  0  0  0
   -1.2943   -2.1499    2.9286 O   0  0  0  0  0  0  0  0  0  0  0  0
   -3.0638   -1.0397    2.0641 N   0  0  0  0  0  0  0  0  0  0  0  0
   -3.7203   -1.0223    3.3820 C   0  0  0  0  0  0  0  0  0  0  0  0
   -3.7269    0.1288   -1.3839 C   0  0  0  0  0  0  0  0  0  0  0  0
   -3.4147    2.0672   -3.2956 H   0  0  0  0  0  0  0  0  0  0  0  0
   -2.2573    2.5507   -2.0351 H   0  0  0  0  0  0  0  0  0  0  0  0
   -3.2753    3.7973   -2.8127 H   0  0  0  0  0  0  0  0  0  0  0  0
   -5.8226    1.9936    0.5552 H   0  0  0  0  0  0  0  0  0  0  0  0
   -6.4154    0.5688   -0.3305 H   0  0  0  0  0  0  0  0  0  0  0  0
   -5.7140   -0.6860    1.4230 H   0  0  0  0  0  0  0  0  0  0  0  0
   -4.8951    0.7159    2.2134 H   0  0  0  0  0  0  0  0  0  0  0  0
   -1.3487   -1.0874   -1.3695 H   0  0  0  0  0  0  0  0  0  0  0  0
   -0.2737   -3.9765    1.8286 H   0  0  0  0  0  0  0  0  0  0  0  0
   -0.1714   -4.2660    0.0231 H   0  0  0  0  0  0  0  0  0  0  0  0
    1.7149   -5.2420    0.8428 H   0  0  0  0  0  0  0  0  0  0  0  0
    2.0256   -4.0118    2.0972 H   0  0  0  0  0  0  0  0  0  0  0  0
    3.6672   -3.6566    0.4627 H   0  0  0  0  0  0  0  0  0  0  0  0
    2.6023   -4.0283   -0.9239 H   0  0  0  0  0  0  0  0  0  0  0  0
    4.4593   -1.6092   -0.6604 H   0  0  0  0  0  0  0  0  0  0  0  0
    4.9994   -0.0413   -2.7242 H   0  0  0  0  0  0  0  0  0  0  0  0
    7.3759    3.9449   -1.7322 H   0  0  0  0  0  0  0  0  0  0  0  0
    6.3359    4.5249   -0.4141 H   0  0  0  0  0  0  0  0  0  0  0  0
    7.7219    3.3717   -0.0891 H   0  0  0  0  0  0  0  0  0  0  0  0
    4.6141    2.5444    0.5909 H   0  0  0  0  0  0  0  0  0  0  0  0
    2.6398    2.7006   -0.6956 H   0  0  0  0  0  0  0  0  0  0  0  0
    0.0631    0.3022    0.3492 H   0  0  0  0  0  0  0  0  0  0  0  0
   -3.7993    0.0022    3.7812 H   0  0  0  0  0  0  0  0  0  0  0  0
   -4.7320   -1.4567    3.2905 H   0  0  0  0  0  0  0  0  0  0  0  0
   -3.1423   -1.6929    4.0496 H   0  0  0  0  0  0  0  0  0  0  0  0
   -4.4643   -0.6238   -1.7815 H   0  0  0  0  0  0  0  0  0  0  0  0
   -2.9980    0.4191   -2.1583 H   0  0  0  0  0  0  0  0  0  0  0  0
  1  2  1  0
  2  3  2  0
  2  4  1  0
  4  5  1  0
  5  6  1  0
  6  7  1  0
  7  8  2  0
  8  9  1  0
  9 10  2  0
 10 11  1  0
 11 12  1  0
 12 13  1  0
 13 14  1  0
 14 15  1  0
 15 16  2  0
 16 17  1  0
 17 18  1  0
 18 19  1  0
 19 20  2  0
 20 21  1  0
 21 22  1  0
 21 23  1  0
 17 24  2  0
 24 25  1  0
 25 26  1  0
 25 27  1  0
 24 28  1  0
 28 29  2  0
 10 30  1  0
 30 31  2  0
 30 32  1  0
 32 33  1  0
  8 34  1  0
 34  4  1  0
 32  7  1  0
 29 11  1  0
 29 15  1  0
 23 18  2  0
  1 35  1  0
  1 36  1  0
  1 37  1  0
  5 38  1  0
  5 39  1  0
  6 40  1  0
  6 41  1  0
  9 42  1  0
 12 43  1  0
 12 44  1  0
 13 45  1  0
 13 46  1  0
 14 47  1  0
 14 48  1  0
 16 49  1  0
 19 50  1  0
 22 51  1  0
 22 52  1  0
 22 53  1  0
 23 54  1  0
 25 55  1  0
 28 56  1  0
 33 57  1  0
 33 58  1  0
 33 59  1  0
 34 60  1  0
 34 61  1  0
M  END
$$$$
