@<TRIPOS>MOLECULE
*****
 81 85 0 0 0
SMALL
GASTEIGER

@<TRIPOS>ATOM
      1 O           9.2200   -0.6382    3.6528 O.2     1  UNL1       -0.2679
      2 C           8.6264   -0.5648    2.5465 C.ar    1  UNL1        0.2489
      3 N           9.2412   -0.5592    1.3329 N.ar    1  UNL1       -0.3259
      4 C           8.5585   -0.4791    0.1629 C.ar    1  UNL1        0.0237
      5 C           7.1802   -0.4023    0.2628 C.ar    1  UNL1       -0.0111
      6 C           6.5374   -0.4063    1.4731 C.ar    1  UNL1       -0.0503
      7 C           7.2456   -0.4880    2.6618 C.ar    1  UNL1        0.0031
      8 C           6.5350   -0.3206   -1.0850 C.3     1  UNL1        0.0345
      9 C           7.4258   -1.0554   -2.1033 C.3     1  UNL1       -0.0330
     10 C           8.7424   -0.3696   -2.2532 C.3     1  UNL1       -0.0460
     11 C           9.5166   -0.4969   -0.9652 C.3     1  UNL1       -0.0120
     12 N           6.4166    1.0279   -1.5315 N.3     1  UNL1       -0.3092
     13 C           5.5811    1.8764   -0.7213 C.3     1  UNL1       -0.0036
     14 C           4.1213    1.4963   -0.8062 C.3     1  UNL1       -0.0404
     15 C           3.3405    2.4464    0.0777 C.3     1  UNL1       -0.0519
     16 C           1.8733    2.1650    0.0649 C.3     1  UNL1       -0.0530
     17 C           1.4932    0.7909    0.5417 C.3     1  UNL1       -0.0531
     18 C          -0.0158    0.5842    0.4914 C.3     1  UNL1       -0.0531
     19 C          -0.3891   -0.7876    0.9687 C.3     1  UNL1       -0.0530
     20 C          -1.8745   -1.0459    0.9382 C.3     1  UNL1       -0.0516
     21 C          -2.4846   -0.9364   -0.4269 C.3     1  UNL1       -0.0375
     22 C          -3.9823   -1.2023   -0.4324 C.3     1  UNL1        0.0091
     23 N          -4.7216   -0.2863    0.4000 N.pl3   1  UNL1       -0.3431
     24 C          -6.1038   -0.5425    0.3658 C.ar    1  UNL1        0.0413
     25 C          -6.8046    0.1359   -0.6210 C.ar    1  UNL1       -0.0047
     26 C          -6.1928    1.0784   -1.6015 C.3     1  UNL1       -0.0242
     27 C          -6.9781    2.3675   -1.4950 C.3     1  UNL1       -0.0486
     28 C          -8.3957    2.1862   -1.9477 C.3     1  UNL1       -0.0473
     29 C          -8.8613    0.7490   -1.8687 C.3     1  UNL1       -0.0101
     30 C          -8.1756   -0.0066   -0.7879 C.ar    1  UNL1        0.0469
     31 N          -8.8553   -0.8306    0.0343 N.ar    1  UNL1       -0.2512
     32 C          -8.1973   -1.5080    1.0101 C.ar    1  UNL1        0.0731
     33 C          -8.8291   -2.3595    1.8786 C.ar    1  UNL1       -0.0357
     34 C          -8.1561   -3.0485    2.8739 C.ar    1  UNL1       -0.0597
     35 C          -6.7924   -2.8761    3.0024 C.ar    1  UNL1       -0.0610
     36 C          -6.1088   -2.0363    2.1606 C.ar    1  UNL1       -0.0508
     37 C          -6.8343   -1.3790    1.1907 C.ar    1  UNL1        0.0215
     38 H          10.2845   -0.6242    1.4726 H       1  UNL1        0.1686
     39 H           5.4610   -0.3429    1.4110 H       1  UNL1        0.0623
     40 H           6.7086   -0.4882    3.5990 H       1  UNL1        0.0672
     41 H           5.6025   -0.8989   -1.0279 H       1  UNL1        0.0510
     42 H           7.6169   -2.1016   -1.7909 H       1  UNL1        0.0284
     43 H           6.9119   -1.0932   -3.0835 H       1  UNL1        0.0284
     44 H           8.6412    0.6967   -2.5581 H       1  UNL1        0.0269
     45 H           9.3039   -0.9098   -3.0414 H       1  UNL1        0.0269
     46 H          10.0213   -1.5068   -0.9615 H       1  UNL1        0.0328
     47 H          10.2709    0.3147   -0.8551 H       1  UNL1        0.0328
     48 H           6.3240    1.1520   -2.5433 H       1  UNL1        0.1225
     49 H           5.6679    2.9034   -1.1338 H       1  UNL1        0.0424
     50 H           5.9602    1.9031    0.3088 H       1  UNL1        0.0424
     51 H           3.9037    0.4788   -0.4320 H       1  UNL1        0.0277
     52 H           3.7794    1.6267   -1.8452 H       1  UNL1        0.0277
     53 H           3.6697    2.3161    1.1527 H       1  UNL1        0.0266
     54 H           3.5410    3.4941   -0.1623 H       1  UNL1        0.0266
     55 H           1.3297    2.8993    0.6682 H       1  UNL1        0.0265
     56 H           1.5395    2.2912   -1.0012 H       1  UNL1        0.0265
     57 H           1.7964    0.6902    1.6064 H       1  UNL1        0.0265
     58 H           1.9563   -0.0252   -0.0470 H       1  UNL1        0.0265
     59 H          -0.4715    1.3529    1.1623 H       1  UNL1        0.0265
     60 H          -0.4256    0.7834   -0.5018 H       1  UNL1        0.0265
     61 H           0.0604   -1.5437    0.2640 H       1  UNL1        0.0265
     62 H          -0.0336   -1.0159    1.9812 H       1  UNL1        0.0265
     63 H          -1.9931   -2.1148    1.2842 H       1  UNL1        0.0266
     64 H          -2.4433   -0.4462    1.6774 H       1  UNL1        0.0266
     65 H          -2.0498   -1.7937   -1.0232 H       1  UNL1        0.0280
     66 H          -2.2318   -0.0089   -0.9530 H       1  UNL1        0.0280
     67 H          -4.2997   -0.9819   -1.4939 H       1  UNL1        0.0461
     68 H          -4.1197   -2.2644   -0.1649 H       1  UNL1        0.0461
     69 H          -4.2619    0.4720    0.9558 H       1  UNL1        0.1461
     70 H          -6.3206    0.6405   -2.6113 H       1  UNL1        0.0314
     71 H          -5.1374    1.2914   -1.4074 H       1  UNL1        0.0314
     72 H          -6.5001    3.1906   -2.0376 H       1  UNL1        0.0269
     73 H          -6.9772    2.6240   -0.4032 H       1  UNL1        0.0269
     74 H          -8.4665    2.6005   -2.9737 H       1  UNL1        0.0269
     75 H          -9.0497    2.7887   -1.2551 H       1  UNL1        0.0269
     76 H          -8.6050    0.2523   -2.8363 H       1  UNL1        0.0328
     77 H          -9.9467    0.6665   -1.6973 H       1  UNL1        0.0328
     78 H          -9.9128   -2.5140    1.7970 H       1  UNL1        0.0639
     79 H          -8.6948   -3.7220    3.5485 H       1  UNL1        0.0618
     80 H          -6.2758   -3.4135    3.7807 H       1  UNL1        0.0618
     81 H          -5.0366   -1.8973    2.2576 H       1  UNL1        0.0625
@<TRIPOS>BOND
     1     1     2    2
     2     2     3   ar
     3     3     4   ar
     4     4     5   ar
     5     5     6   ar
     6     6     7   ar
     7     5     8    1
     8     8     9    1
     9     9    10    1
    10    10    11    1
    11     8    12    1
    12    12    13    1
    13    13    14    1
    14    14    15    1
    15    15    16    1
    16    16    17    1
    17    17    18    1
    18    18    19    1
    19    19    20    1
    20    20    21    1
    21    21    22    1
    22    22    23    1
    23    23    24    1
    24    24    25   ar
    25    25    26    1
    26    26    27    1
    27    27    28    1
    28    28    29    1
    29    29    30    1
    30    30    31   ar
    31    31    32   ar
    32    32    33   ar
    33    33    34   ar
    34    34    35   ar
    35    35    36   ar
    36    36    37   ar
    37     7     2   ar
    38    37    24   ar
    39    11     4    1
    40    30    25   ar
    41    37    32   ar
    42     3    38    1
    43     6    39    1
    44     7    40    1
    45     8    41    1
    46     9    42    1
    47     9    43    1
    48    10    44    1
    49    10    45    1
    50    11    46    1
    51    11    47    1
    52    12    48    1
    53    13    49    1
    54    13    50    1
    55    14    51    1
    56    14    52    1
    57    15    53    1
    58    15    54    1
    59    16    55    1
    60    16    56    1
    61    17    57    1
    62    17    58    1
    63    18    59    1
    64    18    60    1
    65    19    61    1
    66    19    62    1
    67    20    63    1
    68    20    64    1
    69    21    65    1
    70    21    66    1
    71    22    67    1
    72    22    68    1
    73    23    69    1
    74    26    70    1
    75    26    71    1
    76    27    72    1
    77    27    73    1
    78    28    74    1
    79    28    75    1
    80    29    76    1
    81    29    77    1
    82    33    78    1
    83    34    79    1
    84    35    80    1
    85    36    81    1
