@<TRIPOS>MOLECULE
*****
 36 38 0 0 0
SMALL
GASTEIGER

@<TRIPOS>ATOM
      1 C          -1.4822    3.2089    0.7644 C.3     1  UNL1       -0.0062
      2 C          -2.0523    1.8665    0.5257 C.ar    1  UNL1        0.1079
      3 N          -3.1770    1.7290   -0.2416 N.ar    1  UNL1       -0.2326
      4 C          -3.4873    0.4265   -0.2700 C.ar    1  UNL1        0.0893
      5 C          -4.5358   -0.2640   -0.8930 C.ar    1  UNL1       -0.0342
      6 C          -4.5858   -1.6250   -0.7201 C.ar    1  UNL1       -0.0596
      7 C          -3.6378   -2.2712    0.0376 C.ar    1  UNL1       -0.0597
      8 C          -2.5988   -1.5802    0.6539 C.ar    1  UNL1       -0.0360
      9 C          -2.5372   -0.2127    0.4868 C.ar    1  UNL1        0.0691
     10 N          -1.6347    0.6942    0.9854 N.ar    1  UNL1       -0.3232
     11 C          -0.5186    0.3323    1.8259 C.3     1  UNL1        0.0527
     12 C           0.7181   -0.0065    1.1473 C.ar    1  UNL1        0.0075
     13 C           1.0538   -1.3403    0.8951 C.ar    1  UNL1       -0.0534
     14 C           2.2235   -1.6353    0.2204 C.ar    1  UNL1       -0.0491
     15 C           3.1062   -0.6876   -0.2331 C.ar    1  UNL1        0.0414
     16 C           4.3164   -1.0775   -0.9342 C.2     1  UNL1        0.2666
     17 O           4.5823   -2.3068   -1.0975 O.2     1  UNL1       -0.2681
     18 N           5.2394   -0.1453   -1.4588 N.am    1  UNL1       -0.1935
     19 O           6.3741   -0.5696   -2.1151 O.3     1  UNL1       -0.2949
     20 C           2.7768    0.6251    0.0163 C.ar    1  UNL1       -0.0139
     21 C           1.5937    0.9387    0.7000 C.ar    1  UNL1        0.1290
     22 F           1.3904    2.2788    0.9300 F       1  UNL1       -0.2051
     23 H          -1.0045    3.2600    1.7613 H       1  UNL1        0.0307
     24 H          -2.2973    3.9926    0.8083 H       1  UNL1        0.0307
     25 H          -0.7816    3.5089   -0.0499 H       1  UNL1        0.0307
     26 H          -5.2612    0.2579   -1.4774 H       1  UNL1        0.0639
     27 H          -5.3965   -2.2007   -1.1966 H       1  UNL1        0.0618
     28 H          -3.6400   -3.3557    0.2033 H       1  UNL1        0.0618
     29 H          -1.8707   -2.0973    1.2521 H       1  UNL1        0.0639
     30 H          -0.3715    1.1403    2.5842 H       1  UNL1        0.0543
     31 H          -0.7910   -0.5675    2.4643 H       1  UNL1        0.0543
     32 H           0.4319   -2.1724    1.2162 H       1  UNL1        0.0622
     33 H           2.4714   -2.6863    0.0284 H       1  UNL1        0.0625
     34 H           5.0477    0.8775   -1.3402 H       1  UNL1        0.1825
     35 H           6.9346    0.2416   -2.2245 H       1  UNL1        0.2414
     36 H           3.4013    1.4230   -0.2964 H       1  UNL1        0.0654
@<TRIPOS>BOND
     1     1     2    1
     2     2     3   ar
     3     3     4   ar
     4     4     5   ar
     5     5     6   ar
     6     6     7   ar
     7     7     8   ar
     8     8     9   ar
     9     9    10   ar
    10    10    11    1
    11    11    12    1
    12    12    13   ar
    13    13    14   ar
    14    14    15   ar
    15    15    16    1
    16    16    17    2
    17    16    18   am
    18    18    19    1
    19    15    20   ar
    20    20    21   ar
    21    21    22    1
    22    10     2   ar
    23    21    12   ar
    24     9     4   ar
    25     1    23    1
    26     1    24    1
    27     1    25    1
    28     5    26    1
    29     6    27    1
    30     7    28    1
    31     8    29    1
    32    11    30    1
    33    11    31    1
    34    13    32    1
    35    14    33    1
    36    18    34    1
    37    19    35    1
    38    20    36    1
