@<TRIPOS>MOLECULE
*****
 21 21 0 0 0
SMALL
GASTEIGER

@<TRIPOS>ATOM
      1 C           2.0615   -1.0394   -0.0198 C.3     1  UNL1       -0.0643
      2 C           0.8205   -0.5685   -0.6997 C.3     1  UNL1       -0.0417
      3 C          -0.0521    0.3177    0.1127 C.3     1  UNL1        0.0525
      4 C           0.6490    1.5851    0.5479 C.3     1  UNL1       -0.0508
      5 C          -1.2153    0.7475   -0.7899 C.3     1  UNL1        0.0380
      6 C          -2.2356   -0.3212   -0.6323 C.2     1  UNL1        0.2202
      7 O          -3.1741   -0.6894   -1.3510 O.2     1  UNL1       -0.2754
      8 N          -1.9524   -0.9522    0.6271 N.am    1  UNL1       -0.2559
      9 C          -0.7719   -0.3574    1.2072 C.2     1  UNL1        0.2256
     10 O          -0.2916   -0.3156    2.3710 O.2     1  UNL1       -0.2748
     11 H           1.8732   -1.5982    0.9135 H       1  UNL1        0.0230
     12 H           2.8298   -0.2481    0.1061 H       1  UNL1        0.0230
     13 H           2.5208   -1.7995   -0.7094 H       1  UNL1        0.0230
     14 H           0.2278   -1.4565   -1.0022 H       1  UNL1        0.0273
     15 H           1.1387    0.0270   -1.5916 H       1  UNL1        0.0273
     16 H           1.6101    1.7495   -0.0071 H       1  UNL1        0.0240
     17 H           0.0242    2.4901    0.3995 H       1  UNL1        0.0240
     18 H           0.9273    1.5580    1.6258 H       1  UNL1        0.0240
     19 H          -0.8878    0.9051   -1.8313 H       1  UNL1        0.0368
     20 H          -1.6729    1.6927   -0.4424 H       1  UNL1        0.0368
     21 H          -2.4295   -1.7266    1.1658 H       1  UNL1        0.1575
@<TRIPOS>BOND
     1     1     2    1
     2     2     3    1
     3     3     4    1
     4     3     5    1
     5     5     6    1
     6     6     7    2
     7     6     8   am
     8     8     9   am
     9     9    10    2
    10     9     3    1
    11     1    11    1
    12     1    12    1
    13     1    13    1
    14     2    14    1
    15     2    15    1
    16     4    16    1
    17     4    17    1
    18     4    18    1
    19     5    19    1
    20     5    20    1
    21     8    21    1
