
     RDKit          3D

 37 39  0  0  0  0  0  0  0  0999 V2000
   -0.8002   -0.0855    0.5793 C   0  0  2  0  0  0  0  0  0  0  0  0
    0.2417    0.6119   -0.3176 C   0  0  0  0  0  0  0  0  0  0  0  0
    1.4028   -0.2839    0.0611 C   0  0  0  0  0  0  0  0  0  0  0  0
    0.9028   -1.4132    0.3674 N   0  0  0  0  0  0  0  0  0  0  0  0
   -0.5096   -1.4397    0.2512 N   0  0  0  0  0  0  0  0  0  0  0  0
   -1.1356   -2.6673   -0.1189 C   0  0  0  0  0  0  0  0  0  0  0  0
   -0.4306   -3.9449   -0.3835 C   0  0  0  0  0  0  0  0  0  0  0  0
   -2.3499   -2.9351   -0.2951 O   0  0  0  0  0  0  0  0  0  0  0  0
    2.8027    0.1228    0.0572 C   0  0  0  0  0  0  0  0  0  0  0  0
    3.6483   -0.2712    1.0512 C   0  0  0  0  0  0  0  0  0  0  0  0
    3.0591   -1.2701    2.3421 Cl  0  0  0  0  0  0  0  0  0  0  0  0
    4.9605    0.1652    0.9616 C   0  0  0  0  0  0  0  0  0  0  0  0
    5.4562    0.9609   -0.0547 C   0  0  0  0  0  0  0  0  0  0  0  0
    4.5535    1.3263   -1.0298 C   0  0  0  0  0  0  0  0  0  0  0  0
    3.2223    0.9115   -0.9826 C   0  0  0  0  0  0  0  0  0  0  0  0
   -2.1469    0.4015    0.3518 C   0  0  0  0  0  0  0  0  0  0  0  0
   -3.3395   -0.1268    0.7571 C   0  0  0  0  0  0  0  0  0  0  0  0
   -4.5774    0.4124    0.4746 C   0  0  0  0  0  0  0  0  0  0  0  0
   -4.6560    1.5698   -0.2688 C   0  0  0  0  0  0  0  0  0  0  0  0
   -3.4714    2.1396   -0.6999 C   0  0  0  0  0  0  0  0  0  0  0  0
   -3.6158    3.3040   -1.4442 O   0  0  0  0  0  0  0  0  0  0  0  0
   -2.2609    1.5779   -0.4018 C   0  0  0  0  0  0  0  0  0  0  0  0
   -0.4394    0.1820    1.6235 H   0  0  0  0  0  0  0  0  0  0  0  0
    0.0088    0.4824   -1.3915 H   0  0  0  0  0  0  0  0  0  0  0  0
    0.4098    1.6467   -0.0225 H   0  0  0  0  0  0  0  0  0  0  0  0
   -0.8065   -4.7778    0.2398 H   0  0  0  0  0  0  0  0  0  0  0  0
   -0.5857   -4.1938   -1.4712 H   0  0  0  0  0  0  0  0  0  0  0  0
    0.6691   -3.8453   -0.2524 H   0  0  0  0  0  0  0  0  0  0  0  0
    5.6522   -0.1378    1.7447 H   0  0  0  0  0  0  0  0  0  0  0  0
    6.4773    1.2837   -0.0983 H   0  0  0  0  0  0  0  0  0  0  0  0
    4.8913    1.9536   -1.8550 H   0  0  0  0  0  0  0  0  0  0  0  0
    2.5862    1.2473   -1.7916 H   0  0  0  0  0  0  0  0  0  0  0  0
   -3.2982   -1.0159    1.3417 H   0  0  0  0  0  0  0  0  0  0  0  0
   -5.4848   -0.0808    0.8415 H   0  0  0  0  0  0  0  0  0  0  0  0
   -5.6386    1.9583   -0.4676 H   0  0  0  0  0  0  0  0  0  0  0  0
   -3.9746    4.1033   -0.9374 H   0  0  0  0  0  0  0  0  0  0  0  0
   -1.4232    2.1283   -0.8019 H   0  0  0  0  0  0  0  0  0  0  0  0
  1  2  1  0
  2  3  1  0
  3  4  2  0
  4  5  1  0
  5  6  1  0
  6  7  1  0
  6  8  2  0
  3  9  1  0
  9 10  2  0
 10 11  1  0
 10 12  1  0
 12 13  2  0
 13 14  1  0
 14 15  2  0
  1 16  1  0
 16 17  2  0
 17 18  1  0
 18 19  2  0
 19 20  1  0
 20 21  1  0
 20 22  2  0
  5  1  1  0
 15  9  1  0
 22 16  1  0
  1 23  1  1
  2 24  1  0
  2 25  1  0
  7 26  1  0
  7 27  1  0
  7 28  1  0
 12 29  1  0
 13 30  1  0
 14 31  1  0
 15 32  1  0
 17 33  1  0
 18 34  1  0
 19 35  1  0
 21 36  1  0
 22 37  1  0
M  END
$$$$
