@<TRIPOS>MOLECULE
*****
 41 42 0 0 0
SMALL
GASTEIGER

@<TRIPOS>ATOM
      1 C          -2.8968   -1.9127   -1.7872 C.3     1  UNL1       -0.0428
      2 C          -2.2710   -1.7673   -0.4287 C.3     1  UNL1        0.0766
      3 C          -1.7367   -3.0865    0.0552 C.3     1  UNL1       -0.0428
      4 C          -3.2659   -1.2634    0.5363 C.1     1  UNL1        0.0734
      5 N          -4.0621   -0.8676    1.2855 N.1     1  UNL1       -0.1957
      6 C          -1.1553   -0.7837   -0.4189 C.ar    1  UNL1       -0.0274
      7 C          -1.4118    0.5463   -0.1520 C.ar    1  UNL1       -0.0524
      8 C          -0.3137    1.3866   -0.1644 C.ar    1  UNL1       -0.0274
      9 C           0.9789    0.9578   -0.4244 C.ar    1  UNL1       -0.0521
     10 C           1.2027   -0.3779   -0.6876 C.ar    1  UNL1       -0.0255
     11 C           2.5724   -0.8410   -0.9646 C.3     1  UNL1        0.0682
     12 N           3.2926   -1.2426    0.2007 N.ar    1  UNL1       -0.2477
     13 C           4.0369   -0.3722    0.9069 C.ar    1  UNL1        0.1146
     14 N           4.6042   -1.0185    1.9528 N.ar    1  UNL1       -0.2228
     15 C           4.1952   -2.3111    1.8803 C.ar    1  UNL1        0.1380
     16 N           3.3916   -2.4191    0.7955 N.ar    1  UNL1       -0.1581
     17 C           0.1387   -1.2424   -0.6842 C.ar    1  UNL1       -0.0521
     18 C          -0.4607    2.8432    0.1087 C.3     1  UNL1        0.0766
     19 C          -1.9097    3.2087    0.3806 C.3     1  UNL1       -0.0428
     20 C           0.3476    3.1581    1.3468 C.3     1  UNL1       -0.0428
     21 C          -0.0150    3.6261   -1.0422 C.1     1  UNL1        0.0734
     22 N           0.3312    4.2410   -1.9385 N.1     1  UNL1       -0.1957
     23 H          -2.4273   -2.7285   -2.3508 H       1  UNL1        0.0248
     24 H          -3.9634   -2.1726   -1.6375 H       1  UNL1        0.0248
     25 H          -2.8522   -0.9385   -2.2902 H       1  UNL1        0.0248
     26 H          -1.6163   -3.7472   -0.8367 H       1  UNL1        0.0248
     27 H          -2.5246   -3.5421    0.6903 H       1  UNL1        0.0248
     28 H          -0.8324   -2.9877    0.6665 H       1  UNL1        0.0248
     29 H          -2.4078    0.9237    0.0565 H       1  UNL1        0.0624
     30 H           1.8155    1.6444   -0.4259 H       1  UNL1        0.0624
     31 H           2.4622   -1.6864   -1.7052 H       1  UNL1        0.0559
     32 H           3.0919   -0.0501   -1.5545 H       1  UNL1        0.0559
     33 H           4.2388    0.6842    0.7806 H       1  UNL1        0.1044
     34 H           4.3306   -3.2333    2.4276 H       1  UNL1        0.1065
     35 H           0.3038   -2.3102   -0.8927 H       1  UNL1        0.0624
     36 H          -1.8894    4.2679    0.7624 H       1  UNL1        0.0248
     37 H          -2.3412    2.6135    1.2090 H       1  UNL1        0.0248
     38 H          -2.5215    3.1520   -0.5360 H       1  UNL1        0.0248
     39 H          -0.0636    2.5257    2.1569 H       1  UNL1        0.0248
     40 H           1.4058    2.9029    1.1387 H       1  UNL1        0.0248
     41 H           0.1977    4.2203    1.5844 H       1  UNL1        0.0248
@<TRIPOS>BOND
     1     1     2    1
     2     2     3    1
     3     2     4    1
     4     4     5    3
     5     2     6    1
     6     6     7   ar
     7     7     8   ar
     8     8     9   ar
     9     9    10   ar
    10    10    11    1
    11    11    12    1
    12    12    13   ar
    13    13    14   ar
    14    14    15   ar
    15    15    16   ar
    16    10    17   ar
    17     8    18    1
    18    18    19    1
    19    18    20    1
    20    18    21    1
    21    21    22    3
    22    17     6   ar
    23    16    12   ar
    24     1    23    1
    25     1    24    1
    26     1    25    1
    27     3    26    1
    28     3    27    1
    29     3    28    1
    30     7    29    1
    31     9    30    1
    32    11    31    1
    33    11    32    1
    34    13    33    1
    35    15    34    1
    36    17    35    1
    37    19    36    1
    38    19    37    1
    39    19    38    1
    40    20    39    1
    41    20    40    1
    42    20    41    1
