
     RDKit          3D

 37 40  0  0  0  0  0  0  0  0999 V2000
    6.3030    0.4690   -0.1779 C   0  0  0  0  0  0  0  0  0  0  0  0
    5.5585   -0.3486    0.6871 O   0  0  0  0  0  0  0  0  0  0  0  0
    4.1737   -0.4577    0.5426 C   0  0  0  0  0  0  0  0  0  0  0  0
    3.4298   -1.2571    1.3851 C   0  0  0  0  0  0  0  0  0  0  0  0
    2.0634   -1.3421    1.2144 C   0  0  0  0  0  0  0  0  0  0  0  0
    1.4093   -0.6381    0.2076 C   0  0  0  0  0  0  0  0  0  0  0  0
    0.0687   -0.7443    0.0684 C   0  0  0  0  0  0  0  0  0  0  0  0
   -0.6056   -0.0624   -0.9142 C   0  0  0  0  0  0  0  0  0  0  0  0
   -2.0497   -0.1586   -1.0659 C   0  0  0  0  0  0  0  0  0  0  0  0
   -2.5435   -0.5821   -2.3033 C   0  0  0  0  0  0  0  0  0  0  0  0
   -3.8798   -0.7150   -2.4576 N   0  0  0  0  0  0  0  0  0  0  0  0
   -4.7400   -0.4512   -1.4562 C   0  0  0  0  0  0  0  0  0  0  0  0
   -4.3090   -0.0302   -0.2170 C   0  0  0  0  0  0  0  0  0  0  0  0
   -5.2257    0.2350    0.7683 C   0  0  0  0  0  0  0  0  0  0  0  0
   -4.7518    0.6634    1.9861 C   0  0  0  0  0  0  0  0  0  0  0  0
   -3.3889    0.8234    2.2127 C   0  0  0  0  0  0  0  0  0  0  0  0
   -2.5002    0.5382    1.1723 C   0  0  0  0  0  0  0  0  0  0  0  0
   -2.9279    0.1110   -0.0467 C   0  0  0  0  0  0  0  0  0  0  0  0
    0.1569    0.7431   -1.7610 C   0  0  0  0  0  0  0  0  0  0  0  0
    1.5133    0.8621   -1.6349 C   0  0  0  0  0  0  0  0  0  0  0  0
    2.1504    0.1590   -0.6327 C   0  0  0  0  0  0  0  0  0  0  0  0
    3.5085    0.2327   -0.4496 C   0  0  0  0  0  0  0  0  0  0  0  0
    7.3755    0.4060    0.1406 H   0  0  0  0  0  0  0  0  0  0  0  0
    5.9513    1.5198   -0.1486 H   0  0  0  0  0  0  0  0  0  0  0  0
    6.1878    0.0603   -1.2045 H   0  0  0  0  0  0  0  0  0  0  0  0
    3.9472   -1.8107    2.1774 H   0  0  0  0  0  0  0  0  0  0  0  0
    1.4973   -1.9644    1.8729 H   0  0  0  0  0  0  0  0  0  0  0  0
   -0.4682   -1.3849    0.7392 H   0  0  0  0  0  0  0  0  0  0  0  0
   -1.8425   -0.7918   -3.1033 H   0  0  0  0  0  0  0  0  0  0  0  0
   -5.7942   -0.5799   -1.6514 H   0  0  0  0  0  0  0  0  0  0  0  0
   -6.2863    0.1288    0.6471 H   0  0  0  0  0  0  0  0  0  0  0  0
   -5.4164    0.8984    2.8318 H   0  0  0  0  0  0  0  0  0  0  0  0
   -2.9863    1.1552    3.1477 H   0  0  0  0  0  0  0  0  0  0  0  0
   -1.4282    0.6712    1.3268 H   0  0  0  0  0  0  0  0  0  0  0  0
   -0.3523    1.2991   -2.5546 H   0  0  0  0  0  0  0  0  0  0  0  0
    2.1397    1.4778   -2.2732 H   0  0  0  0  0  0  0  0  0  0  0  0
    4.0621    0.8655   -1.1236 H   0  0  0  0  0  0  0  0  0  0  0  0
  1  2  1  0
  2  3  1  0
  3  4  2  0
  4  5  1  0
  5  6  2  0
  6  7  1  0
  7  8  2  0
  8  9  1  0
  9 10  2  0
 10 11  1  0
 11 12  2  0
 12 13  1  0
 13 14  2  0
 14 15  1  0
 15 16  2  0
 16 17  1  0
 17 18  2  0
  8 19  1  0
 19 20  2  0
 20 21  1  0
 21 22  2  0
 22  3  1  0
 21  6  1  0
 18  9  1  0
 18 13  1  0
  1 23  1  0
  1 24  1  0
  1 25  1  0
  4 26  1  0
  5 27  1  0
  7 28  1  0
 10 29  1  0
 12 30  1  0
 14 31  1  0
 15 32  1  0
 16 33  1  0
 17 34  1  0
 19 35  1  0
 20 36  1  0
 22 37  1  0
M  END
$$$$
