@<TRIPOS>MOLECULE
*****
 37 40 0 0 0
SMALL
GASTEIGER

@<TRIPOS>ATOM
      1 C           6.3030    0.4690   -0.1779 C.3     1  UNL1        0.0788
      2 O           5.5585   -0.3486    0.6871 O.3     1  UNL1       -0.4951
      3 C           4.1737   -0.4577    0.5426 C.ar    1  UNL1        0.1207
      4 C           3.4298   -1.2571    1.3851 C.ar    1  UNL1       -0.0194
      5 C           2.0634   -1.3421    1.2144 C.ar    1  UNL1       -0.0506
      6 C           1.4093   -0.6381    0.2076 C.ar    1  UNL1       -0.0171
      7 C           0.0687   -0.7443    0.0684 C.ar    1  UNL1       -0.0462
      8 C          -0.6056   -0.0624   -0.9142 C.ar    1  UNL1       -0.0153
      9 C          -2.0497   -0.1586   -1.0659 C.ar    1  UNL1        0.0079
     10 C          -2.5435   -0.5821   -2.3033 C.ar    1  UNL1        0.0359
     11 N          -3.8798   -0.7150   -2.4576 N.ar    1  UNL1       -0.2620
     12 C          -4.7400   -0.4512   -1.4562 C.ar    1  UNL1        0.0353
     13 C          -4.3090   -0.0302   -0.2170 C.ar    1  UNL1        0.0008
     14 C          -5.2257    0.2350    0.7683 C.ar    1  UNL1       -0.0526
     15 C          -4.7518    0.6634    1.9861 C.ar    1  UNL1       -0.0611
     16 C          -3.3889    0.8234    2.2127 C.ar    1  UNL1       -0.0611
     17 C          -2.5002    0.5382    1.1723 C.ar    1  UNL1       -0.0534
     18 C          -2.9279    0.1110   -0.0467 C.ar    1  UNL1       -0.0073
     19 C           0.1569    0.7431   -1.7610 C.ar    1  UNL1       -0.0534
     20 C           1.5133    0.8621   -1.6349 C.ar    1  UNL1       -0.0533
     21 C           2.1504    0.1590   -0.6327 C.ar    1  UNL1       -0.0144
     22 C           3.5085    0.2327   -0.4496 C.ar    1  UNL1       -0.0122
     23 H           7.3755    0.4060    0.1406 H       1  UNL1        0.0660
     24 H           5.9513    1.5198   -0.1486 H       1  UNL1        0.0660
     25 H           6.1878    0.0603   -1.2045 H       1  UNL1        0.0660
     26 H           3.9472   -1.8107    2.1774 H       1  UNL1        0.0654
     27 H           1.4973   -1.9644    1.8729 H       1  UNL1        0.0625
     28 H          -0.4682   -1.3849    0.7392 H       1  UNL1        0.0630
     29 H          -1.8425   -0.7918   -3.1033 H       1  UNL1        0.0836
     30 H          -5.7942   -0.5799   -1.6514 H       1  UNL1        0.0836
     31 H          -6.2863    0.1288    0.6471 H       1  UNL1        0.0624
     32 H          -5.4164    0.8984    2.8318 H       1  UNL1        0.0618
     33 H          -2.9863    1.1552    3.1477 H       1  UNL1        0.0618
     34 H          -1.4282    0.6712    1.3268 H       1  UNL1        0.0624
     35 H          -0.3523    1.2991   -2.5546 H       1  UNL1        0.0624
     36 H           2.1397    1.4778   -2.2732 H       1  UNL1        0.0624
     37 H           4.0621    0.8655   -1.1236 H       1  UNL1        0.0660
@<TRIPOS>BOND
     1     1     2    1
     2     2     3    1
     3     3     4   ar
     4     4     5   ar
     5     5     6   ar
     6     6     7   ar
     7     7     8   ar
     8     8     9    1
     9     9    10   ar
    10    10    11   ar
    11    11    12   ar
    12    12    13   ar
    13    13    14   ar
    14    14    15   ar
    15    15    16   ar
    16    16    17   ar
    17    17    18   ar
    18     8    19   ar
    19    19    20   ar
    20    20    21   ar
    21    21    22   ar
    22    22     3   ar
    23    21     6   ar
    24    18     9   ar
    25    18    13   ar
    26     1    23    1
    27     1    24    1
    28     1    25    1
    29     4    26    1
    30     5    27    1
    31     7    28    1
    32    10    29    1
    33    12    30    1
    34    14    31    1
    35    15    32    1
    36    16    33    1
    37    17    34    1
    38    19    35    1
    39    20    36    1
    40    22    37    1
