@<TRIPOS>MOLECULE
*****
 42 44 0 0 0
SMALL
GASTEIGER

@<TRIPOS>ATOM
      1 C          -0.1308   -1.6322   -1.2222 C.3     1  UNL1       -0.0220
      2 C          -0.2314   -0.1544   -1.0567 C.ar    1  UNL1        0.0477
      3 C           0.8236    0.6468   -0.6777 C.ar    1  UNL1        0.1463
      4 C           2.1991    0.2851   -0.3636 C.2     1  UNL1        0.2694
      5 O           2.5700   -0.9052   -0.4168 O.2     1  UNL1       -0.2681
      6 N           3.1712    1.2512    0.0126 N.am    1  UNL1       -0.2636
      7 C           4.5125    0.8296    0.3102 C.ar    1  UNL1        0.1471
      8 C           5.5649    1.6358    0.6873 C.ar    1  UNL1       -0.0021
      9 C           6.6415    0.7958    0.8628 C.ar    1  UNL1        0.0270
     10 N           6.2708   -0.4599    0.6072 N.ar    1  UNL1       -0.2727
     11 C           7.1166   -1.6610    0.6767 C.3     1  UNL1        0.0302
     12 N           4.9907   -0.4114    0.2786 N.ar    1  UNL1       -0.1562
     13 N           0.3039    1.8990   -0.6526 N.ar    1  UNL1       -0.2308
     14 C          -0.9990    1.8696   -0.9971 C.ar    1  UNL1        0.0973
     15 N          -1.3333    0.5917   -1.2488 N.ar    1  UNL1       -0.3292
     16 C          -2.6307    0.1388   -1.6444 C.3     1  UNL1        0.0494
     17 C          -3.5243   -0.2145   -0.5397 C.ar    1  UNL1       -0.0272
     18 C          -3.5547   -1.4981   -0.0512 C.ar    1  UNL1       -0.0568
     19 C          -4.3876   -1.8714    0.9944 C.ar    1  UNL1       -0.0609
     20 C          -5.2103   -0.9160    1.5577 C.ar    1  UNL1       -0.0501
     21 C          -5.2063    0.3727    1.0962 C.ar    1  UNL1        0.0551
     22 C          -6.1114    1.3575    1.7392 C.3     1  UNL1        0.4174
     23 F          -7.2845    1.3827    0.9759 F       1  UNL1       -0.1659
     24 F          -5.5818    2.6324    1.7191 F       1  UNL1       -0.1659
     25 F          -6.4515    0.9513    2.9964 F       1  UNL1       -0.1659
     26 C          -4.3542    0.7160    0.0402 C.ar    1  UNL1       -0.0452
     27 H           0.8581   -1.8823   -1.6629 H       1  UNL1        0.0293
     28 H          -0.9671   -2.0285   -1.8417 H       1  UNL1        0.0293
     29 H          -0.1856   -2.1585   -0.2474 H       1  UNL1        0.0293
     30 H           2.8988    2.2368    0.0658 H       1  UNL1        0.1566
     31 H           5.4889    2.7099    0.8031 H       1  UNL1        0.0668
     32 H           7.6295    1.0956    1.1591 H       1  UNL1        0.0827
     33 H           6.4991   -2.5265    0.3368 H       1  UNL1        0.0473
     34 H           7.4104   -1.8557    1.7164 H       1  UNL1        0.0473
     35 H           7.9621   -1.5083   -0.0065 H       1  UNL1        0.0473
     36 H          -1.6539    2.7359   -1.0570 H       1  UNL1        0.1029
     37 H          -2.4895   -0.7153   -2.3702 H       1  UNL1        0.0542
     38 H          -3.1119    0.9421   -2.2762 H       1  UNL1        0.0542
     39 H          -2.9200   -2.2665   -0.4749 H       1  UNL1        0.0621
     40 H          -4.3757   -2.8928    1.3436 H       1  UNL1        0.0618
     41 H          -5.8432   -1.2412    2.3669 H       1  UNL1        0.0623
     42 H          -4.3732    1.7234   -0.2964 H       1  UNL1        0.0626
@<TRIPOS>BOND
     1     1     2    1
     2     2     3   ar
     3     3     4    1
     4     4     5    2
     5     4     6   am
     6     6     7    1
     7     7     8   ar
     8     8     9   ar
     9     9    10   ar
    10    10    11    1
    11    10    12   ar
    12     3    13   ar
    13    13    14   ar
    14    14    15   ar
    15    15    16    1
    16    16    17    1
    17    17    18   ar
    18    18    19   ar
    19    19    20   ar
    20    20    21   ar
    21    21    22    1
    22    22    23    1
    23    22    24    1
    24    22    25    1
    25    21    26   ar
    26    15     2   ar
    27    26    17   ar
    28    12     7   ar
    29     1    27    1
    30     1    28    1
    31     1    29    1
    32     6    30    1
    33     8    31    1
    34     9    32    1
    35    11    33    1
    36    11    34    1
    37    11    35    1
    38    14    36    1
    39    16    37    1
    40    16    38    1
    41    18    39    1
    42    19    40    1
    43    20    41    1
    44    26    42    1
