
     RDKit          3D

 44 47  0  0  0  0  0  0  0  0999 V2000
   -5.4084   -1.6058    1.3569 C   0  0  0  0  0  0  0  0  0  0  0  0
   -5.2816   -0.3229    0.6331 C   0  0  0  0  0  0  0  0  0  0  0  0
   -6.3398    0.5148    0.3632 N   0  0  0  0  0  0  0  0  0  0  0  0
   -5.9249    1.5572   -0.2815 N   0  0  0  0  0  0  0  0  0  0  0  0
   -4.5805    1.4446   -0.4596 C   0  0  0  0  0  0  0  0  0  0  0  0
   -4.2066    0.2777    0.1124 N   0  0  0  0  0  0  0  0  0  0  0  0
   -2.8044   -0.0715    0.0482 C   0  0  0  0  0  0  0  0  0  0  0  0
   -2.4165   -1.2525    0.6348 C   0  0  0  0  0  0  0  0  0  0  0  0
   -1.0934   -1.6268    0.6069 C   0  0  0  0  0  0  0  0  0  0  0  0
   -0.1468   -0.8530    0.0087 C   0  0  0  0  0  0  0  0  0  0  0  0
    1.2640   -1.2784   -0.0055 C   0  0  0  0  0  0  0  0  0  0  0  0
    1.6273   -2.5976   -0.0457 C   0  0  0  0  0  0  0  0  0  0  0  0
    2.9424   -2.9675   -0.0556 N   0  0  0  0  0  0  0  0  0  0  0  0
    3.8796   -2.0043   -0.0250 C   0  0  0  0  0  0  0  0  0  0  0  0
    3.5892   -0.6502    0.0163 C   0  0  0  0  0  0  0  0  0  0  0  0
    4.6797    0.3047    0.0471 C   0  0  2  0  0  0  0  0  0  0  0  0
    5.0965    0.7115   -1.3728 C   0  0  0  0  0  0  0  0  0  0  0  0
    5.7996   -0.3324    0.6314 O   0  0  0  0  0  0  0  0  0  0  0  0
    4.4719    1.5631    0.8072 C   0  0  0  0  0  0  0  0  0  0  0  0
    5.6731    2.2890    0.6778 F   0  0  0  0  0  0  0  0  0  0  0  0
    3.5188    2.4135    0.2759 F   0  0  0  0  0  0  0  0  0  0  0  0
    4.3030    1.3608    2.1616 F   0  0  0  0  0  0  0  0  0  0  0  0
    2.2351   -0.3091    0.0253 C   0  0  0  0  0  0  0  0  0  0  0  0
   -0.5444    0.3175   -0.5705 C   0  0  0  0  0  0  0  0  0  0  0  0
   -1.8773    0.7403   -0.5679 C   0  0  0  0  0  0  0  0  0  0  0  0
   -2.2411    1.9950   -1.2043 C   0  0  0  0  0  0  0  0  0  0  0  0
   -3.6509    2.3600   -1.1225 C   0  0  0  0  0  0  0  0  0  0  0  0
   -5.1608   -2.5036    0.7613 H   0  0  0  0  0  0  0  0  0  0  0  0
   -6.5381   -1.7845    1.5508 H   0  0  0  0  0  0  0  0  0  0  0  0
   -4.9053   -1.6539    2.3254 H   0  0  0  0  0  0  0  0  0  0  0  0
   -3.0735   -1.9410    1.1358 H   0  0  0  0  0  0  0  0  0  0  0  0
   -0.7599   -2.5681    1.0701 H   0  0  0  0  0  0  0  0  0  0  0  0
    0.8749   -3.3679   -0.0699 H   0  0  0  0  0  0  0  0  0  0  0  0
    4.9338   -2.3232   -0.0337 H   0  0  0  0  0  0  0  0  0  0  0  0
    6.1795    0.9066   -1.4243 H   0  0  0  0  0  0  0  0  0  0  0  0
    4.8958   -0.1667   -2.0128 H   0  0  0  0  0  0  0  0  0  0  0  0
    4.4618    1.5462   -1.6997 H   0  0  0  0  0  0  0  0  0  0  0  0
    5.5912   -0.5693    1.5740 H   0  0  0  0  0  0  0  0  0  0  0  0
    2.0188    0.7475    0.0568 H   0  0  0  0  0  0  0  0  0  0  0  0
    0.1974    0.9568   -1.0577 H   0  0  0  0  0  0  0  0  0  0  0  0
   -1.8102    2.0836   -2.2470 H   0  0  0  0  0  0  0  0  0  0  0  0
   -1.6487    2.8013   -0.6523 H   0  0  0  0  0  0  0  0  0  0  0  0
   -3.7840    3.4226   -0.7554 H   0  0  0  0  0  0  0  0  0  0  0  0
   -4.0362    2.4360   -2.1975 H   0  0  0  0  0  0  0  0  0  0  0  0
  1  2  1  0
  2  3  2  0
  3  4  1  0
  4  5  2  0
  5  6  1  0
  6  7  1  0
  7  8  2  0
  8  9  1  0
  9 10  2  0
 10 11  1  0
 11 12  2  0
 12 13  1  0
 13 14  2  0
 14 15  1  0
 15 16  1  0
 16 17  1  0
 16 18  1  1
 16 19  1  0
 19 20  1  0
 19 21  1  0
 19 22  1  0
 15 23  2  0
 10 24  1  0
 24 25  2  0
 25 26  1  0
 26 27  1  0
  6  2  1  0
 25  7  1  0
 27  5  1  0
 23 11  1  0
  1 28  1  0
  1 29  1  0
  1 30  1  0
  8 31  1  0
  9 32  1  0
 12 33  1  0
 14 34  1  0
 17 35  1  0
 17 36  1  0
 17 37  1  0
 18 38  1  0
 23 39  1  0
 24 40  1  0
 26 41  1  0
 26 42  1  0
 27 43  1  0
 27 44  1  0
M  END
$$$$
