@<TRIPOS>MOLECULE
*****
 44 47 0 0 0
SMALL
GASTEIGER

@<TRIPOS>ATOM
      1 C          -5.4084   -1.6058    1.3569 C.3     1  UNL1       -0.0041
      2 C          -5.2816   -0.3229    0.6331 C.ar    1  UNL1        0.1348
      3 N          -6.3398    0.5148    0.3632 N.ar    1  UNL1       -0.1343
      4 N          -5.9249    1.5572   -0.2815 N.ar    1  UNL1       -0.1340
      5 C          -4.5805    1.4446   -0.4596 C.ar    1  UNL1        0.1383
      6 N          -4.2066    0.2777    0.1124 N.ar    1  UNL1       -0.2829
      7 C          -2.8044   -0.0715    0.0482 C.ar    1  UNL1        0.0526
      8 C          -2.4165   -1.2525    0.6348 C.ar    1  UNL1       -0.0369
      9 C          -1.0934   -1.6268    0.6069 C.ar    1  UNL1       -0.0520
     10 C          -0.1468   -0.8530    0.0087 C.ar    1  UNL1       -0.0160
     11 C           1.2640   -1.2784   -0.0055 C.ar    1  UNL1        0.0006
     12 C           1.6273   -2.5976   -0.0457 C.ar    1  UNL1        0.0353
     13 N           2.9424   -2.9675   -0.0556 N.ar    1  UNL1       -0.2623
     14 C           3.8796   -2.0043   -0.0250 C.ar    1  UNL1        0.0338
     15 C           3.5892   -0.6502    0.0163 C.ar    1  UNL1        0.0109
     16 C           4.6797    0.3047    0.0471 C.3     1  UNL1        0.1842
     17 C           5.0965    0.7115   -1.3728 C.3     1  UNL1       -0.0232
     18 O           5.7996   -0.3324    0.6314 O.3     1  UNL1       -0.3757
     19 C           4.4719    1.5631    0.8072 C.3     1  UNL1        0.4222
     20 F           5.6731    2.2890    0.6778 F       1  UNL1       -0.1673
     21 F           3.5188    2.4135    0.2759 F       1  UNL1       -0.1673
     22 F           4.3030    1.3608    2.1616 F       1  UNL1       -0.1673
     23 C           2.2351   -0.3091    0.0253 C.ar    1  UNL1       -0.0450
     24 C          -0.5444    0.3175   -0.5705 C.ar    1  UNL1       -0.0488
     25 C          -1.8773    0.7403   -0.5679 C.ar    1  UNL1       -0.0225
     26 C          -2.2411    1.9950   -1.2043 C.3     1  UNL1       -0.0188
     27 C          -3.6509    2.3600   -1.1225 C.3     1  UNL1        0.0118
     28 H          -5.1608   -2.5036    0.7613 H       1  UNL1        0.0308
     29 H          -6.5381   -1.7845    1.5508 H       1  UNL1        0.0308
     30 H          -4.9053   -1.6539    2.3254 H       1  UNL1        0.0308
     31 H          -3.0735   -1.9410    1.1358 H       1  UNL1        0.0638
     32 H          -0.7599   -2.5681    1.0701 H       1  UNL1        0.0624
     33 H           0.8749   -3.3679   -0.0699 H       1  UNL1        0.0836
     34 H           4.9338   -2.3232   -0.0337 H       1  UNL1        0.0833
     35 H           6.1795    0.9066   -1.4243 H       1  UNL1        0.0263
     36 H           4.8958   -0.1667   -2.0128 H       1  UNL1        0.0263
     37 H           4.4618    1.5462   -1.6997 H       1  UNL1        0.0263
     38 H           5.5912   -0.5693    1.5740 H       1  UNL1        0.2110
     39 H           2.0188    0.7475    0.0568 H       1  UNL1        0.0628
     40 H           0.1974    0.9568   -1.0577 H       1  UNL1        0.0627
     41 H          -1.8102    2.0836   -2.2470 H       1  UNL1        0.0318
     42 H          -1.6487    2.8013   -0.6523 H       1  UNL1        0.0318
     43 H          -3.7840    3.4226   -0.7554 H       1  UNL1        0.0347
     44 H          -4.0362    2.4360   -2.1975 H       1  UNL1        0.0347
@<TRIPOS>BOND
     1     1     2    1
     2     2     3   ar
     3     3     4   ar
     4     4     5   ar
     5     5     6   ar
     6     6     7    1
     7     7     8   ar
     8     8     9   ar
     9     9    10   ar
    10    10    11    1
    11    11    12   ar
    12    12    13   ar
    13    13    14   ar
    14    14    15   ar
    15    15    16    1
    16    16    17    1
    17    16    18    1
    18    16    19    1
    19    19    20    1
    20    19    21    1
    21    19    22    1
    22    15    23   ar
    23    10    24   ar
    24    24    25   ar
    25    25    26    1
    26    26    27    1
    27     6     2   ar
    28    25     7   ar
    29    27     5    1
    30    23    11   ar
    31     1    28    1
    32     1    29    1
    33     1    30    1
    34     8    31    1
    35     9    32    1
    36    12    33    1
    37    14    34    1
    38    17    35    1
    39    17    36    1
    40    17    37    1
    41    18    38    1
    42    23    39    1
    43    24    40    1
    44    26    41    1
    45    26    42    1
    46    27    43    1
    47    27    44    1
