
     RDKit          3D

 47 50  0  0  0  0  0  0  0  0999 V2000
    5.8037    0.4321    1.4304 N   0  0  0  0  0  0  0  0  0  0  0  0
    4.4219    0.3264    1.1811 C   0  0  0  0  0  0  0  0  0  0  0  0
    3.6285    0.3485    2.1509 O   0  0  0  0  0  0  0  0  0  0  0  0
    3.8722    0.1919   -0.1569 C   0  0  0  0  0  0  0  0  0  0  0  0
    4.6016    0.1468   -1.3470 C   0  0  0  0  0  0  0  0  0  0  0  0
    3.7672    0.0178   -2.3894 N   0  0  0  0  0  0  0  0  0  0  0  0
    2.5021   -0.0206   -1.8801 C   0  0  0  0  0  0  0  0  0  0  0  0
    1.2963   -0.1424   -2.5425 C   0  0  0  0  0  0  0  0  0  0  0  0
    0.1278   -0.1549   -1.7788 C   0  0  0  0  0  0  0  0  0  0  0  0
    0.1838   -0.0488   -0.4092 C   0  0  0  0  0  0  0  0  0  0  0  0
   -1.0504   -0.0666    0.3587 C   0  0  0  0  0  0  0  0  0  0  0  0
   -1.8905   -1.1311    0.5891 C   0  0  0  0  0  0  0  0  0  0  0  0
   -1.7626   -2.5157    0.1351 C   0  0  0  0  0  0  0  0  0  0  0  0
   -1.8693   -2.9175   -1.1757 C   0  0  0  0  0  0  0  0  0  0  0  0
   -1.7319   -4.2577   -1.5389 C   0  0  0  0  0  0  0  0  0  0  0  0
   -1.4835   -5.2332   -0.5963 C   0  0  0  0  0  0  0  0  0  0  0  0
   -1.3528   -6.5355   -0.9718 F   0  0  0  0  0  0  0  0  0  0  0  0
   -1.3764   -4.8328    0.7182 C   0  0  0  0  0  0  0  0  0  0  0  0
   -1.5132   -3.5054    1.0716 C   0  0  0  0  0  0  0  0  0  0  0  0
   -2.8954   -0.6404    1.3478 N   0  0  0  0  0  0  0  0  0  0  0  0
   -2.7291    0.6622    1.6014 C   0  0  0  0  0  0  0  0  0  0  0  0
   -1.5881    1.0219    0.9912 N   0  0  0  0  0  0  0  0  0  0  0  0
   -1.0468    2.3622    1.0243 C   0  0  0  0  0  0  0  0  0  0  0  0
   -1.5452    3.2195   -0.1232 C   0  0  2  0  0  0  0  0  0  0  0  0
   -0.9410    4.4867    0.0358 O   0  0  0  0  0  0  0  0  0  0  0  0
   -3.0208    3.4311   -0.0806 C   0  0  0  0  0  0  0  0  0  0  0  0
   -3.4056    3.9903    1.1315 O   0  0  0  0  0  0  0  0  0  0  0  0
    1.4284    0.0703    0.1850 C   0  0  0  0  0  0  0  0  0  0  0  0
    2.5869    0.0860   -0.5291 N   0  0  0  0  0  0  0  0  0  0  0  0
    6.4575   -0.2302    0.9837 H   0  0  0  0  0  0  0  0  0  0  0  0
    6.1715    1.1653    2.0556 H   0  0  0  0  0  0  0  0  0  0  0  0
    5.6746    0.2066   -1.4198 H   0  0  0  0  0  0  0  0  0  0  0  0
    1.2637   -0.2248   -3.6130 H   0  0  0  0  0  0  0  0  0  0  0  0
   -0.7852   -0.2471   -2.3458 H   0  0  0  0  0  0  0  0  0  0  0  0
   -2.0646   -2.1956   -1.9309 H   0  0  0  0  0  0  0  0  0  0  0  0
   -1.8200   -4.5494   -2.5789 H   0  0  0  0  0  0  0  0  0  0  0  0
   -1.1825   -5.5945    1.4603 H   0  0  0  0  0  0  0  0  0  0  0  0
   -1.4296   -3.1804    2.1143 H   0  0  0  0  0  0  0  0  0  0  0  0
   -3.3869    1.3207    2.1905 H   0  0  0  0  0  0  0  0  0  0  0  0
   -1.3897    2.8437    1.9613 H   0  0  0  0  0  0  0  0  0  0  0  0
    0.0614    2.3229    1.0529 H   0  0  0  0  0  0  0  0  0  0  0  0
   -1.2179    2.7665   -1.0586 H   0  0  0  0  0  0  0  0  0  0  0  0
   -1.2003    5.1074   -0.6760 H   0  0  0  0  0  0  0  0  0  0  0  0
   -3.2478    4.2172   -0.8599 H   0  0  0  0  0  0  0  0  0  0  0  0
   -3.6216    2.5652   -0.3514 H   0  0  0  0  0  0  0  0  0  0  0  0
   -2.7948    4.7602    1.3073 H   0  0  0  0  0  0  0  0  0  0  0  0
    1.4946    0.1549    1.2589 H   0  0  0  0  0  0  0  0  0  0  0  0
  1  2  1  0
  2  3  2  0
  2  4  1  0
  4  5  2  0
  5  6  1  0
  6  7  2  0
  7  8  1  0
  8  9  2  0
  9 10  1  0
 10 11  1  0
 11 12  2  0
 12 13  1  0
 13 14  2  0
 14 15  1  0
 15 16  2  0
 16 17  1  0
 16 18  1  0
 18 19  2  0
 12 20  1  0
 20 21  2  0
 21 22  1  0
 22 23  1  0
 23 24  1  0
 24 25  1  0
 24 26  1  0
 26 27  1  0
 10 28  2  0
 28 29  1  0
 29  4  1  0
 29  7  1  0
 22 11  1  0
 19 13  1  0
  1 30  1  0
  1 31  1  0
  5 32  1  0
  8 33  1  0
  9 34  1  0
 14 35  1  0
 15 36  1  0
 18 37  1  0
 19 38  1  0
 21 39  1  0
 23 40  1  0
 23 41  1  0
 24 42  1  6
 25 43  1  0
 26 44  1  0
 26 45  1  0
 27 46  1  0
 28 47  1  0
M  END
$$$$
