@<TRIPOS>MOLECULE
*****
 47 50 0 0 0
SMALL
GASTEIGER

@<TRIPOS>ATOM
      1 N           5.8037    0.4321    1.4304 N.am    1  UNL1       -0.3241
      2 C           4.4219    0.3264    1.1811 C.2     1  UNL1        0.2599
      3 O           3.6285    0.3485    2.1509 O.2     1  UNL1       -0.2687
      4 C           3.8722    0.1919   -0.1569 C.ar    1  UNL1        0.1280
      5 C           4.6016    0.1468   -1.3470 C.ar    1  UNL1        0.0588
      6 N           3.7672    0.0178   -2.3894 N.ar    1  UNL1       -0.2353
      7 C           2.5021   -0.0206   -1.8801 C.ar    1  UNL1        0.1381
      8 C           1.2963   -0.1424   -2.5425 C.ar    1  UNL1       -0.0182
      9 C           0.1278   -0.1549   -1.7788 C.ar    1  UNL1       -0.0477
     10 C           0.1838   -0.0488   -0.4092 C.ar    1  UNL1        0.0173
     11 C          -1.0504   -0.0666    0.3587 C.ar    1  UNL1        0.0779
     12 C          -1.8905   -1.1311    0.5891 C.ar    1  UNL1        0.0967
     13 C          -1.7626   -2.5157    0.1351 C.ar    1  UNL1        0.0026
     14 C          -1.8693   -2.9175   -1.1757 C.ar    1  UNL1       -0.0498
     15 C          -1.7319   -4.2577   -1.5389 C.ar    1  UNL1       -0.0258
     16 C          -1.4835   -5.2332   -0.5963 C.ar    1  UNL1        0.1234
     17 F          -1.3528   -6.5355   -0.9718 F       1  UNL1       -0.2055
     18 C          -1.3764   -4.8328    0.7182 C.ar    1  UNL1       -0.0258
     19 C          -1.5132   -3.5054    1.0716 C.ar    1  UNL1       -0.0498
     20 N          -2.8954   -0.6404    1.3478 N.ar    1  UNL1       -0.2351
     21 C          -2.7291    0.6622    1.6014 C.ar    1  UNL1        0.0972
     22 N          -1.5881    1.0219    0.9912 N.ar    1  UNL1       -0.3270
     23 C          -1.0468    2.3622    1.0243 C.3     1  UNL1        0.0529
     24 C          -1.5452    3.2195   -0.1232 C.3     1  UNL1        0.0961
     25 O          -0.9410    4.4867    0.0358 O.3     1  UNL1       -0.3878
     26 C          -3.0208    3.4311   -0.0806 C.3     1  UNL1        0.0718
     27 O          -3.4056    3.9903    1.1315 O.3     1  UNL1       -0.3924
     28 C           1.4284    0.0703    0.1850 C.ar    1  UNL1        0.0211
     29 N           2.5869    0.0860   -0.5291 N.ar    1  UNL1       -0.2949
     30 H           6.4575   -0.2302    0.9837 H       1  UNL1        0.1453
     31 H           6.1715    1.1653    2.0556 H       1  UNL1        0.1453
     32 H           5.6746    0.2066   -1.4198 H       1  UNL1        0.0853
     33 H           1.2637   -0.2248   -3.6130 H       1  UNL1        0.0654
     34 H          -0.7852   -0.2471   -2.3458 H       1  UNL1        0.0626
     35 H          -2.0646   -2.1956   -1.9309 H       1  UNL1        0.0625
     36 H          -1.8200   -4.5494   -2.5789 H       1  UNL1        0.0646
     37 H          -1.1825   -5.5945    1.4603 H       1  UNL1        0.0646
     38 H          -1.4296   -3.1804    2.1143 H       1  UNL1        0.0625
     39 H          -3.3869    1.3207    2.1905 H       1  UNL1        0.1029
     40 H          -1.3897    2.8437    1.9613 H       1  UNL1        0.0518
     41 H           0.0614    2.3229    1.0529 H       1  UNL1        0.0518
     42 H          -1.2179    2.7665   -1.0586 H       1  UNL1        0.0634
     43 H          -1.2003    5.1074   -0.6760 H       1  UNL1        0.2100
     44 H          -3.2478    4.2172   -0.8599 H       1  UNL1        0.0583
     45 H          -3.6216    2.5652   -0.3514 H       1  UNL1        0.0583
     46 H          -2.7948    4.7602    1.3073 H       1  UNL1        0.2095
     47 H           1.4946    0.1549    1.2589 H       1  UNL1        0.0820
@<TRIPOS>BOND
     1     1     2   am
     2     2     3    2
     3     2     4    1
     4     4     5   ar
     5     5     6   ar
     6     6     7   ar
     7     7     8   ar
     8     8     9   ar
     9     9    10   ar
    10    10    11    1
    11    11    12   ar
    12    12    13    1
    13    13    14   ar
    14    14    15   ar
    15    15    16   ar
    16    16    17    1
    17    16    18   ar
    18    18    19   ar
    19    12    20   ar
    20    20    21   ar
    21    21    22   ar
    22    22    23    1
    23    23    24    1
    24    24    25    1
    25    24    26    1
    26    26    27    1
    27    10    28   ar
    28    28    29   ar
    29    29     4   ar
    30    29     7   ar
    31    22    11   ar
    32    19    13   ar
    33     1    30    1
    34     1    31    1
    35     5    32    1
    36     8    33    1
    37     9    34    1
    38    14    35    1
    39    15    36    1
    40    18    37    1
    41    19    38    1
    42    21    39    1
    43    23    40    1
    44    23    41    1
    45    24    42    1
    46    25    43    1
    47    26    44    1
    48    26    45    1
    49    27    46    1
    50    28    47    1
