@<TRIPOS>MOLECULE
*****
 47 50 0 0 0
SMALL
GASTEIGER

@<TRIPOS>ATOM
      1 C           5.6001    1.2300    0.3650 C.3     1  UNL1       -0.0397
      2 C           4.1908    0.8281    0.0629 C.ar    1  UNL1       -0.0504
      3 C           3.5332    1.2928   -1.0602 C.ar    1  UNL1       -0.0586
      4 C           2.2329    0.9088   -1.3192 C.ar    1  UNL1       -0.0580
      5 C           1.5351    0.0559   -0.4842 C.ar    1  UNL1       -0.0436
      6 C           0.1278   -0.3625   -0.7602 C.3     1  UNL1       -0.0062
      7 C           0.1773   -1.8639   -1.0352 C.3     1  UNL1       -0.0299
      8 C          -1.1809   -2.4751   -1.1315 C.3     1  UNL1        0.0110
      9 C          -1.4798   -3.2718    0.1353 C.3     1  UNL1       -0.0359
     10 C          -1.8112   -2.2217    1.1655 C.3     1  UNL1       -0.0353
     11 C          -2.0015   -0.9849    0.3362 C.3     1  UNL1        0.0178
     12 C          -0.7669   -0.1142    0.4222 C.3     1  UNL1        0.0066
     13 C          -1.2032    1.2784    0.5541 C.ar    1  UNL1       -0.0422
     14 C          -0.8936    1.9846    1.6969 C.ar    1  UNL1       -0.0582
     15 C          -1.2887    3.3126    1.8652 C.ar    1  UNL1       -0.0615
     16 C          -2.0069    3.9524    0.8764 C.ar    1  UNL1       -0.0617
     17 C          -2.3205    3.2611   -0.2635 C.ar    1  UNL1       -0.0615
     18 C          -1.9222    1.9592   -0.4062 C.ar    1  UNL1       -0.0582
     19 N          -2.1597   -1.4037   -1.0245 N.3     1  UNL1       -0.2989
     20 C          -3.4849   -1.8185   -1.3706 C.3     1  UNL1       -0.0122
     21 C           2.2145   -0.3970    0.6353 C.ar    1  UNL1       -0.0580
     22 C           3.5181   -0.0162    0.9010 C.ar    1  UNL1       -0.0586
     23 H           5.6937    2.2798    0.6354 H       1  UNL1        0.0278
     24 H           5.9978    0.5307    1.1276 H       1  UNL1        0.0278
     25 H           6.1748    0.9940   -0.5743 H       1  UNL1        0.0278
     26 H           4.0901    1.9613   -1.7082 H       1  UNL1        0.0620
     27 H           1.7269    1.2720   -2.1919 H       1  UNL1        0.0620
     28 H          -0.1988    0.1131   -1.6858 H       1  UNL1        0.0356
     29 H           0.7346   -2.3418   -0.2074 H       1  UNL1        0.0286
     30 H           0.6819   -2.0266   -2.0310 H       1  UNL1        0.0286
     31 H          -1.3385   -3.1235   -1.9985 H       1  UNL1        0.0463
     32 H          -2.3031   -3.9755    0.0072 H       1  UNL1        0.0281
     33 H          -0.5244   -3.7626    0.4180 H       1  UNL1        0.0281
     34 H          -2.7151   -2.4727    1.7589 H       1  UNL1        0.0281
     35 H          -0.9845   -2.0770    1.8882 H       1  UNL1        0.0281
     36 H          -2.9275   -0.4138    0.6341 H       1  UNL1        0.0469
     37 H          -0.2126   -0.4103    1.3296 H       1  UNL1        0.0370
     38 H          -0.3349    1.5233    2.4925 H       1  UNL1        0.0620
     39 H          -1.0574    3.8859    2.7521 H       1  UNL1        0.0618
     40 H          -2.3268    4.9805    0.9784 H       1  UNL1        0.0618
     41 H          -2.8885    3.7621   -1.0490 H       1  UNL1        0.0618
     42 H          -2.1757    1.4314   -1.3051 H       1  UNL1        0.0620
     43 H          -4.2692   -1.4483   -0.6884 H       1  UNL1        0.0391
     44 H          -3.4908   -2.9236   -1.4758 H       1  UNL1        0.0391
     45 H          -3.7175   -1.4277   -2.4025 H       1  UNL1        0.0391
     46 H           1.7428   -1.0681    1.3421 H       1  UNL1        0.0620
     47 H           4.0130   -0.3971    1.7932 H       1  UNL1        0.0620
@<TRIPOS>BOND
     1     1     2    1
     2     2     3   ar
     3     3     4   ar
     4     4     5   ar
     5     5     6    1
     6     6     7    1
     7     7     8    1
     8     8     9    1
     9     9    10    1
    10    10    11    1
    11    11    12    1
    12    12    13    1
    13    13    14   ar
    14    14    15   ar
    15    15    16   ar
    16    16    17   ar
    17    17    18   ar
    18    11    19    1
    19    19    20    1
    20     5    21   ar
    21    21    22   ar
    22    22     2   ar
    23    12     6    1
    24    18    13   ar
    25    19     8    1
    26     1    23    1
    27     1    24    1
    28     1    25    1
    29     3    26    1
    30     4    27    1
    31     6    28    1
    32     7    29    1
    33     7    30    1
    34     8    31    1
    35     9    32    1
    36     9    33    1
    37    10    34    1
    38    10    35    1
    39    11    36    1
    40    12    37    1
    41    14    38    1
    42    15    39    1
    43    16    40    1
    44    17    41    1
    45    18    42    1
    46    20    43    1
    47    20    44    1
    48    20    45    1
    49    21    46    1
    50    22    47    1
