
     RDKit          3D

 47 50  0  0  0  0  0  0  0  0999 V2000
    5.6001    1.2300    0.3650 C   0  0  0  0  0  0  0  0  0  0  0  0
    4.1908    0.8281    0.0629 C   0  0  0  0  0  0  0  0  0  0  0  0
    3.5332    1.2928   -1.0602 C   0  0  0  0  0  0  0  0  0  0  0  0
    2.2329    0.9088   -1.3192 C   0  0  0  0  0  0  0  0  0  0  0  0
    1.5351    0.0559   -0.4842 C   0  0  0  0  0  0  0  0  0  0  0  0
    0.1278   -0.3625   -0.7602 C   0  0  1  0  0  0  0  0  0  0  0  0
    0.1773   -1.8639   -1.0352 C   0  0  0  0  0  0  0  0  0  0  0  0
   -1.1809   -2.4751   -1.1315 C   0  0  1  0  0  0  0  0  0  0  0  0
   -1.4798   -3.2718    0.1353 C   0  0  0  0  0  0  0  0  0  0  0  0
   -1.8112   -2.2217    1.1655 C   0  0  0  0  0  0  0  0  0  0  0  0
   -2.0015   -0.9849    0.3362 C   0  0  0  0  0  0  0  0  0  0  0  0
   -0.7669   -0.1142    0.4222 C   0  0  0  0  0  0  0  0  0  0  0  0
   -1.2032    1.2784    0.5541 C   0  0  0  0  0  0  0  0  0  0  0  0
   -0.8936    1.9846    1.6969 C   0  0  0  0  0  0  0  0  0  0  0  0
   -1.2887    3.3126    1.8652 C   0  0  0  0  0  0  0  0  0  0  0  0
   -2.0069    3.9524    0.8764 C   0  0  0  0  0  0  0  0  0  0  0  0
   -2.3205    3.2611   -0.2635 C   0  0  0  0  0  0  0  0  0  0  0  0
   -1.9222    1.9592   -0.4062 C   0  0  0  0  0  0  0  0  0  0  0  0
   -2.1597   -1.4037   -1.0245 N   0  0  0  0  0  0  0  0  0  0  0  0
   -3.4849   -1.8185   -1.3706 C   0  0  0  0  0  0  0  0  0  0  0  0
    2.2145   -0.3970    0.6353 C   0  0  0  0  0  0  0  0  0  0  0  0
    3.5181   -0.0162    0.9010 C   0  0  0  0  0  0  0  0  0  0  0  0
    5.6937    2.2798    0.6354 H   0  0  0  0  0  0  0  0  0  0  0  0
    5.9978    0.5307    1.1276 H   0  0  0  0  0  0  0  0  0  0  0  0
    6.1748    0.9940   -0.5743 H   0  0  0  0  0  0  0  0  0  0  0  0
    4.0901    1.9613   -1.7082 H   0  0  0  0  0  0  0  0  0  0  0  0
    1.7269    1.2720   -2.1919 H   0  0  0  0  0  0  0  0  0  0  0  0
   -0.1988    0.1131   -1.6858 H   0  0  0  0  0  0  0  0  0  0  0  0
    0.7346   -2.3418   -0.2074 H   0  0  0  0  0  0  0  0  0  0  0  0
    0.6819   -2.0266   -2.0310 H   0  0  0  0  0  0  0  0  0  0  0  0
   -1.3385   -3.1235   -1.9985 H   0  0  0  0  0  0  0  0  0  0  0  0
   -2.3031   -3.9755    0.0072 H   0  0  0  0  0  0  0  0  0  0  0  0
   -0.5244   -3.7626    0.4180 H   0  0  0  0  0  0  0  0  0  0  0  0
   -2.7151   -2.4727    1.7589 H   0  0  0  0  0  0  0  0  0  0  0  0
   -0.9845   -2.0770    1.8882 H   0  0  0  0  0  0  0  0  0  0  0  0
   -2.9275   -0.4138    0.6341 H   0  0  0  0  0  0  0  0  0  0  0  0
   -0.2126   -0.4103    1.3296 H   0  0  0  0  0  0  0  0  0  0  0  0
   -0.3349    1.5233    2.4925 H   0  0  0  0  0  0  0  0  0  0  0  0
   -1.0574    3.8859    2.7521 H   0  0  0  0  0  0  0  0  0  0  0  0
   -2.3268    4.9805    0.9784 H   0  0  0  0  0  0  0  0  0  0  0  0
   -2.8885    3.7621   -1.0490 H   0  0  0  0  0  0  0  0  0  0  0  0
   -2.1757    1.4314   -1.3051 H   0  0  0  0  0  0  0  0  0  0  0  0
   -4.2692   -1.4483   -0.6884 H   0  0  0  0  0  0  0  0  0  0  0  0
   -3.4908   -2.9236   -1.4758 H   0  0  0  0  0  0  0  0  0  0  0  0
   -3.7175   -1.4277   -2.4025 H   0  0  0  0  0  0  0  0  0  0  0  0
    1.7428   -1.0681    1.3421 H   0  0  0  0  0  0  0  0  0  0  0  0
    4.0130   -0.3971    1.7932 H   0  0  0  0  0  0  0  0  0  0  0  0
  1  2  1  0
  2  3  2  0
  3  4  1  0
  4  5  2  0
  5  6  1  0
  6  7  1  0
  7  8  1  0
  8  9  1  0
  9 10  1  0
 10 11  1  0
 11 12  1  0
 12 13  1  0
 13 14  2  0
 14 15  1  0
 15 16  2  0
 16 17  1  0
 17 18  2  0
 11 19  1  0
 19 20  1  0
  5 21  1  0
 21 22  2  0
 22  2  1  0
 12  6  1  0
 18 13  1  0
 19  8  1  0
  1 23  1  0
  1 24  1  0
  1 25  1  0
  3 26  1  0
  4 27  1  0
  6 28  1  6
  7 29  1  0
  7 30  1  0
  8 31  1  6
  9 32  1  0
  9 33  1  0
 10 34  1  0
 10 35  1  0
 11 36  1  0
 12 37  1  0
 14 38  1  0
 15 39  1  0
 16 40  1  0
 17 41  1  0
 18 42  1  0
 20 43  1  0
 20 44  1  0
 20 45  1  0
 21 46  1  0
 22 47  1  0
M  END
$$$$
