
     RDKit          3D

 39 42  0  0  0  0  0  0  0  0999 V2000
   -1.0869    2.9133   -1.3958 N   0  0  0  0  0  0  0  0  0  0  0  0
   -1.0379    1.6056   -0.7937 C   0  0  0  0  0  0  0  0  0  0  0  0
    0.0908    0.8418   -0.7276 N   0  0  0  0  0  0  0  0  0  0  0  0
   -0.0049   -0.3480   -0.1433 C   0  0  0  0  0  0  0  0  0  0  0  0
   -1.1949   -0.7668    0.3625 C   0  0  0  0  0  0  0  0  0  0  0  0
   -1.0044   -1.9983    0.8920 N   0  0  0  0  0  0  0  0  0  0  0  0
    0.2895   -2.3194    0.7071 C   0  0  0  0  0  0  0  0  0  0  0  0
    0.9071   -1.3029    0.0688 N   0  0  0  0  0  0  0  0  0  0  0  0
    2.2930   -1.3745   -0.2573 C   0  0  2  0  0  0  0  0  0  0  0  0
    3.1281   -0.8242    0.8789 C   0  0  0  0  0  0  0  0  0  0  0  0
    4.3953   -0.4460    0.1302 C   0  0  2  0  0  0  0  0  0  0  0  0
    5.0587    0.6907    0.8505 C   0  0  0  0  0  0  0  0  0  0  0  0
    4.2282    1.8065    0.9205 O   0  0  0  0  0  0  0  0  0  0  0  0
    3.9149   -0.0476   -1.2197 C   0  0  0  0  0  0  0  0  0  0  0  0
    2.6991   -0.5854   -1.4420 C   0  0  0  0  0  0  0  0  0  0  0  0
   -2.3511   -0.0158    0.3095 C   0  0  0  0  0  0  0  0  0  0  0  0
   -3.5603   -0.4816    0.8425 N   0  0  0  0  0  0  0  0  0  0  0  0
   -4.8294    0.2047    0.8493 C   0  0  0  0  0  0  0  0  0  0  0  0
   -5.5106    0.6163   -0.3815 C   0  0  0  0  0  0  0  0  0  0  0  0
   -5.9912   -0.6294    0.2846 C   0  0  0  0  0  0  0  0  0  0  0  0
   -2.2338    1.1848   -0.2854 N   0  0  0  0  0  0  0  0  0  0  0  0
   -0.9068    3.6866   -0.7114 H   0  0  0  0  0  0  0  0  0  0  0  0
   -1.2493    3.3761   -2.3307 H   0  0  0  0  0  0  0  0  0  0  0  0
    0.7105   -3.2676    1.0436 H   0  0  0  0  0  0  0  0  0  0  0  0
    2.6432   -2.4174   -0.4196 H   0  0  0  0  0  0  0  0  0  0  0  0
    2.6553    0.0761    1.3007 H   0  0  0  0  0  0  0  0  0  0  0  0
    3.3334   -1.6244    1.6276 H   0  0  0  0  0  0  0  0  0  0  0  0
    5.0594   -1.3137    0.1094 H   0  0  0  0  0  0  0  0  0  0  0  0
    6.0723    0.9061    0.4725 H   0  0  0  0  0  0  0  0  0  0  0  0
    5.1863    0.3616    1.9233 H   0  0  0  0  0  0  0  0  0  0  0  0
    4.2675    2.3380    0.0760 H   0  0  0  0  0  0  0  0  0  0  0  0
    4.3989    0.5702   -1.9650 H   0  0  0  0  0  0  0  0  0  0  0  0
    2.0297   -0.5210   -2.3091 H   0  0  0  0  0  0  0  0  0  0  0  0
   -3.5875   -1.4234    1.2923 H   0  0  0  0  0  0  0  0  0  0  0  0
   -5.0367    0.6919    1.8374 H   0  0  0  0  0  0  0  0  0  0  0  0
   -4.9646    0.5253   -1.3329 H   0  0  0  0  0  0  0  0  0  0  0  0
   -6.1359    1.5484   -0.3139 H   0  0  0  0  0  0  0  0  0  0  0  0
   -6.9341   -0.6534    0.8449 H   0  0  0  0  0  0  0  0  0  0  0  0
   -5.7409   -1.5831   -0.2311 H   0  0  0  0  0  0  0  0  0  0  0  0
  1  2  1  0
  2  3  2  0
  3  4  1  0
  4  5  2  0
  5  6  1  0
  6  7  2  0
  7  8  1  0
  8  9  1  0
  9 10  1  0
 10 11  1  0
 11 12  1  0
 12 13  1  0
 11 14  1  0
 14 15  2  0
  5 16  1  0
 16 17  1  0
 17 18  1  0
 18 19  1  0
 19 20  1  0
 16 21  2  0
 21  2  1  0
  8  4  1  0
 15  9  1  0
 20 18  1  0
  1 22  1  0
  1 23  1  0
  7 24  1  0
  9 25  1  6
 10 26  1  0
 10 27  1  0
 11 28  1  6
 12 29  1  0
 12 30  1  0
 13 31  1  0
 14 32  1  0
 15 33  1  0
 17 34  1  0
 18 35  1  0
 19 36  1  0
 19 37  1  0
 20 38  1  0
 20 39  1  0
M  END
$$$$
