
     RDKit          3D

 38 40  0  0  0  0  0  0  0  0999 V2000
   -0.9975   -3.1447    0.8950 N   0  0  0  0  0  0  0  0  0  0  0  0
    0.1356   -2.3257    0.6730 C   0  0  0  0  0  0  0  0  0  0  0  0
    1.4001   -2.6847    1.0656 C   0  0  0  0  0  0  0  0  0  0  0  0
    2.5043   -1.8582    0.8361 C   0  0  0  0  0  0  0  0  0  0  0  0
    2.2985   -0.6525    0.1962 C   0  0  0  0  0  0  0  0  0  0  0  0
    3.4449    0.2226   -0.0541 C   0  0  0  0  0  0  0  0  0  0  0  0
    4.5298    0.2686    0.8028 C   0  0  0  0  0  0  0  0  0  0  0  0
    5.6025    1.0990    0.5501 C   0  0  0  0  0  0  0  0  0  0  0  0
    5.6118    1.8944   -0.5565 C   0  0  0  0  0  0  0  0  0  0  0  0
    4.5304    1.8518   -1.4152 C   0  0  0  0  0  0  0  0  0  0  0  0
    3.4745    1.0352   -1.1677 C   0  0  0  0  0  0  0  0  0  0  0  0
    1.0386   -0.2616   -0.2114 C   0  0  0  0  0  0  0  0  0  0  0  0
   -0.0365   -1.1186    0.0381 C   0  0  0  0  0  0  0  0  0  0  0  0
   -1.3176   -0.6759   -0.4020 N   0  0  0  0  0  0  0  0  0  0  0  0
   -2.1614    0.0724    0.4429 C   0  0  0  0  0  0  0  0  0  0  0  0
   -1.7124    0.3230    1.6055 O   0  0  0  0  0  0  0  0  0  0  0  0
   -3.4760    0.5523    0.0558 C   0  0  0  0  0  0  0  0  0  0  0  0
   -4.2360    1.2620    0.9662 C   0  0  0  0  0  0  0  0  0  0  0  0
   -5.4836    1.7158    0.5947 C   0  0  0  0  0  0  0  0  0  0  0  0
   -6.0214    1.4953   -0.6578 C   0  0  0  0  0  0  0  0  0  0  0  0
   -5.2426    0.7855   -1.5460 C   0  0  0  0  0  0  0  0  0  0  0  0
   -3.9748    0.3105   -1.2042 C   0  0  0  0  0  0  0  0  0  0  0  0
   -1.3247   -3.2618    1.8949 H   0  0  0  0  0  0  0  0  0  0  0  0
   -1.5200   -3.6323    0.1326 H   0  0  0  0  0  0  0  0  0  0  0  0
    1.5540   -3.6290    1.5653 H   0  0  0  0  0  0  0  0  0  0  0  0
    3.5016   -2.1472    1.1484 H   0  0  0  0  0  0  0  0  0  0  0  0
    4.4959   -0.3706    1.6699 H   0  0  0  0  0  0  0  0  0  0  0  0
    6.4518    1.1418    1.2123 H   0  0  0  0  0  0  0  0  0  0  0  0
    6.4528    2.5494   -0.7606 H   0  0  0  0  0  0  0  0  0  0  0  0
    4.5336    2.4863   -2.3012 H   0  0  0  0  0  0  0  0  0  0  0  0
    2.6169    0.9867   -1.8286 H   0  0  0  0  0  0  0  0  0  0  0  0
    0.9274    0.6925   -0.7091 H   0  0  0  0  0  0  0  0  0  0  0  0
   -1.6065   -0.9199   -1.3563 H   0  0  0  0  0  0  0  0  0  0  0  0
   -3.8700    1.4668    1.9640 H   0  0  0  0  0  0  0  0  0  0  0  0
   -6.0755    2.2660    1.2987 H   0  0  0  0  0  0  0  0  0  0  0  0
   -7.0167    1.8650   -0.9340 H   0  0  0  0  0  0  0  0  0  0  0  0
   -5.6135    0.5846   -2.5385 H   0  0  0  0  0  0  0  0  0  0  0  0
   -3.4185   -0.2445   -1.9651 H   0  0  0  0  0  0  0  0  0  0  0  0
  1  2  1  0
  2  3  2  0
  3  4  1  0
  4  5  2  0
  5  6  1  0
  6  7  2  0
  7  8  1  0
  8  9  2  0
  9 10  1  0
 10 11  2  0
  5 12  1  0
 12 13  2  0
 13 14  1  0
 14 15  1  0
 15 16  2  0
 15 17  1  0
 17 18  2  0
 18 19  1  0
 19 20  2  0
 20 21  1  0
 21 22  2  0
 13  2  1  0
 22 17  1  0
 11  6  1  0
  1 23  1  0
  1 24  1  0
  3 25  1  0
  4 26  1  0
  7 27  1  0
  8 28  1  0
  9 29  1  0
 10 30  1  0
 11 31  1  0
 12 32  1  0
 14 33  1  0
 18 34  1  0
 19 35  1  0
 20 36  1  0
 21 37  1  0
 22 38  1  0
M  END
$$$$
