@<TRIPOS>MOLECULE
*****
 38 40 0 0 0
SMALL
GASTEIGER

@<TRIPOS>ATOM
      1 N          -0.9975   -3.1447    0.8950 N.pl3   1  UNL1       -0.3565
      2 C           0.1356   -2.3257    0.6730 C.ar    1  UNL1        0.0461
      3 C           1.4001   -2.6847    1.0656 C.ar    1  UNL1       -0.0387
      4 C           2.5043   -1.8582    0.8361 C.ar    1  UNL1       -0.0522
      5 C           2.2985   -0.6525    0.1962 C.ar    1  UNL1       -0.0160
      6 C           3.4449    0.2226   -0.0541 C.ar    1  UNL1       -0.0178
      7 C           4.5298    0.2686    0.8028 C.ar    1  UNL1       -0.0540
      8 C           5.6025    1.0990    0.5501 C.ar    1  UNL1       -0.0612
      9 C           5.6118    1.8944   -0.5565 C.ar    1  UNL1       -0.0617
     10 C           4.5304    1.8518   -1.4152 C.ar    1  UNL1       -0.0612
     11 C           3.4745    1.0352   -1.1677 C.ar    1  UNL1       -0.0540
     12 C           1.0386   -0.2616   -0.2114 C.ar    1  UNL1       -0.0310
     13 C          -0.0365   -1.1186    0.0381 C.ar    1  UNL1        0.0551
     14 N          -1.3176   -0.6759   -0.4020 N.am    1  UNL1       -0.2799
     15 C          -2.1614    0.0724    0.4429 C.2     1  UNL1        0.2483
     16 O          -1.7124    0.3230    1.6055 O.2     1  UNL1       -0.2699
     17 C          -3.4760    0.5523    0.0558 C.ar    1  UNL1        0.0370
     18 C          -4.2360    1.2620    0.9662 C.ar    1  UNL1       -0.0496
     19 C          -5.4836    1.7158    0.5947 C.ar    1  UNL1       -0.0610
     20 C          -6.0214    1.4953   -0.6578 C.ar    1  UNL1       -0.0617
     21 C          -5.2426    0.7855   -1.5460 C.ar    1  UNL1       -0.0610
     22 C          -3.9748    0.3105   -1.2042 C.ar    1  UNL1       -0.0496
     23 H          -1.3247   -3.2618    1.8949 H       1  UNL1        0.1424
     24 H          -1.5200   -3.6323    0.1326 H       1  UNL1        0.1424
     25 H           1.5540   -3.6290    1.5653 H       1  UNL1        0.0637
     26 H           3.5016   -2.1472    1.1484 H       1  UNL1        0.0624
     27 H           4.4959   -0.3706    1.6699 H       1  UNL1        0.0624
     28 H           6.4518    1.1418    1.2123 H       1  UNL1        0.0618
     29 H           6.4528    2.5494   -0.7606 H       1  UNL1        0.0618
     30 H           4.5336    2.4863   -2.3012 H       1  UNL1        0.0618
     31 H           2.6169    0.9867   -1.8286 H       1  UNL1        0.0624
     32 H           0.9274    0.6925   -0.7091 H       1  UNL1        0.0643
     33 H          -1.6065   -0.9199   -1.3563 H       1  UNL1        0.1552
     34 H          -3.8700    1.4668    1.9640 H       1  UNL1        0.0625
     35 H          -6.0755    2.2660    1.2987 H       1  UNL1        0.0618
     36 H          -7.0167    1.8650   -0.9340 H       1  UNL1        0.0618
     37 H          -5.6135    0.5846   -2.5385 H       1  UNL1        0.0618
     38 H          -3.4185   -0.2445   -1.9651 H       1  UNL1        0.0625
@<TRIPOS>BOND
     1     1     2    1
     2     2     3   ar
     3     3     4   ar
     4     4     5   ar
     5     5     6    1
     6     6     7   ar
     7     7     8   ar
     8     8     9   ar
     9     9    10   ar
    10    10    11   ar
    11     5    12   ar
    12    12    13   ar
    13    13    14    1
    14    14    15   am
    15    15    16    2
    16    15    17    1
    17    17    18   ar
    18    18    19   ar
    19    19    20   ar
    20    20    21   ar
    21    21    22   ar
    22    13     2   ar
    23    22    17   ar
    24    11     6   ar
    25     1    23    1
    26     1    24    1
    27     3    25    1
    28     4    26    1
    29     7    27    1
    30     8    28    1
    31     9    29    1
    32    10    30    1
    33    11    31    1
    34    12    32    1
    35    14    33    1
    36    18    34    1
    37    19    35    1
    38    20    36    1
    39    21    37    1
    40    22    38    1
