@<TRIPOS>MOLECULE
*****
 26 26 0 0 0
SMALL
GASTEIGER

@<TRIPOS>ATOM
      1 O          -2.6482    1.9883   -0.5136 O.2     1  UNL1       -0.2551
      2 P          -1.1542    1.6588   -0.4354 P.3     1  UNL1        0.3728
      3 O          -0.3751    2.6878   -1.5042 O.3     1  UNL1       -0.3217
      4 O          -0.6661    2.0459    1.1361 O.3     1  UNL1       -0.3217
      5 C          -0.9508   -0.0677   -0.8084 C.3     1  UNL1        0.2849
      6 O          -1.7932   -0.4022   -1.8790 O.3     1  UNL1       -0.3659
      7 C           0.4493   -0.4607   -1.1914 C.3     1  UNL1        0.0760
      8 N           1.4137   -0.1932   -0.1665 N.ar    1  UNL1       -0.3328
      9 C           1.7965   -1.0215    0.8229 C.ar    1  UNL1        0.0241
     10 C           2.7444   -0.4159    1.6165 C.ar    1  UNL1        0.0454
     11 N           2.9355    0.8059    1.0909 N.ar    1  UNL1       -0.2441
     12 C           2.1273    0.9335    0.0128 C.ar    1  UNL1        0.0960
     13 P          -1.5336   -1.0205    0.6227 P.3     1  UNL1        0.3728
     14 O          -3.0019   -0.6699    0.7943 O.2     1  UNL1       -0.2551
     15 O          -0.6939   -0.4593    1.9754 O.3     1  UNL1       -0.3217
     16 O          -1.3215   -2.6769    0.3964 O.3     1  UNL1       -0.3217
     17 H          -0.3475    2.2492   -2.3926 H       1  UNL1        0.2198
     18 H          -1.4392    2.1287    1.7554 H       1  UNL1        0.2198
     19 H          -1.2710   -0.5457   -2.7087 H       1  UNL1        0.2117
     20 H           0.7297    0.0387   -2.1418 H       1  UNL1        0.0533
     21 H           0.4019   -1.5590   -1.4498 H       1  UNL1        0.0533
     22 H           1.4289   -2.0267    0.9955 H       1  UNL1        0.0825
     23 H           3.2581   -0.8008    2.4912 H       1  UNL1        0.0845
     24 H           2.0787    1.8284   -0.6052 H       1  UNL1        0.1029
     25 H          -0.6580   -1.1756    2.6589 H       1  UNL1        0.2198
     26 H          -1.5097   -2.8696   -0.5723 H       1  UNL1        0.2198
@<TRIPOS>BOND
     1     1     2    2
     2     2     3    1
     3     2     4    1
     4     2     5    1
     5     5     6    1
     6     5     7    1
     7     7     8    1
     8     8     9   ar
     9     9    10   ar
    10    10    11   ar
    11    11    12   ar
    12     5    13    1
    13    13    14    2
    14    13    15    1
    15    13    16    1
    16    12     8   ar
    17     3    17    1
    18     4    18    1
    19     6    19    1
    20     7    20    1
    21     7    21    1
    22     9    22    1
    23    10    23    1
    24    12    24    1
    25    15    25    1
    26    16    26    1
