
     RDKit          3D

 26 26  0  0  0  0  0  0  0  0999 V2000
   -2.6482    1.9883   -0.5136 O   0  0  0  0  0  0  0  0  0  0  0  0
   -1.1542    1.6588   -0.4354 P   0  0  0  0  0  5  0  0  0  0  0  0
   -0.3751    2.6878   -1.5042 O   0  0  0  0  0  0  0  0  0  0  0  0
   -0.6661    2.0459    1.1361 O   0  0  0  0  0  0  0  0  0  0  0  0
   -0.9508   -0.0677   -0.8084 C   0  0  0  0  0  0  0  0  0  0  0  0
   -1.7932   -0.4022   -1.8790 O   0  0  0  0  0  0  0  0  0  0  0  0
    0.4493   -0.4607   -1.1914 C   0  0  0  0  0  0  0  0  0  0  0  0
    1.4137   -0.1932   -0.1665 N   0  0  0  0  0  0  0  0  0  0  0  0
    1.7965   -1.0215    0.8229 C   0  0  0  0  0  0  0  0  0  0  0  0
    2.7444   -0.4159    1.6165 C   0  0  0  0  0  0  0  0  0  0  0  0
    2.9355    0.8059    1.0909 N   0  0  0  0  0  0  0  0  0  0  0  0
    2.1273    0.9335    0.0128 C   0  0  0  0  0  0  0  0  0  0  0  0
   -1.5336   -1.0205    0.6227 P   0  0  0  0  0  5  0  0  0  0  0  0
   -3.0019   -0.6699    0.7943 O   0  0  0  0  0  0  0  0  0  0  0  0
   -0.6939   -0.4593    1.9754 O   0  0  0  0  0  0  0  0  0  0  0  0
   -1.3215   -2.6769    0.3964 O   0  0  0  0  0  0  0  0  0  0  0  0
   -0.3475    2.2492   -2.3926 H   0  0  0  0  0  0  0  0  0  0  0  0
   -1.4392    2.1287    1.7554 H   0  0  0  0  0  0  0  0  0  0  0  0
   -1.2710   -0.5457   -2.7087 H   0  0  0  0  0  0  0  0  0  0  0  0
    0.7297    0.0387   -2.1418 H   0  0  0  0  0  0  0  0  0  0  0  0
    0.4019   -1.5590   -1.4498 H   0  0  0  0  0  0  0  0  0  0  0  0
    1.4289   -2.0267    0.9955 H   0  0  0  0  0  0  0  0  0  0  0  0
    3.2581   -0.8008    2.4912 H   0  0  0  0  0  0  0  0  0  0  0  0
    2.0787    1.8284   -0.6052 H   0  0  0  0  0  0  0  0  0  0  0  0
   -0.6580   -1.1756    2.6589 H   0  0  0  0  0  0  0  0  0  0  0  0
   -1.5097   -2.8696   -0.5723 H   0  0  0  0  0  0  0  0  0  0  0  0
  1  2  2  0
  2  3  1  0
  2  4  1  0
  2  5  1  0
  5  6  1  0
  5  7  1  0
  7  8  1  0
  8  9  1  0
  9 10  2  0
 10 11  1  0
 11 12  2  0
  5 13  1  0
 13 14  2  0
 13 15  1  0
 13 16  1  0
 12  8  1  0
  3 17  1  0
  4 18  1  0
  6 19  1  0
  7 20  1  0
  7 21  1  0
  9 22  1  0
 10 23  1  0
 12 24  1  0
 15 25  1  0
 16 26  1  0
M  END
$$$$
