@<TRIPOS>MOLECULE
*****
 47 51 0 0 0
SMALL
GASTEIGER

@<TRIPOS>ATOM
      1 O           1.5538   -3.6750    0.3632 O.2     1  UNL1       -0.2671
      2 C           1.4151   -2.4371    0.3664 C.ar    1  UNL1        0.2617
      3 C           2.4268   -1.5635    0.0286 C.ar    1  UNL1        0.0434
      4 C           2.2487   -0.1989    0.0398 C.ar    1  UNL1        0.1304
      5 N           3.3029    0.7132   -0.2953 N.pl3   1  UNL1       -0.3106
      6 C           4.6919    0.3462   -0.4070 C.3     1  UNL1        0.0370
      7 C           5.1366    0.6440   -1.8467 C.3     1  UNL1        0.0634
      8 O           4.7418    1.9075   -2.2378 O.3     1  UNL1       -0.3767
      9 C           4.3072    2.6848   -1.1658 C.3     1  UNL1        0.0634
     10 C           3.0139    2.1204   -0.5622 C.3     1  UNL1        0.0370
     11 N           1.0354    0.2299    0.3972 N.ar    1  UNL1       -0.1980
     12 C           0.0123   -0.6114    0.7372 C.ar    1  UNL1        0.2209
     13 N          -1.2502   -0.3873    1.1411 N.ar    1  UNL1       -0.3048
     14 C          -1.9216    0.8530    1.2939 C.3     1  UNL1        0.0530
     15 C          -2.7587    1.3736    0.2386 C.ar    1  UNL1       -0.0079
     16 C          -4.1448    1.2220    0.3976 C.ar    1  UNL1       -0.0554
     17 C          -5.0723    1.6550   -0.5189 C.ar    1  UNL1       -0.0600
     18 C          -4.6631    2.2781   -1.6705 C.ar    1  UNL1       -0.0420
     19 C          -3.3160    2.4403   -1.8505 C.ar    1  UNL1        0.0596
     20 CL         -2.7804    3.2400   -3.3208 Cl      1  UNL1       -0.0820
     21 C          -2.3704    1.9946   -0.9079 C.ar    1  UNL1        0.0641
     22 CL         -0.7084    2.3135   -1.2599 Cl      1  UNL1       -0.0817
     23 C          -1.8417   -1.6001    1.3791 C.ar    1  UNL1        0.0691
     24 C          -3.0896   -2.0042    1.8099 C.ar    1  UNL1       -0.0361
     25 C          -3.4219   -3.3565    1.9725 C.ar    1  UNL1       -0.0597
     26 C          -2.4503   -4.2874    1.6857 C.ar    1  UNL1       -0.0597
     27 C          -1.1990   -3.9496    1.2570 C.ar    1  UNL1       -0.0356
     28 C          -0.9236   -2.5819    1.1126 C.ar    1  UNL1        0.0763
     29 N           0.1973   -1.9381    0.7238 N.ar    1  UNL1       -0.2448
     30 H           3.3830   -1.9795   -0.2543 H       1  UNL1        0.0706
     31 H           5.3279    0.9353    0.2967 H       1  UNL1        0.0487
     32 H           4.8945   -0.7029   -0.2069 H       1  UNL1        0.0487
     33 H           6.2569    0.5642   -1.9107 H       1  UNL1        0.0575
     34 H           4.7398   -0.1470   -2.5140 H       1  UNL1        0.0575
     35 H           4.0653    3.6965   -1.5747 H       1  UNL1        0.0575
     36 H           5.0910    2.8293   -0.3987 H       1  UNL1        0.0575
     37 H           2.7956    2.6881    0.3407 H       1  UNL1        0.0487
     38 H           2.2635    2.1902   -1.3732 H       1  UNL1        0.0487
     39 H          -2.4733    0.8577    2.2666 H       1  UNL1        0.0543
     40 H          -1.0998    1.6252    1.4795 H       1  UNL1        0.0543
     41 H          -4.5712    0.7540    1.2901 H       1  UNL1        0.0621
     42 H          -6.1415    1.5231   -0.3690 H       1  UNL1        0.0618
     43 H          -5.3544    2.6346   -2.4196 H       1  UNL1        0.0633
     44 H          -3.8434   -1.2675    2.0431 H       1  UNL1        0.0639
     45 H          -4.4169   -3.6207    2.3138 H       1  UNL1        0.0618
     46 H          -2.6673   -5.3532    1.7987 H       1  UNL1        0.0618
     47 H          -0.4215   -4.6523    1.0255 H       1  UNL1        0.0639
@<TRIPOS>BOND
     1     1     2    2
     2     2     3   ar
     3     3     4   ar
     4     4     5    1
     5     5     6    1
     6     6     7    1
     7     7     8    1
     8     8     9    1
     9     9    10    1
    10     4    11   ar
    11    11    12   ar
    12    12    13   ar
    13    13    14    1
    14    14    15    1
    15    15    16   ar
    16    16    17   ar
    17    17    18   ar
    18    18    19   ar
    19    19    20    1
    20    19    21   ar
    21    21    22    1
    22    13    23   ar
    23    23    24   ar
    24    24    25   ar
    25    25    26   ar
    26    26    27   ar
    27    27    28   ar
    28    28    29   ar
    29    29     2   ar
    30    10     5    1
    31    29    12   ar
    32    21    15   ar
    33    28    23   ar
    34     3    30    1
    35     6    31    1
    36     6    32    1
    37     7    33    1
    38     7    34    1
    39     9    35    1
    40     9    36    1
    41    10    37    1
    42    10    38    1
    43    14    39    1
    44    14    40    1
    45    16    41    1
    46    17    42    1
    47    18    43    1
    48    24    44    1
    49    25    45    1
    50    26    46    1
    51    27    47    1
