@<TRIPOS>MOLECULE
*****
 68 72 0 0 0
SMALL
GASTEIGER

@<TRIPOS>ATOM
      1 C           7.7383    1.2415   -0.8576 C.3     1  UNL1       -0.0253
      2 C           7.3406    0.4827    0.3866 C.3     1  UNL1        0.1068
      3 C           7.4146    1.3488    1.6235 C.3     1  UNL1       -0.0253
      4 C           8.2971   -0.6726    0.5510 C.3     1  UNL1       -0.0253
      5 O           6.0463   -0.0132    0.2432 O.3     1  UNL1       -0.4445
      6 C           4.9471    0.8059    0.0343 C.2     1  UNL1        0.4034
      7 O           5.1744    2.0467   -0.0216 O.2     1  UNL1       -0.2262
      8 N           3.6280    0.2956   -0.1115 N.am    1  UNL1       -0.2673
      9 C           2.5367    1.2108   -0.3260 C.3     1  UNL1        0.0197
     10 C           1.2705    0.4961    0.1153 C.3     1  UNL1       -0.0144
     11 C           1.0762   -0.6716   -0.8253 C.3     1  UNL1        0.0578
     12 N          -0.1262   -1.4262   -0.4843 N.ar    1  UNL1       -0.2431
     13 N          -0.2502   -2.7090   -0.2545 N.ar    1  UNL1       -0.1768
     14 C          -1.5350   -3.0402    0.0333 C.ar    1  UNL1        0.0620
     15 C          -2.2525   -1.8715   -0.0245 C.ar    1  UNL1        0.0785
     16 C          -3.5551   -1.5345    0.1566 C.ar    1  UNL1        0.1361
     17 N          -4.5389   -2.4815    0.4991 N.pl3   1  UNL1       -0.3101
     18 C          -5.9323   -1.9676    0.5815 C.3     1  UNL1        0.0370
     19 C          -6.7122   -3.0124   -0.2314 C.3     1  UNL1        0.0634
     20 O          -6.8299   -4.0978    0.5882 O.3     1  UNL1       -0.3767
     21 C          -5.7148   -4.5071    1.2453 C.3     1  UNL1        0.0634
     22 C          -4.4238   -3.8518    0.7896 C.3     1  UNL1        0.0370
     23 N          -3.9124   -0.2141    0.0060 N.ar    1  UNL1       -0.2118
     24 C          -3.0619    0.7602   -0.3068 C.ar    1  UNL1        0.1641
     25 C          -3.5110    2.1598   -0.4534 C.ar    1  UNL1        0.0194
     26 C          -4.8167    2.5512   -0.2803 C.ar    1  UNL1       -0.0493
     27 C          -5.1925    3.8903   -0.4302 C.ar    1  UNL1       -0.0404
     28 C          -4.2631    4.8604   -0.7567 C.ar    1  UNL1        0.0246
     29 N          -4.6666    6.2159   -0.9042 N.pl3   1  UNL1       -0.3580
     30 C          -2.9547    4.4555   -0.9281 C.ar    1  UNL1       -0.0404
     31 C          -2.5861    3.1190   -0.7773 C.ar    1  UNL1       -0.0493
     32 N          -1.7790    0.4178   -0.4831 N.ar    1  UNL1       -0.2080
     33 C          -1.3561   -0.8633   -0.3509 C.ar    1  UNL1        0.1642
     34 C           2.2317   -1.6160   -0.7871 C.3     1  UNL1       -0.0144
     35 C           3.4245   -1.1204   -0.0399 C.3     1  UNL1        0.0197
     36 H           7.4749    0.6025   -1.7297 H       1  UNL1        0.0268
     37 H           8.8541    1.3489   -0.8184 H       1  UNL1        0.0268
     38 H           7.3303    2.2535   -0.9031 H       1  UNL1        0.0268
     39 H           6.6041    1.0229    2.3054 H       1  UNL1        0.0268
     40 H           7.3413    2.4182    1.3463 H       1  UNL1        0.0268
     41 H           8.3692    1.1348    2.1856 H       1  UNL1        0.0268
     42 H           9.1799   -0.2825    1.0977 H       1  UNL1        0.0268
     43 H           7.8006   -1.5039    1.0974 H       1  UNL1        0.0268
     44 H           8.6443   -1.0347   -0.4251 H       1  UNL1        0.0268
     45 H           2.3998    1.4819   -1.3925 H       1  UNL1        0.0466
     46 H           2.6800    2.1602    0.2276 H       1  UNL1        0.0466
     47 H           1.4158    0.1197    1.1332 H       1  UNL1        0.0301
     48 H           0.4037    1.1561    0.1104 H       1  UNL1        0.0301
     49 H           0.9798   -0.2411   -1.8446 H       1  UNL1        0.0546
     50 H          -1.9222   -4.0113    0.2585 H       1  UNL1        0.0856
     51 H          -6.0333   -1.0004    0.0936 H       1  UNL1        0.0487
     52 H          -6.2774   -2.0181    1.6164 H       1  UNL1        0.0487
     53 H          -6.1474   -3.3070   -1.1403 H       1  UNL1        0.0575
     54 H          -7.7295   -2.6412   -0.4670 H       1  UNL1        0.0575
     55 H          -5.6360   -5.6129    1.1348 H       1  UNL1        0.0575
     56 H          -5.8732   -4.3340    2.3339 H       1  UNL1        0.0575
     57 H          -4.1363   -4.4012   -0.1281 H       1  UNL1        0.0487
     58 H          -3.7289   -3.9850    1.6436 H       1  UNL1        0.0487
     59 H          -5.5599    1.8204   -0.0265 H       1  UNL1        0.0625
     60 H          -6.2143    4.2055   -0.2961 H       1  UNL1        0.0636
     61 H          -4.0549    7.0415   -0.7495 H       1  UNL1        0.1423
     62 H          -5.6497    6.3960   -1.1889 H       1  UNL1        0.1423
     63 H          -2.2346    5.2205   -1.1832 H       1  UNL1        0.0636
     64 H          -1.5435    2.8264   -0.9188 H       1  UNL1        0.0625
     65 H           2.5035   -1.9013   -1.8457 H       1  UNL1        0.0301
     66 H           1.9457   -2.6041   -0.3194 H       1  UNL1        0.0301
     67 H           3.3259   -1.4142    1.0290 H       1  UNL1        0.0466
     68 H           4.3330   -1.6037   -0.5016 H       1  UNL1        0.0466
@<TRIPOS>BOND
     1     1     2    1
     2     2     3    1
     3     2     4    1
     4     2     5    1
     5     5     6    1
     6     6     7    2
     7     6     8   am
     8     8     9    1
     9     9    10    1
    10    10    11    1
    11    11    12    1
    12    12    13   ar
    13    13    14   ar
    14    14    15   ar
    15    15    16   ar
    16    16    17    1
    17    17    18    1
    18    18    19    1
    19    19    20    1
    20    20    21    1
    21    21    22    1
    22    16    23   ar
    23    23    24   ar
    24    24    25    1
    25    25    26   ar
    26    26    27   ar
    27    27    28   ar
    28    28    29    1
    29    28    30   ar
    30    30    31   ar
    31    24    32   ar
    32    32    33   ar
    33    11    34    1
    34    34    35    1
    35    35     8    1
    36    33    12   ar
    37    33    15   ar
    38    22    17    1
    39    31    25   ar
    40     1    36    1
    41     1    37    1
    42     1    38    1
    43     3    39    1
    44     3    40    1
    45     3    41    1
    46     4    42    1
    47     4    43    1
    48     4    44    1
    49     9    45    1
    50     9    46    1
    51    10    47    1
    52    10    48    1
    53    11    49    1
    54    14    50    1
    55    18    51    1
    56    18    52    1
    57    19    53    1
    58    19    54    1
    59    21    55    1
    60    21    56    1
    61    22    57    1
    62    22    58    1
    63    26    59    1
    64    27    60    1
    65    29    61    1
    66    29    62    1
    67    30    63    1
    68    31    64    1
    69    34    65    1
    70    34    66    1
    71    35    67    1
    72    35    68    1
