@<TRIPOS>MOLECULE
*****
 18 18 0 0 0
SMALL
GASTEIGER

@<TRIPOS>ATOM
      1 N           2.3623    1.2744   -0.1995 N.pl3   1  UNL1       -0.2497
      2 C           1.5984    0.0920    0.0028 C.2     1  UNL1        0.2662
      3 N           2.1468   -1.0552    0.2254 N.2     1  UNL1       -0.2884
      4 C           0.1495    0.0506   -0.0191 C.ar    1  UNL1        0.0608
      5 C          -0.5579    0.9506   -0.8145 C.ar    1  UNL1       -0.0470
      6 C          -1.9411    0.9108   -0.8352 C.ar    1  UNL1       -0.0610
      7 C          -2.6311   -0.0146   -0.0732 C.ar    1  UNL1       -0.0617
      8 C          -1.9718   -0.9259    0.7301 C.ar    1  UNL1       -0.0610
      9 C          -0.5957   -0.8423    0.7131 C.ar    1  UNL1       -0.0470
     10 H           2.3298    1.4726    0.8265 H       1  UNL1        0.2883
     11 H           2.7868    1.7516   -1.0487 H       1  UNL1        0.2883
     12 H           1.9029   -2.0699    0.4074 H       1  UNL1        0.3009
     13 H           3.0243   -1.6089    0.3453 H       1  UNL1        0.3009
     14 H           0.0224    1.6638   -1.3999 H       1  UNL1        0.0626
     15 H          -2.4898    1.6114   -1.4544 H       1  UNL1        0.0618
     16 H          -3.7149   -0.0556   -0.0810 H       1  UNL1        0.0618
     17 H          -2.4296   -1.6801    1.3553 H       1  UNL1        0.0618
     18 H           0.0088   -1.5252    1.3194 H       1  UNL1        0.0626
@<TRIPOS>UNITY_ATOM_ATTR
3 1
charge 1
@<TRIPOS>BOND
     1     1     2    1
     2     2     3    2
     3     2     4    1
     4     4     5   ar
     5     5     6   ar
     6     6     7   ar
     7     7     8   ar
     8     8     9   ar
     9     9     4   ar
    10     1    10    1
    11     1    11    1
    12     3    12    1
    13     3    13    1
    14     5    14    1
    15     6    15    1
    16     7    16    1
    17     8    17    1
    18     9    18    1
