
     RDKit          3D

 55 59  0  0  0  0  0  0  0  0999 V2000
    8.2531   -1.7703    0.5420 C   0  0  0  0  0  0  0  0  0  0  0  0
    7.0618   -1.3046   -0.1598 N   0  0  0  0  0  0  0  0  0  0  0  0
    6.0372   -0.6183    0.3646 C   0  0  0  0  0  0  0  0  0  0  0  0
    5.1444   -0.3945   -0.6551 C   0  0  0  0  0  0  0  0  0  0  0  0
    3.8612    0.3208   -0.5671 C   0  0  0  0  0  0  0  0  0  0  0  0
    3.4029    1.0093   -1.6552 C   0  0  0  0  0  0  0  0  0  0  0  0
    2.1799    1.6764   -1.5339 C   0  0  0  0  0  0  0  0  0  0  0  0
    1.4638    1.6410   -0.3623 C   0  0  0  0  0  0  0  0  0  0  0  0
    0.2540    2.3336   -0.2627 N   0  0  0  0  0  0  0  0  0  0  0  0
   -1.0184    1.7097   -0.0278 C   0  0  0  0  0  0  0  0  0  0  0  0
   -2.1647    2.3780    0.1847 N   0  0  0  0  0  0  0  0  0  0  0  0
   -3.1830    1.5547    0.3541 N   0  0  0  0  0  0  0  0  0  0  0  0
   -4.4856    2.1115    0.5993 C   0  0  1  0  0  0  0  0  0  0  0  0
   -5.5558    1.1468    0.9048 C   0  0  0  0  0  0  0  0  0  0  0  0
   -6.5529    2.1058    1.5890 C   0  0  0  0  0  0  0  0  0  0  0  0
   -5.7956    3.0028    2.2906 O   0  0  0  0  0  0  0  0  0  0  0  0
   -4.5113    2.9986    1.8277 C   0  0  0  0  0  0  0  0  0  0  0  0
   -2.7197    0.3229    0.2545 C   0  0  0  0  0  0  0  0  0  0  0  0
   -1.3581    0.3846    0.0138 C   0  0  0  0  0  0  0  0  0  0  0  0
   -0.5575   -0.8392   -0.1556 C   0  0  0  0  0  0  0  0  0  0  0  0
   -1.3646   -1.9694   -0.5721 N   0  0  0  0  0  0  0  0  0  0  0  0
   -0.7614   -2.9713   -1.3673 C   0  0  0  0  0  0  0  0  0  0  0  0
   -1.4646   -4.1142   -1.8254 N   0  0  0  0  0  0  0  0  0  0  0  0
    0.4440   -2.8593   -1.6891 O   0  0  0  0  0  0  0  0  0  0  0  0
   -2.7437   -2.1397   -0.2278 C   0  0  0  0  0  0  0  0  0  0  0  0
   -3.4274   -0.9678    0.3607 C   0  0  0  0  0  0  0  0  0  0  0  0
    1.9537    0.9413    0.7079 C   0  0  0  0  0  0  0  0  0  0  0  0
    1.2559    0.9119    1.8667 F   0  0  0  0  0  0  0  0  0  0  0  0
    3.1514    0.2821    0.6040 C   0  0  0  0  0  0  0  0  0  0  0  0
    5.6718   -0.9689   -1.7975 C   0  0  0  0  0  0  0  0  0  0  0  0
    6.8477   -1.5107   -1.4294 N   0  0  0  0  0  0  0  0  0  0  0  0
    8.0371   -1.7923    1.6295 H   0  0  0  0  0  0  0  0  0  0  0  0
    9.1043   -1.0979    0.3390 H   0  0  0  0  0  0  0  0  0  0  0  0
    8.5118   -2.7857    0.2203 H   0  0  0  0  0  0  0  0  0  0  0  0
    5.9516   -0.3071    1.4102 H   0  0  0  0  0  0  0  0  0  0  0  0
    3.9761    1.0251   -2.5604 H   0  0  0  0  0  0  0  0  0  0  0  0
    1.8367    2.2183   -2.4169 H   0  0  0  0  0  0  0  0  0  0  0  0
    0.2820    3.3924   -0.3692 H   0  0  0  0  0  0  0  0  0  0  0  0
   -4.8117    2.7460   -0.2515 H   0  0  0  0  0  0  0  0  0  0  0  0
   -6.1081    0.7664    0.0191 H   0  0  0  0  0  0  0  0  0  0  0  0
   -5.3397    0.3950    1.6684 H   0  0  0  0  0  0  0  0  0  0  0  0
   -7.3014    1.5594    2.1682 H   0  0  0  0  0  0  0  0  0  0  0  0
   -7.0185    2.6783    0.7394 H   0  0  0  0  0  0  0  0  0  0  0  0
   -4.1181    3.9897    1.5223 H   0  0  0  0  0  0  0  0  0  0  0  0
   -3.8264    2.5474    2.5792 H   0  0  0  0  0  0  0  0  0  0  0  0
    0.2401   -0.6852   -0.9269 H   0  0  0  0  0  0  0  0  0  0  0  0
   -0.0354   -1.1514    0.7713 H   0  0  0  0  0  0  0  0  0  0  0  0
   -1.6934   -4.1965   -2.8404 H   0  0  0  0  0  0  0  0  0  0  0  0
   -1.7547   -4.8705   -1.1621 H   0  0  0  0  0  0  0  0  0  0  0  0
   -2.7936   -3.0455    0.4458 H   0  0  0  0  0  0  0  0  0  0  0  0
   -3.2582   -2.4886   -1.1687 H   0  0  0  0  0  0  0  0  0  0  0  0
   -3.5392   -1.1786    1.4659 H   0  0  0  0  0  0  0  0  0  0  0  0
   -4.4190   -0.8778   -0.1355 H   0  0  0  0  0  0  0  0  0  0  0  0
    3.5504   -0.2781    1.4497 H   0  0  0  0  0  0  0  0  0  0  0  0
    5.2091   -0.9662   -2.7732 H   0  0  0  0  0  0  0  0  0  0  0  0
  1  2  1  0
  2  3  1  0
  3  4  2  0
  4  5  1  0
  5  6  2  0
  6  7  1  0
  7  8  2  0
  8  9  1  0
  9 10  1  0
 10 11  2  0
 11 12  1  0
 12 13  1  0
 13 14  1  0
 14 15  1  0
 15 16  1  0
 16 17  1  0
 12 18  1  0
 18 19  2  0
 19 20  1  0
 20 21  1  0
 21 22  1  0
 22 23  1  0
 22 24  2  0
 21 25  1  0
 25 26  1  0
  8 27  1  0
 27 28  1  0
 27 29  2  0
  4 30  1  0
 30 31  2  0
 31  2  1  0
 29  5  1  0
 19 10  1  0
 17 13  1  0
 26 18  1  0
  1 32  1  0
  1 33  1  0
  1 34  1  0
  3 35  1  0
  6 36  1  0
  7 37  1  0
  9 38  1  0
 13 39  1  6
 14 40  1  0
 14 41  1  0
 15 42  1  0
 15 43  1  0
 17 44  1  0
 17 45  1  0
 20 46  1  0
 20 47  1  0
 23 48  1  0
 23 49  1  0
 25 50  1  0
 25 51  1  0
 26 52  1  0
 26 53  1  0
 29 54  1  0
 30 55  1  0
M  END
$$$$
