@<TRIPOS>MOLECULE
*****
 55 59 0 0 0
SMALL
GASTEIGER

@<TRIPOS>ATOM
      1 C           8.2531   -1.7703    0.5420 C.3     1  UNL1        0.0302
      2 N           7.0618   -1.3046   -0.1598 N.ar    1  UNL1       -0.2739
      3 C           6.0372   -0.6183    0.3646 C.ar    1  UNL1        0.0329
      4 C           5.1444   -0.3945   -0.6551 C.ar    1  UNL1        0.0196
      5 C           3.8612    0.3208   -0.5671 C.ar    1  UNL1       -0.0121
      6 C           3.4029    1.0093   -1.6552 C.ar    1  UNL1       -0.0520
      7 C           2.1799    1.6764   -1.5339 C.ar    1  UNL1       -0.0371
      8 C           1.4638    1.6410   -0.3623 C.ar    1  UNL1        0.0681
      9 N           0.2540    2.3336   -0.2627 N.pl3   1  UNL1       -0.2955
     10 C          -1.0184    1.7097   -0.0278 C.ar    1  UNL1        0.1499
     11 N          -2.1647    2.3780    0.1847 N.ar    1  UNL1       -0.1551
     12 N          -3.1830    1.5547    0.3541 N.ar    1  UNL1       -0.2608
     13 C          -4.4856    2.1115    0.5993 C.3     1  UNL1        0.0784
     14 C          -5.5558    1.1468    0.9048 C.3     1  UNL1       -0.0048
     15 C          -6.5529    2.1058    1.5890 C.3     1  UNL1        0.0498
     16 O          -5.7956    3.0028    2.2906 O.3     1  UNL1       -0.3776
     17 C          -4.5113    2.9986    1.8277 C.3     1  UNL1        0.0701
     18 C          -2.7197    0.3229    0.2545 C.ar    1  UNL1        0.0477
     19 C          -1.3581    0.3846    0.0138 C.ar    1  UNL1        0.0325
     20 C          -0.5575   -0.8392   -0.1556 C.3     1  UNL1        0.0462
     21 N          -1.3646   -1.9694   -0.5721 N.am    1  UNL1       -0.2810
     22 C          -0.7614   -2.9713   -1.3673 C.2     1  UNL1        0.2999
     23 N          -1.4646   -4.1142   -1.8254 N.am    1  UNL1       -0.3132
     24 O           0.4440   -2.8593   -1.6891 O.2     1  UNL1       -0.2529
     25 C          -2.7437   -2.1397   -0.2278 C.3     1  UNL1        0.0219
     26 C          -3.4274   -0.9678    0.3607 C.3     1  UNL1        0.0056
     27 C           1.9537    0.9413    0.7079 C.ar    1  UNL1        0.1450
     28 F           1.2559    0.9119    1.8667 F       1  UNL1       -0.2035
     29 C           3.1514    0.2821    0.6040 C.ar    1  UNL1       -0.0168
     30 C           5.6718   -0.9689   -1.7975 C.ar    1  UNL1        0.0571
     31 N           6.8477   -1.5107   -1.4294 N.ar    1  UNL1       -0.1793
     32 H           8.0371   -1.7923    1.6295 H       1  UNL1        0.0473
     33 H           9.1043   -1.0979    0.3390 H       1  UNL1        0.0473
     34 H           8.5118   -2.7857    0.2203 H       1  UNL1        0.0473
     35 H           5.9516   -0.3071    1.4102 H       1  UNL1        0.0832
     36 H           3.9761    1.0251   -2.5604 H       1  UNL1        0.0624
     37 H           1.8367    2.2183   -2.4169 H       1  UNL1        0.0637
     38 H           0.2820    3.3924   -0.3692 H       1  UNL1        0.1537
     39 H          -4.8117    2.7460   -0.2515 H       1  UNL1        0.0568
     40 H          -6.1081    0.7664    0.0191 H       1  UNL1        0.0309
     41 H          -5.3397    0.3950    1.6684 H       1  UNL1        0.0309
     42 H          -7.3014    1.5594    2.1682 H       1  UNL1        0.0560
     43 H          -7.0185    2.6783    0.7394 H       1  UNL1        0.0560
     44 H          -4.1181    3.9897    1.5223 H       1  UNL1        0.0581
     45 H          -3.8264    2.5474    2.5792 H       1  UNL1        0.0581
     46 H           0.2401   -0.6852   -0.9269 H       1  UNL1        0.0516
     47 H          -0.0354   -1.1514    0.7713 H       1  UNL1        0.0516
     48 H          -1.6934   -4.1965   -2.8404 H       1  UNL1        0.1465
     49 H          -1.7547   -4.8705   -1.1621 H       1  UNL1        0.1465
     50 H          -2.7936   -3.0455    0.4458 H       1  UNL1        0.0469
     51 H          -3.2582   -2.4886   -1.1687 H       1  UNL1        0.0469
     52 H          -3.5392   -1.1786    1.4659 H       1  UNL1        0.0343
     53 H          -4.4190   -0.8778   -0.1355 H       1  UNL1        0.0343
     54 H           3.5504   -0.2781    1.4497 H       1  UNL1        0.0653
     55 H           5.2091   -0.9662   -2.7732 H       1  UNL1        0.0854
@<TRIPOS>BOND
     1     1     2    1
     2     2     3   ar
     3     3     4   ar
     4     4     5    1
     5     5     6   ar
     6     6     7   ar
     7     7     8   ar
     8     8     9    1
     9     9    10    1
    10    10    11   ar
    11    11    12   ar
    12    12    13    1
    13    13    14    1
    14    14    15    1
    15    15    16    1
    16    16    17    1
    17    12    18   ar
    18    18    19   ar
    19    19    20    1
    20    20    21    1
    21    21    22   am
    22    22    23   am
    23    22    24    2
    24    21    25    1
    25    25    26    1
    26     8    27   ar
    27    27    28    1
    28    27    29   ar
    29     4    30   ar
    30    30    31   ar
    31    31     2   ar
    32    29     5   ar
    33    19    10   ar
    34    17    13    1
    35    26    18    1
    36     1    32    1
    37     1    33    1
    38     1    34    1
    39     3    35    1
    40     6    36    1
    41     7    37    1
    42     9    38    1
    43    13    39    1
    44    14    40    1
    45    14    41    1
    46    15    42    1
    47    15    43    1
    48    17    44    1
    49    17    45    1
    50    20    46    1
    51    20    47    1
    52    23    48    1
    53    23    49    1
    54    25    50    1
    55    25    51    1
    56    26    52    1
    57    26    53    1
    58    29    54    1
    59    30    55    1
