@<TRIPOS>MOLECULE
*****
 74 80 0 0 0
SMALL
GASTEIGER

@<TRIPOS>ATOM
      1 C          -6.5468    2.8822   -0.0027 C.3     1  UNL1       -0.0380
      2 C          -7.2427    1.6510   -0.4597 C.ar    1  UNL1       -0.0279
      3 C          -8.5371    1.3683   -0.1206 C.ar    1  UNL1       -0.0557
      4 C          -9.1317    0.2026   -0.5788 C.ar    1  UNL1       -0.0433
      5 C          -8.3722   -0.6308   -1.3700 C.ar    1  UNL1        0.0279
      6 N          -7.0996   -0.3293   -1.6895 N.ar    1  UNL1       -0.2583
      7 C          -6.5136    0.7824   -1.2600 C.ar    1  UNL1        0.0581
      8 C          -5.1066    1.0746   -1.6371 C.3     1  UNL1        0.0415
      9 N          -4.2046    0.8219   -0.5307 N.3     1  UNL1       -0.2965
     10 C          -2.8534    1.1222   -0.9425 C.3     1  UNL1        0.0017
     11 C          -1.9664    0.8140    0.2696 C.3     1  UNL1       -0.0095
     12 C          -1.8746   -0.7127    0.3188 C.3     1  UNL1        0.1240
     13 C          -3.0936   -1.3591   -0.2560 C.3     1  UNL1       -0.0095
     14 C          -4.3377   -0.5222   -0.0180 C.3     1  UNL1        0.0017
     15 C          -0.6220   -1.0687   -0.3983 C.2     1  UNL1        0.2516
     16 O          -0.4736   -1.4600   -1.5975 O.2     1  UNL1       -0.2724
     17 N           0.4456   -0.8869    0.5381 N.am    1  UNL1       -0.1920
     18 C           1.8281   -0.6847    0.2680 C.ar    1  UNL1        0.0455
     19 C           2.7392   -1.7123    0.1451 C.ar    1  UNL1       -0.0392
     20 C           4.0806   -1.4848   -0.1178 C.ar    1  UNL1       -0.0523
     21 C           4.5501   -0.1991   -0.2665 C.ar    1  UNL1       -0.0178
     22 C           5.9586    0.1201   -0.5467 C.ar    1  UNL1       -0.0178
     23 C           6.2633    1.2541   -1.2970 C.ar    1  UNL1       -0.0534
     24 C           7.5801    1.5534   -1.5591 C.ar    1  UNL1       -0.0519
     25 C           8.6306    0.7697   -1.1061 C.ar    1  UNL1        0.0021
     26 C          10.0169    1.0924   -1.3857 C.ar    1  UNL1        0.0925
     27 C          10.4590    2.1701   -2.1048 C.ar    1  UNL1       -0.0165
     28 C          11.8539    2.0738   -2.1139 C.ar    1  UNL1        0.0229
     29 N          12.1904    0.9674   -1.4160 N.ar    1  UNL1       -0.2842
     30 N          11.0800    0.3848   -0.9826 N.ar    1  UNL1       -0.1739
     31 C           8.3136   -0.3480   -0.3659 C.ar    1  UNL1       -0.0519
     32 C           7.0012   -0.6571   -0.0976 C.ar    1  UNL1       -0.0534
     33 C           3.6508    0.8408   -0.1464 C.ar    1  UNL1       -0.0523
     34 C           2.3025    0.6044    0.1182 C.ar    1  UNL1       -0.0392
     35 C          -0.1755   -0.9498    1.8172 C.2     1  UNL1        0.3219
     36 O           0.4184   -0.8347    2.9382 O.2     1  UNL1       -0.2512
     37 N          -1.5773   -1.1628    1.6671 N.am    1  UNL1       -0.2240
     38 C          -2.4634   -1.6990    2.6416 C.ar    1  UNL1        0.1364
     39 C          -2.6868   -3.0576    2.7108 C.ar    1  UNL1        0.0432
     40 C          -3.5414   -3.6051    3.6443 C.ar    1  UNL1        0.2531
     41 O          -3.7387   -4.8402    3.7001 O.2     1  UNL1       -0.2678
     42 N          -4.1920   -2.8092    4.5298 N.ar    1  UNL1       -0.3133
     43 C          -3.9654   -1.4898    4.4513 C.ar    1  UNL1        0.0981
     44 N          -3.1240   -0.9389    3.5337 N.ar    1  UNL1       -0.2220
     45 H          -5.6389    2.5942    0.5840 H       1  UNL1        0.0278
     46 H          -6.2975    3.4898   -0.8975 H       1  UNL1        0.0278
     47 H          -7.2049    3.4305    0.6984 H       1  UNL1        0.0278
     48 H          -9.1054    2.0606    0.5125 H       1  UNL1        0.0621
     49 H         -10.1564   -0.0155   -0.3071 H       1  UNL1        0.0633
     50 H          -8.7809   -1.5488   -1.7543 H       1  UNL1        0.0829
     51 H          -5.0506    2.1495   -1.8935 H       1  UNL1        0.0491
     52 H          -4.8413    0.4936   -2.5254 H       1  UNL1        0.0491
     53 H          -2.7948    2.1797   -1.2289 H       1  UNL1        0.0427
     54 H          -2.5363    0.4202   -1.7406 H       1  UNL1        0.0427
     55 H          -2.3956    1.2289    1.1884 H       1  UNL1        0.0303
     56 H          -0.9826    1.2715    0.0718 H       1  UNL1        0.0303
     57 H          -3.0234   -1.5210   -1.3518 H       1  UNL1        0.0303
     58 H          -3.3065   -2.3560    0.1855 H       1  UNL1        0.0303
     59 H          -5.2174   -1.0593   -0.4157 H       1  UNL1        0.0427
     60 H          -4.4735   -0.4583    1.0835 H       1  UNL1        0.0427
     61 H           2.3771   -2.7309    0.2610 H       1  UNL1        0.0636
     62 H           4.7912   -2.2929   -0.2133 H       1  UNL1        0.0624
     63 H           5.4670    1.8982   -1.6732 H       1  UNL1        0.0624
     64 H           7.8280    2.4327   -2.1411 H       1  UNL1        0.0624
     65 H           9.8310    2.9174   -2.5558 H       1  UNL1        0.0654
     66 H          12.4980    2.7721   -2.5984 H       1  UNL1        0.0824
     67 H          13.1381    0.5936   -1.2230 H       1  UNL1        0.1882
     68 H           9.1175   -0.9865    0.0058 H       1  UNL1        0.0624
     69 H           6.7626   -1.5335    0.4822 H       1  UNL1        0.0624
     70 H           3.9980    1.8595   -0.2595 H       1  UNL1        0.0624
     71 H           1.5941    1.4231    0.2128 H       1  UNL1        0.0636
     72 H          -2.1910   -3.7298    2.0269 H       1  UNL1        0.0706
     73 H          -4.8406   -3.2295    5.2379 H       1  UNL1        0.1698
     74 H          -4.4870   -0.8606    5.1600 H       1  UNL1        0.1028
@<TRIPOS>BOND
     1     1     2    1
     2     2     3   ar
     3     3     4   ar
     4     4     5   ar
     5     5     6   ar
     6     6     7   ar
     7     7     8    1
     8     8     9    1
     9     9    10    1
    10    10    11    1
    11    11    12    1
    12    12    13    1
    13    13    14    1
    14    12    15    1
    15    15    16    2
    16    15    17   am
    17    17    18    1
    18    18    19   ar
    19    19    20   ar
    20    20    21   ar
    21    21    22    1
    22    22    23   ar
    23    23    24   ar
    24    24    25   ar
    25    25    26    1
    26    26    27   ar
    27    27    28   ar
    28    28    29   ar
    29    29    30   ar
    30    25    31   ar
    31    31    32   ar
    32    21    33   ar
    33    33    34   ar
    34    17    35   am
    35    35    36    2
    36    35    37   am
    37    37    38    1
    38    38    39   ar
    39    39    40   ar
    40    40    41    2
    41    40    42   ar
    42    42    43   ar
    43    43    44   ar
    44     7     2   ar
    45    14     9    1
    46    34    18   ar
    47    44    38   ar
    48    37    12    1
    49    32    22   ar
    50    30    26   ar
    51     1    45    1
    52     1    46    1
    53     1    47    1
    54     3    48    1
    55     4    49    1
    56     5    50    1
    57     8    51    1
    58     8    52    1
    59    10    53    1
    60    10    54    1
    61    11    55    1
    62    11    56    1
    63    13    57    1
    64    13    58    1
    65    14    59    1
    66    14    60    1
    67    19    61    1
    68    20    62    1
    69    23    63    1
    70    24    64    1
    71    27    65    1
    72    28    66    1
    73    29    67    1
    74    31    68    1
    75    32    69    1
    76    33    70    1
    77    34    71    1
    78    39    72    1
    79    42    73    1
    80    43    74    1
