
     RDKit          3D

 74 80  0  0  0  0  0  0  0  0999 V2000
   -6.5468    2.8822   -0.0027 C   0  0  0  0  0  0  0  0  0  0  0  0
   -7.2427    1.6510   -0.4597 C   0  0  0  0  0  0  0  0  0  0  0  0
   -8.5371    1.3683   -0.1206 C   0  0  0  0  0  0  0  0  0  0  0  0
   -9.1317    0.2026   -0.5788 C   0  0  0  0  0  0  0  0  0  0  0  0
   -8.3722   -0.6308   -1.3700 C   0  0  0  0  0  0  0  0  0  0  0  0
   -7.0996   -0.3293   -1.6895 N   0  0  0  0  0  0  0  0  0  0  0  0
   -6.5136    0.7824   -1.2600 C   0  0  0  0  0  0  0  0  0  0  0  0
   -5.1066    1.0746   -1.6371 C   0  0  0  0  0  0  0  0  0  0  0  0
   -4.2046    0.8219   -0.5307 N   0  0  0  0  0  0  0  0  0  0  0  0
   -2.8534    1.1222   -0.9425 C   0  0  0  0  0  0  0  0  0  0  0  0
   -1.9664    0.8140    0.2696 C   0  0  0  0  0  0  0  0  0  0  0  0
   -1.8746   -0.7127    0.3188 C   0  0  0  0  0  0  0  0  0  0  0  0
   -3.0936   -1.3591   -0.2560 C   0  0  0  0  0  0  0  0  0  0  0  0
   -4.3377   -0.5222   -0.0180 C   0  0  0  0  0  0  0  0  0  0  0  0
   -0.6220   -1.0687   -0.3983 C   0  0  0  0  0  0  0  0  0  0  0  0
   -0.4736   -1.4600   -1.5975 O   0  0  0  0  0  0  0  0  0  0  0  0
    0.4456   -0.8869    0.5381 N   0  0  0  0  0  0  0  0  0  0  0  0
    1.8281   -0.6847    0.2680 C   0  0  0  0  0  0  0  0  0  0  0  0
    2.7392   -1.7123    0.1451 C   0  0  0  0  0  0  0  0  0  0  0  0
    4.0806   -1.4848   -0.1178 C   0  0  0  0  0  0  0  0  0  0  0  0
    4.5501   -0.1991   -0.2665 C   0  0  0  0  0  0  0  0  0  0  0  0
    5.9586    0.1201   -0.5467 C   0  0  0  0  0  0  0  0  0  0  0  0
    6.2633    1.2541   -1.2970 C   0  0  0  0  0  0  0  0  0  0  0  0
    7.5801    1.5534   -1.5591 C   0  0  0  0  0  0  0  0  0  0  0  0
    8.6306    0.7697   -1.1061 C   0  0  0  0  0  0  0  0  0  0  0  0
   10.0169    1.0924   -1.3857 C   0  0  0  0  0  0  0  0  0  0  0  0
   10.4590    2.1701   -2.1048 C   0  0  0  0  0  0  0  0  0  0  0  0
   11.8539    2.0738   -2.1139 C   0  0  0  0  0  0  0  0  0  0  0  0
   12.1904    0.9674   -1.4160 N   0  0  0  0  0  0  0  0  0  0  0  0
   11.0800    0.3848   -0.9826 N   0  0  0  0  0  0  0  0  0  0  0  0
    8.3136   -0.3480   -0.3659 C   0  0  0  0  0  0  0  0  0  0  0  0
    7.0012   -0.6571   -0.0976 C   0  0  0  0  0  0  0  0  0  0  0  0
    3.6508    0.8408   -0.1464 C   0  0  0  0  0  0  0  0  0  0  0  0
    2.3025    0.6044    0.1182 C   0  0  0  0  0  0  0  0  0  0  0  0
   -0.1755   -0.9498    1.8172 C   0  0  0  0  0  0  0  0  0  0  0  0
    0.4184   -0.8347    2.9382 O   0  0  0  0  0  0  0  0  0  0  0  0
   -1.5773   -1.1628    1.6671 N   0  0  0  0  0  0  0  0  0  0  0  0
   -2.4634   -1.6990    2.6416 C   0  0  0  0  0  0  0  0  0  0  0  0
   -2.6868   -3.0576    2.7108 C   0  0  0  0  0  0  0  0  0  0  0  0
   -3.5414   -3.6051    3.6443 C   0  0  0  0  0  0  0  0  0  0  0  0
   -3.7387   -4.8402    3.7001 O   0  0  0  0  0  0  0  0  0  0  0  0
   -4.1920   -2.8092    4.5298 N   0  0  0  0  0  0  0  0  0  0  0  0
   -3.9654   -1.4898    4.4513 C   0  0  0  0  0  0  0  0  0  0  0  0
   -3.1240   -0.9389    3.5337 N   0  0  0  0  0  0  0  0  0  0  0  0
   -5.6389    2.5942    0.5840 H   0  0  0  0  0  0  0  0  0  0  0  0
   -6.2975    3.4898   -0.8975 H   0  0  0  0  0  0  0  0  0  0  0  0
   -7.2049    3.4305    0.6984 H   0  0  0  0  0  0  0  0  0  0  0  0
   -9.1054    2.0606    0.5125 H   0  0  0  0  0  0  0  0  0  0  0  0
  -10.1564   -0.0155   -0.3071 H   0  0  0  0  0  0  0  0  0  0  0  0
   -8.7809   -1.5488   -1.7543 H   0  0  0  0  0  0  0  0  0  0  0  0
   -5.0506    2.1495   -1.8935 H   0  0  0  0  0  0  0  0  0  0  0  0
   -4.8413    0.4936   -2.5254 H   0  0  0  0  0  0  0  0  0  0  0  0
   -2.7948    2.1797   -1.2289 H   0  0  0  0  0  0  0  0  0  0  0  0
   -2.5363    0.4202   -1.7406 H   0  0  0  0  0  0  0  0  0  0  0  0
   -2.3956    1.2289    1.1884 H   0  0  0  0  0  0  0  0  0  0  0  0
   -0.9826    1.2715    0.0718 H   0  0  0  0  0  0  0  0  0  0  0  0
   -3.0234   -1.5210   -1.3518 H   0  0  0  0  0  0  0  0  0  0  0  0
   -3.3065   -2.3560    0.1855 H   0  0  0  0  0  0  0  0  0  0  0  0
   -5.2174   -1.0593   -0.4157 H   0  0  0  0  0  0  0  0  0  0  0  0
   -4.4735   -0.4583    1.0835 H   0  0  0  0  0  0  0  0  0  0  0  0
    2.3771   -2.7309    0.2610 H   0  0  0  0  0  0  0  0  0  0  0  0
    4.7912   -2.2929   -0.2133 H   0  0  0  0  0  0  0  0  0  0  0  0
    5.4670    1.8982   -1.6732 H   0  0  0  0  0  0  0  0  0  0  0  0
    7.8280    2.4327   -2.1411 H   0  0  0  0  0  0  0  0  0  0  0  0
    9.8310    2.9174   -2.5558 H   0  0  0  0  0  0  0  0  0  0  0  0
   12.4980    2.7721   -2.5984 H   0  0  0  0  0  0  0  0  0  0  0  0
   13.1381    0.5936   -1.2230 H   0  0  0  0  0  0  0  0  0  0  0  0
    9.1175   -0.9865    0.0058 H   0  0  0  0  0  0  0  0  0  0  0  0
    6.7626   -1.5335    0.4822 H   0  0  0  0  0  0  0  0  0  0  0  0
    3.9980    1.8595   -0.2595 H   0  0  0  0  0  0  0  0  0  0  0  0
    1.5941    1.4231    0.2128 H   0  0  0  0  0  0  0  0  0  0  0  0
   -2.1910   -3.7298    2.0269 H   0  0  0  0  0  0  0  0  0  0  0  0
   -4.8406   -3.2295    5.2379 H   0  0  0  0  0  0  0  0  0  0  0  0
   -4.4870   -0.8606    5.1600 H   0  0  0  0  0  0  0  0  0  0  0  0
  1  2  1  0
  2  3  2  0
  3  4  1  0
  4  5  2  0
  5  6  1  0
  6  7  2  0
  7  8  1  0
  8  9  1  0
  9 10  1  0
 10 11  1  0
 11 12  1  0
 12 13  1  0
 13 14  1  0
 12 15  1  0
 15 16  2  0
 15 17  1  0
 17 18  1  0
 18 19  2  0
 19 20  1  0
 20 21  2  0
 21 22  1  0
 22 23  2  0
 23 24  1  0
 24 25  2  0
 25 26  1  0
 26 27  1  0
 27 28  2  0
 28 29  1  0
 29 30  1  0
 25 31  1  0
 31 32  2  0
 21 33  1  0
 33 34  2  0
 17 35  1  0
 35 36  2  0
 35 37  1  0
 37 38  1  0
 38 39  2  0
 39 40  1  0
 40 41  2  0
 40 42  1  0
 42 43  1  0
 43 44  2  0
  7  2  1  0
 14  9  1  0
 34 18  1  0
 44 38  1  0
 37 12  1  0
 32 22  1  0
 30 26  2  0
  1 45  1  0
  1 46  1  0
  1 47  1  0
  3 48  1  0
  4 49  1  0
  5 50  1  0
  8 51  1  0
  8 52  1  0
 10 53  1  0
 10 54  1  0
 11 55  1  0
 11 56  1  0
 13 57  1  0
 13 58  1  0
 14 59  1  0
 14 60  1  0
 19 61  1  0
 20 62  1  0
 23 63  1  0
 24 64  1  0
 27 65  1  0
 28 66  1  0
 29 67  1  0
 31 68  1  0
 32 69  1  0
 33 70  1  0
 34 71  1  0
 39 72  1  0
 42 73  1  0
 43 74  1  0
M  END
$$$$
