@<TRIPOS>MOLECULE
*****
 56 56 0 0 0
SMALL
GASTEIGER

@<TRIPOS>ATOM
      1 C          -0.6924    3.4778    0.9495 C.3     1  UNL1        0.1119
      2 C           0.1420    3.5162    2.2367 C.3     1  UNL1       -0.0355
      3 N          -0.5144    2.1818    0.3835 N.2     1  UNL1       -0.2421
      4 C          -1.4613    1.3448    0.3142 C.2     1  UNL1        0.2087
      5 O          -2.6818    1.7569    0.8200 O.2     1  UNL1       -0.4942
      6 C          -1.2135   -0.0072   -0.2947 C.3     1  UNL1        0.1323
      7 C          -1.5042   -1.0922    0.7292 C.3     1  UNL1       -0.0205
      8 C          -1.2672   -2.4699    0.1637 C.3     1  UNL1       -0.0380
      9 C          -2.1413   -2.7418   -1.0202 C.3     1  UNL1       -0.0015
     10 N          -3.5412   -2.6760   -0.8217 N.3     1  UNL1       -0.2894
     11 C          -4.0320   -3.7408   -0.0090 C.3     1  UNL1        0.1084
     12 N          -5.4990   -3.6867    0.0075 N.3     1  UNL1       -0.3034
     13 N          -3.5447   -3.5998    1.3598 N.3     1  UNL1       -0.3034
     14 N           0.1771   -0.1614   -0.6514 N.2     1  UNL1       -0.2037
     15 C           0.6007    0.4070   -1.7243 C.2     1  UNL1        0.3844
     16 O          -0.2245    1.1706   -2.5660 O.2     1  UNL1       -0.4658
     17 O           1.9267    0.0548   -1.7440 O.2     1  UNL1       -0.4452
     18 C           2.7839    0.4135   -0.6994 C.3     1  UNL1        0.1193
     19 C           4.1150   -0.2706   -0.8869 C.ar    1  UNL1       -0.0102
     20 C           4.2989   -1.5253   -0.3098 C.ar    1  UNL1       -0.0554
     21 C           5.4776   -2.2304   -0.4245 C.ar    1  UNL1       -0.0614
     22 C           6.4764   -1.6337   -1.1426 C.ar    1  UNL1       -0.0617
     23 C           6.3411   -0.3825   -1.7380 C.ar    1  UNL1       -0.0614
     24 C           5.1561    0.2813   -1.5990 C.ar    1  UNL1       -0.0554
     25 C          -0.1531    4.5654    0.0820 C.2     1  UNL1        0.1878
     26 O           0.3592    4.2528   -0.9876 O.2     1  UNL1       -0.2924
     27 C          -0.2601    5.9750    0.5493 C.3     1  UNL1        0.1501
     28 F          -1.4557    6.5572    0.1318 F       1  UNL1       -0.2409
     29 H          -1.7451    3.7640    1.1482 H       1  UNL1        0.0622
     30 H           1.1731    3.8167    1.9492 H       1  UNL1        0.0254
     31 H           0.1932    2.4995    2.6670 H       1  UNL1        0.0254
     32 H          -0.3530    4.2334    2.9097 H       1  UNL1        0.0254
     33 H          -2.7673    2.1366    1.7769 H       1  UNL1        0.2935
     34 H          -1.8911   -0.1283   -1.1490 H       1  UNL1        0.0644
     35 H          -0.9351   -0.9392    1.6649 H       1  UNL1        0.0291
     36 H          -2.5773   -1.0100    0.9935 H       1  UNL1        0.0291
     37 H          -0.1854   -2.5484   -0.1803 H       1  UNL1        0.0278
     38 H          -1.3351   -3.2066    0.9744 H       1  UNL1        0.0278
     39 H          -1.8972   -2.0305   -1.8699 H       1  UNL1        0.0425
     40 H          -1.8610   -3.7541   -1.4500 H       1  UNL1        0.0425
     41 H          -3.8215   -1.7563   -0.4397 H       1  UNL1        0.1246
     42 H          -3.6732   -4.7124   -0.3839 H       1  UNL1        0.0800
     43 H          -5.8057   -3.4828   -0.9707 H       1  UNL1        0.1209
     44 H          -5.8881   -4.6335    0.2345 H       1  UNL1        0.1209
     45 H          -4.2425   -3.0974    1.9484 H       1  UNL1        0.1209
     46 H          -3.2181   -4.4972    1.7552 H       1  UNL1        0.1209
     47 H          -1.1825    1.3433   -2.3377 H       1  UNL1        0.2969
     48 H           2.9637    1.5088   -0.6309 H       1  UNL1        0.0749
     49 H           2.3958    0.0619    0.2752 H       1  UNL1        0.0749
     50 H           3.4795   -1.9709    0.2566 H       1  UNL1        0.0621
     51 H           5.6311   -3.2033    0.0189 H       1  UNL1        0.0618
     52 H           7.4123   -2.1592   -1.2511 H       1  UNL1        0.0618
     53 H           7.1175    0.1016   -2.3079 H       1  UNL1        0.0618
     54 H           4.9564    1.2613   -2.0261 H       1  UNL1        0.0621
     55 H           0.5882    6.5876    0.1327 H       1  UNL1        0.0696
     56 H          -0.1999    6.0786    1.6324 H       1  UNL1        0.0696
@<TRIPOS>BOND
     1     1     2    1
     2     1     3    1
     3     3     4    2
     4     4     5    1
     5     4     6    1
     6     6     7    1
     7     7     8    1
     8     8     9    1
     9     9    10    1
    10    10    11    1
    11    11    12    1
    12    11    13    1
    13     6    14    1
    14    14    15    2
    15    15    16    1
    16    15    17    1
    17    17    18    1
    18    18    19    1
    19    19    20   ar
    20    20    21   ar
    21    21    22   ar
    22    22    23   ar
    23    23    24   ar
    24     1    25    1
    25    25    26    2
    26    25    27    1
    27    27    28    1
    28    24    19   ar
    29     1    29    1
    30     2    30    1
    31     2    31    1
    32     2    32    1
    33     5    33    1
    34     6    34    1
    35     7    35    1
    36     7    36    1
    37     8    37    1
    38     8    38    1
    39     9    39    1
    40     9    40    1
    41    10    41    1
    42    11    42    1
    43    12    43    1
    44    12    44    1
    45    13    45    1
    46    13    46    1
    47    16    47    1
    48    18    48    1
    49    18    49    1
    50    20    50    1
    51    21    51    1
    52    22    52    1
    53    23    53    1
    54    24    54    1
    55    27    55    1
    56    27    56    1
