@<TRIPOS>MOLECULE
*****
 83 88 0 0 0
SMALL
GASTEIGER

@<TRIPOS>ATOM
      1 C          -7.2359    1.1656    0.0607 C.3     1  UNL1        0.0036
      2 N          -6.6232   -0.0498    0.6178 N.am    1  UNL1       -0.2984
      3 C          -7.4225   -0.9503    1.4170 C.3     1  UNL1        0.0395
      4 C          -8.0838   -2.0224    0.6455 C.ar    1  UNL1       -0.0301
      5 C          -7.4891   -3.2520    0.4550 C.ar    1  UNL1       -0.0571
      6 C          -8.1114   -4.2446   -0.2643 C.ar    1  UNL1       -0.0615
      7 C          -9.3712   -3.9804   -0.8041 C.ar    1  UNL1       -0.0617
      8 C          -9.9908   -2.7646   -0.6316 C.ar    1  UNL1       -0.0615
      9 C          -9.3408   -1.7949    0.0923 C.ar    1  UNL1       -0.0571
     10 C          -5.2536   -0.2854    0.3641 C.2     1  UNL1        0.2405
     11 O          -4.7561   -1.3507    0.8592 O.2     1  UNL1       -0.2732
     12 C          -4.4222    0.6353   -0.4206 C.3     1  UNL1        0.1254
     13 N          -3.0238    0.3055   -0.4382 N.am    1  UNL1       -0.2951
     14 C          -2.1247    0.9426    0.4339 C.2     1  UNL1        0.2614
     15 O          -2.6565    1.7946    1.2345 O.2     1  UNL1       -0.2686
     16 C          -0.6857    0.7031    0.4827 C.ar    1  UNL1        0.1052
     17 C           0.1560    1.0986    1.5385 C.ar    1  UNL1       -0.0239
     18 C           1.4622    0.7687    1.2392 C.ar    1  UNL1        0.0023
     19 C           2.6671    0.9391    1.9194 C.ar    1  UNL1       -0.0313
     20 C           3.8459    0.5116    1.3569 C.ar    1  UNL1        0.0344
     21 N           5.1057    0.6233    2.0073 N.am    1  UNL1       -0.2815
     22 C           5.8719    1.8081    2.0227 C.2     1  UNL1        0.2488
     23 O           5.4586    2.8564    1.4609 O.2     1  UNL1       -0.2698
     24 C           7.1640    1.8435    2.6900 C.ar    1  UNL1        0.0447
     25 C           7.3257    2.5948    3.8415 C.ar    1  UNL1       -0.0490
     26 C           8.5337    2.6323    4.5006 C.ar    1  UNL1       -0.0610
     27 C           9.6364    1.9141    4.0315 C.ar    1  UNL1       -0.0611
     28 C           9.4639    1.1722    2.8876 C.ar    1  UNL1       -0.0533
     29 C           8.2531    1.1365    2.2282 C.ar    1  UNL1       -0.0058
     30 C           8.0796    0.3575    0.9893 C.ar    1  UNL1       -0.0171
     31 C           8.4040   -0.9839    0.9565 C.ar    1  UNL1       -0.0535
     32 C           8.2459   -1.7156   -0.2149 C.ar    1  UNL1       -0.0495
     33 C           7.7676   -1.1460   -1.3729 C.ar    1  UNL1        0.0548
     34 C           7.6046   -1.9614   -2.6265 C.3     1  UNL1        0.4174
     35 F           6.4561   -2.7203   -2.4064 F       1  UNL1       -0.1659
     36 F           8.6849   -2.8142   -2.6981 F       1  UNL1       -0.1659
     37 F           7.5093   -1.1617   -3.7320 F       1  UNL1       -0.1659
     38 C           7.4438    0.1941   -1.3412 C.ar    1  UNL1       -0.0495
     39 C           7.6012    0.9346   -0.1666 C.ar    1  UNL1       -0.0535
     40 C           3.7583   -0.0876    0.0951 C.ar    1  UNL1       -0.0385
     41 C           2.5679   -0.2534   -0.5677 C.ar    1  UNL1       -0.0358
     42 C           1.3974    0.1755    0.0011 C.ar    1  UNL1        0.0495
     43 N           0.0967    0.1460   -0.4342 N.ar    1  UNL1       -0.3393
     44 C          -0.2824   -0.4296   -1.7291 C.3     1  UNL1        0.0126
     45 C          -4.8220    0.8245   -1.8206 C.ar    1  UNL1       -0.0184
     46 C          -4.1101    1.7991   -2.5288 C.ar    1  UNL1       -0.0563
     47 C          -4.3764    2.0509   -3.8548 C.ar    1  UNL1       -0.0614
     48 C          -5.3623    1.3360   -4.5136 C.ar    1  UNL1       -0.0617
     49 C          -6.0835    0.3603   -3.8271 C.ar    1  UNL1       -0.0614
     50 C          -5.7756    0.1546   -2.5137 C.ar    1  UNL1       -0.0563
     51 H          -7.7592    1.7028    0.8873 H       1  UNL1        0.0429
     52 H          -6.4981    1.8728   -0.3374 H       1  UNL1        0.0429
     53 H          -7.9205    0.8638   -0.7375 H       1  UNL1        0.0429
     54 H          -8.1818   -0.3516    2.0019 H       1  UNL1        0.0514
     55 H          -6.7771   -1.4056    2.2188 H       1  UNL1        0.0514
     56 H          -6.5110   -3.4531    0.8766 H       1  UNL1        0.0621
     57 H          -7.6566   -5.2071   -0.4195 H       1  UNL1        0.0618
     58 H          -9.8543   -4.7671   -1.3679 H       1  UNL1        0.0618
     59 H         -10.9615   -2.6069   -1.0630 H       1  UNL1        0.0618
     60 H          -9.8230   -0.8240    0.2339 H       1  UNL1        0.0621
     61 H          -4.5149    1.6396    0.0930 H       1  UNL1        0.0646
     62 H          -2.7289   -0.4212   -1.1105 H       1  UNL1        0.1501
     63 H          -0.1785    1.5845    2.4402 H       1  UNL1        0.0646
     64 H           2.6617    1.4107    2.8951 H       1  UNL1        0.0643
     65 H           5.4760   -0.2177    2.4931 H       1  UNL1        0.1551
     66 H           6.4627    3.1557    4.2090 H       1  UNL1        0.0625
     67 H           8.6543    3.2251    5.4085 H       1  UNL1        0.0618
     68 H          10.5695    1.9666    4.5746 H       1  UNL1        0.0618
     69 H          10.3017    0.6118    2.5110 H       1  UNL1        0.0624
     70 H           8.7890   -1.4504    1.8786 H       1  UNL1        0.0624
     71 H           8.5027   -2.7756   -0.2385 H       1  UNL1        0.0623
     72 H           7.0648    0.6594   -2.2392 H       1  UNL1        0.0623
     73 H           7.3519    1.9824   -0.1888 H       1  UNL1        0.0624
     74 H           4.7018   -0.4262   -0.3547 H       1  UNL1        0.0637
     75 H           2.5255   -0.7259   -1.5508 H       1  UNL1        0.0639
     76 H          -0.8861    0.2755   -2.2999 H       1  UNL1        0.0456
     77 H           0.6628   -0.5497   -2.3544 H       1  UNL1        0.0456
     78 H          -0.6629   -1.4469   -1.6171 H       1  UNL1        0.0456
     79 H          -3.3246    2.3989   -2.0832 H       1  UNL1        0.0621
     80 H          -3.8469    2.7959   -4.4335 H       1  UNL1        0.0618
     81 H          -5.6009    1.5034   -5.5532 H       1  UNL1        0.0618
     82 H          -6.8640   -0.2243   -4.3018 H       1  UNL1        0.0618
     83 H          -6.3318   -0.6053   -1.9924 H       1  UNL1        0.0621
@<TRIPOS>BOND
     1     1     2    1
     2     2     3    1
     3     3     4    1
     4     4     5   ar
     5     5     6   ar
     6     6     7   ar
     7     7     8   ar
     8     8     9   ar
     9     2    10   am
    10    10    11    2
    11    10    12    1
    12    12    13    1
    13    13    14   am
    14    14    15    2
    15    14    16    1
    16    16    17   ar
    17    17    18   ar
    18    18    19   ar
    19    19    20   ar
    20    20    21    1
    21    21    22   am
    22    22    23    2
    23    22    24    1
    24    24    25   ar
    25    25    26   ar
    26    26    27   ar
    27    27    28   ar
    28    28    29   ar
    29    29    30    1
    30    30    31   ar
    31    31    32   ar
    32    32    33   ar
    33    33    34    1
    34    34    35    1
    35    34    36    1
    36    34    37    1
    37    33    38   ar
    38    38    39   ar
    39    20    40   ar
    40    40    41   ar
    41    41    42   ar
    42    42    43   ar
    43    43    44    1
    44    12    45    1
    45    45    46   ar
    46    46    47   ar
    47    47    48   ar
    48    48    49   ar
    49    49    50   ar
    50     9     4   ar
    51    43    16   ar
    52    50    45   ar
    53    42    18   ar
    54    29    24   ar
    55    39    30   ar
    56     1    51    1
    57     1    52    1
    58     1    53    1
    59     3    54    1
    60     3    55    1
    61     5    56    1
    62     6    57    1
    63     7    58    1
    64     8    59    1
    65     9    60    1
    66    12    61    1
    67    13    62    1
    68    17    63    1
    69    19    64    1
    70    21    65    1
    71    25    66    1
    72    26    67    1
    73    27    68    1
    74    28    69    1
    75    31    70    1
    76    32    71    1
    77    38    72    1
    78    39    73    1
    79    40    74    1
    80    41    75    1
    81    44    76    1
    82    44    77    1
    83    44    78    1
    84    46    79    1
    85    47    80    1
    86    48    81    1
    87    49    82    1
    88    50    83    1
