@<TRIPOS>MOLECULE
*****
 54 57 0 0 0
SMALL
GASTEIGER

@<TRIPOS>ATOM
      1 C           5.6478   -1.2361    2.2877 C.3     1  UNL1        0.0124
      2 C           5.0372   -1.7744    1.0532 C.2     1  UNL1        0.2133
      3 O           5.3574   -2.9418    0.7304 O.2     1  UNL1       -0.2759
      4 N           4.1454   -1.0052    0.2913 N.am    1  UNL1       -0.2865
      5 C           3.8388    0.3561    0.7551 C.3     1  UNL1        0.0319
      6 C           2.3598    0.4705    1.0339 C.3     1  UNL1        0.0357
      7 N           1.6665    0.0968   -0.1623 N.am    1  UNL1       -0.2669
      8 C           0.5172    0.8823   -0.5439 C.ar    1  UNL1        0.0543
      9 C          -0.7475    0.5437   -0.0951 C.ar    1  UNL1       -0.0298
     10 C          -1.8053    1.3212   -0.4856 C.ar    1  UNL1        0.0023
     11 C          -3.1505    0.9567   -0.0052 C.ar    1  UNL1        0.0740
     12 C          -4.1207    1.7874    0.5056 C.ar    1  UNL1       -0.0219
     13 C          -5.2406    1.0291    0.8373 C.ar    1  UNL1        0.0855
     14 C          -6.4917    1.5330    1.4099 C.3     1  UNL1        0.4195
     15 F          -6.7420    0.9500    2.6295 F       1  UNL1       -0.1658
     16 F          -6.3362    2.9022    1.6868 F       1  UNL1       -0.1658
     17 F          -7.5697    1.4735    0.5478 F       1  UNL1       -0.1658
     18 C          -4.9056   -0.2683    0.5091 C.ar    1  UNL1        0.1171
     19 C          -5.6189   -1.4221    0.6197 C.ar    1  UNL1        0.1442
     20 N          -6.9276   -1.4285    1.1398 N.pl3   1  UNL1       -0.3414
     21 N          -5.0565   -2.5922    0.2203 N.ar    1  UNL1       -0.2173
     22 C          -3.8036   -2.5951   -0.2786 C.ar    1  UNL1        0.1388
     23 N          -3.1354   -1.4384   -0.3708 N.ar    1  UNL1       -0.1543
     24 N          -3.6361   -0.2791    0.0024 N.ar    1  UNL1       -0.2269
     25 C          -1.6032    2.4024   -1.2990 C.ar    1  UNL1       -0.0512
     26 C          -0.3518    2.7367   -1.7425 C.ar    1  UNL1       -0.0419
     27 C           0.7418    1.9615   -1.3594 C.ar    1  UNL1        0.0731
     28 C           2.0310    2.3455   -1.8448 C.1     1  UNL1        0.1010
     29 N           3.0567    2.6621   -2.2294 N.1     1  UNL1       -0.1908
     30 C           2.0849   -1.0006   -0.9455 C.2     1  UNL1        0.2430
     31 O           1.2802   -1.6231   -1.6697 O.2     1  UNL1       -0.2729
     32 C           3.4996   -1.4306   -0.9167 C.3     1  UNL1        0.1082
     33 C           4.1884   -0.8107   -2.1457 C.3     1  UNL1       -0.0352
     34 C           3.5783   -2.9374   -1.1205 C.3     1  UNL1       -0.0352
     35 H           6.2961   -1.9564    2.7887 H       1  UNL1        0.0323
     36 H           6.2655   -0.3339    2.0330 H       1  UNL1        0.0323
     37 H           4.8359   -0.8882    2.9755 H       1  UNL1        0.0323
     38 H           4.1238    1.0697   -0.0637 H       1  UNL1        0.0480
     39 H           4.4039    0.6037    1.6535 H       1  UNL1        0.0480
     40 H           2.1601    1.5327    1.2891 H       1  UNL1        0.0484
     41 H           2.1282   -0.2110    1.8786 H       1  UNL1        0.0484
     42 H          -0.8600   -0.3266    0.5515 H       1  UNL1        0.0643
     43 H          -4.0061    2.8460    0.6190 H       1  UNL1        0.0645
     44 H          -7.0819   -1.6652    2.1341 H       1  UNL1        0.1438
     45 H          -7.7420   -1.2035    0.5453 H       1  UNL1        0.1438
     46 H          -3.3528   -3.5291   -0.5982 H       1  UNL1        0.1066
     47 H          -2.4725    2.9879   -1.5814 H       1  UNL1        0.0624
     48 H          -0.2289    3.6035   -2.3883 H       1  UNL1        0.0631
     49 H           5.0614   -1.4354   -2.4473 H       1  UNL1        0.0255
     50 H           3.4485   -0.8145   -2.9654 H       1  UNL1        0.0255
     51 H           4.4839    0.2387   -1.9177 H       1  UNL1        0.0255
     52 H           2.8331   -3.1961   -1.9118 H       1  UNL1        0.0255
     53 H           3.3222   -3.4903   -0.2071 H       1  UNL1        0.0255
     54 H           4.5933   -3.1937   -1.4325 H       1  UNL1        0.0255
@<TRIPOS>BOND
     1     1     2    1
     2     2     3    2
     3     2     4   am
     4     4     5    1
     5     5     6    1
     6     6     7    1
     7     7     8    1
     8     8     9   ar
     9     9    10   ar
    10    10    11    1
    11    11    12   ar
    12    12    13   ar
    13    13    14    1
    14    14    15    1
    15    14    16    1
    16    14    17    1
    17    13    18   ar
    18    18    19   ar
    19    19    20    1
    20    19    21   ar
    21    21    22   ar
    22    22    23   ar
    23    23    24   ar
    24    10    25   ar
    25    25    26   ar
    26    26    27   ar
    27    27    28    1
    28    28    29    3
    29     7    30   am
    30    30    31    2
    31    30    32    1
    32    32    33    1
    33    32    34    1
    34    32     4    1
    35    27     8   ar
    36    24    11   ar
    37    24    18   ar
    38     1    35    1
    39     1    36    1
    40     1    37    1
    41     5    38    1
    42     5    39    1
    43     6    40    1
    44     6    41    1
    45     9    42    1
    46    12    43    1
    47    20    44    1
    48    20    45    1
    49    22    46    1
    50    25    47    1
    51    26    48    1
    52    33    49    1
    53    33    50    1
    54    33    51    1
    55    34    52    1
    56    34    53    1
    57    34    54    1
