
     RDKit          3D

 54 57  0  0  0  0  0  0  0  0999 V2000
    5.6478   -1.2361    2.2877 C   0  0  0  0  0  0  0  0  0  0  0  0
    5.0372   -1.7744    1.0532 C   0  0  0  0  0  0  0  0  0  0  0  0
    5.3574   -2.9418    0.7304 O   0  0  0  0  0  0  0  0  0  0  0  0
    4.1454   -1.0052    0.2913 N   0  0  0  0  0  0  0  0  0  0  0  0
    3.8388    0.3561    0.7551 C   0  0  0  0  0  0  0  0  0  0  0  0
    2.3598    0.4705    1.0339 C   0  0  0  0  0  0  0  0  0  0  0  0
    1.6665    0.0968   -0.1623 N   0  0  0  0  0  0  0  0  0  0  0  0
    0.5172    0.8823   -0.5439 C   0  0  0  0  0  0  0  0  0  0  0  0
   -0.7475    0.5437   -0.0951 C   0  0  0  0  0  0  0  0  0  0  0  0
   -1.8053    1.3212   -0.4856 C   0  0  0  0  0  0  0  0  0  0  0  0
   -3.1505    0.9567   -0.0052 C   0  0  0  0  0  0  0  0  0  0  0  0
   -4.1207    1.7874    0.5056 C   0  0  0  0  0  0  0  0  0  0  0  0
   -5.2406    1.0291    0.8373 C   0  0  0  0  0  0  0  0  0  0  0  0
   -6.4917    1.5330    1.4099 C   0  0  0  0  0  0  0  0  0  0  0  0
   -6.7420    0.9500    2.6295 F   0  0  0  0  0  0  0  0  0  0  0  0
   -6.3362    2.9022    1.6868 F   0  0  0  0  0  0  0  0  0  0  0  0
   -7.5697    1.4735    0.5478 F   0  0  0  0  0  0  0  0  0  0  0  0
   -4.9056   -0.2683    0.5091 C   0  0  0  0  0  0  0  0  0  0  0  0
   -5.6189   -1.4221    0.6197 C   0  0  0  0  0  0  0  0  0  0  0  0
   -6.9276   -1.4285    1.1398 N   0  0  0  0  0  0  0  0  0  0  0  0
   -5.0565   -2.5922    0.2203 N   0  0  0  0  0  0  0  0  0  0  0  0
   -3.8036   -2.5951   -0.2786 C   0  0  0  0  0  0  0  0  0  0  0  0
   -3.1354   -1.4384   -0.3708 N   0  0  0  0  0  0  0  0  0  0  0  0
   -3.6361   -0.2791    0.0024 N   0  0  0  0  0  0  0  0  0  0  0  0
   -1.6032    2.4024   -1.2990 C   0  0  0  0  0  0  0  0  0  0  0  0
   -0.3518    2.7367   -1.7425 C   0  0  0  0  0  0  0  0  0  0  0  0
    0.7418    1.9615   -1.3594 C   0  0  0  0  0  0  0  0  0  0  0  0
    2.0310    2.3455   -1.8448 C   0  0  0  0  0  0  0  0  0  0  0  0
    3.0567    2.6621   -2.2294 N   0  0  0  0  0  0  0  0  0  0  0  0
    2.0849   -1.0006   -0.9455 C   0  0  0  0  0  0  0  0  0  0  0  0
    1.2802   -1.6231   -1.6697 O   0  0  0  0  0  0  0  0  0  0  0  0
    3.4996   -1.4306   -0.9167 C   0  0  0  0  0  0  0  0  0  0  0  0
    4.1884   -0.8107   -2.1457 C   0  0  0  0  0  0  0  0  0  0  0  0
    3.5783   -2.9374   -1.1205 C   0  0  0  0  0  0  0  0  0  0  0  0
    6.2961   -1.9564    2.7887 H   0  0  0  0  0  0  0  0  0  0  0  0
    6.2655   -0.3339    2.0330 H   0  0  0  0  0  0  0  0  0  0  0  0
    4.8359   -0.8882    2.9755 H   0  0  0  0  0  0  0  0  0  0  0  0
    4.1238    1.0697   -0.0637 H   0  0  0  0  0  0  0  0  0  0  0  0
    4.4039    0.6037    1.6535 H   0  0  0  0  0  0  0  0  0  0  0  0
    2.1601    1.5327    1.2891 H   0  0  0  0  0  0  0  0  0  0  0  0
    2.1282   -0.2110    1.8786 H   0  0  0  0  0  0  0  0  0  0  0  0
   -0.8600   -0.3266    0.5515 H   0  0  0  0  0  0  0  0  0  0  0  0
   -4.0061    2.8460    0.6190 H   0  0  0  0  0  0  0  0  0  0  0  0
   -7.0819   -1.6652    2.1341 H   0  0  0  0  0  0  0  0  0  0  0  0
   -7.7420   -1.2035    0.5453 H   0  0  0  0  0  0  0  0  0  0  0  0
   -3.3528   -3.5291   -0.5982 H   0  0  0  0  0  0  0  0  0  0  0  0
   -2.4725    2.9879   -1.5814 H   0  0  0  0  0  0  0  0  0  0  0  0
   -0.2289    3.6035   -2.3883 H   0  0  0  0  0  0  0  0  0  0  0  0
    5.0614   -1.4354   -2.4473 H   0  0  0  0  0  0  0  0  0  0  0  0
    3.4485   -0.8145   -2.9654 H   0  0  0  0  0  0  0  0  0  0  0  0
    4.4839    0.2387   -1.9177 H   0  0  0  0  0  0  0  0  0  0  0  0
    2.8331   -3.1961   -1.9118 H   0  0  0  0  0  0  0  0  0  0  0  0
    3.3222   -3.4903   -0.2071 H   0  0  0  0  0  0  0  0  0  0  0  0
    4.5933   -3.1937   -1.4325 H   0  0  0  0  0  0  0  0  0  0  0  0
  1  2  1  0
  2  3  2  0
  2  4  1  0
  4  5  1  0
  5  6  1  0
  6  7  1  0
  7  8  1  0
  8  9  2  0
  9 10  1  0
 10 11  1  0
 11 12  2  0
 12 13  1  0
 13 14  1  0
 14 15  1  0
 14 16  1  0
 14 17  1  0
 13 18  2  0
 18 19  1  0
 19 20  1  0
 19 21  2  0
 21 22  1  0
 22 23  2  0
 23 24  1  0
 10 25  2  0
 25 26  1  0
 26 27  2  0
 27 28  1  0
 28 29  3  0
  7 30  1  0
 30 31  2  0
 30 32  1  0
 32 33  1  0
 32 34  1  0
 32  4  1  0
 27  8  1  0
 24 11  1  0
 24 18  1  0
  1 35  1  0
  1 36  1  0
  1 37  1  0
  5 38  1  0
  5 39  1  0
  6 40  1  0
  6 41  1  0
  9 42  1  0
 12 43  1  0
 20 44  1  0
 20 45  1  0
 22 46  1  0
 25 47  1  0
 26 48  1  0
 33 49  1  0
 33 50  1  0
 33 51  1  0
 34 52  1  0
 34 53  1  0
 34 54  1  0
M  END
$$$$
