
     RDKit          3D

 36 37  0  0  0  0  0  0  0  0999 V2000
   -0.7781    2.9919    2.6700 C   0  0  0  0  0  0  0  0  0  0  0  0
   -0.5534    1.9201    1.7611 O   0  0  0  0  0  0  0  0  0  0  0  0
   -1.0110    1.9946    0.4312 C   0  0  0  0  0  0  0  0  0  0  0  0
   -1.6138    3.0567    0.1339 O   0  0  0  0  0  0  0  0  0  0  0  0
   -0.7763    0.8789   -0.5125 C   0  0  2  0  0  0  0  0  0  0  0  0
   -1.3758   -0.3804   -0.0725 C   0  0  0  0  0  0  0  0  0  0  0  0
   -2.2399   -1.0565   -0.8991 C   0  0  0  0  0  0  0  0  0  0  0  0
   -2.8401   -2.2521   -0.5195 C   0  0  0  0  0  0  0  0  0  0  0  0
   -2.5712   -2.7865    0.7160 C   0  0  0  0  0  0  0  0  0  0  0  0
   -1.7121   -2.1242    1.5508 C   0  0  0  0  0  0  0  0  0  0  0  0
   -1.1176   -0.9246    1.1551 C   0  0  0  0  0  0  0  0  0  0  0  0
    0.6545    0.7946   -0.9622 C   0  0  1  0  0  0  0  0  0  0  0  0
    1.6741    0.5955    0.0846 C   0  0  0  0  0  0  0  0  0  0  0  0
    2.2629   -0.8206   -0.0152 C   0  0  0  0  0  0  0  0  0  0  0  0
    2.9726   -0.9332   -1.3708 C   0  0  0  0  0  0  0  0  0  0  0  0
    2.1374   -0.2416   -2.4440 C   0  0  0  0  0  0  0  0  0  0  0  0
    0.7625   -0.2667   -1.9516 N   0  0  0  0  0  0  0  0  0  0  0  0
   -1.6600    2.7793    3.3093 H   0  0  0  0  0  0  0  0  0  0  0  0
    0.1199    3.1758    3.2667 H   0  0  0  0  0  0  0  0  0  0  0  0
   -1.0246    3.8982    2.0441 H   0  0  0  0  0  0  0  0  0  0  0  0
   -1.3376    1.1920   -1.4568 H   0  0  0  0  0  0  0  0  0  0  0  0
   -2.4898   -0.6810   -1.8881 H   0  0  0  0  0  0  0  0  0  0  0  0
   -3.5072   -2.7531   -1.1853 H   0  0  0  0  0  0  0  0  0  0  0  0
   -3.0491   -3.7348    1.0131 H   0  0  0  0  0  0  0  0  0  0  0  0
   -1.4885   -2.5382    2.5382 H   0  0  0  0  0  0  0  0  0  0  0  0
   -0.4551   -0.4640    1.8730 H   0  0  0  0  0  0  0  0  0  0  0  0
    0.8658    1.7503   -1.5175 H   0  0  0  0  0  0  0  0  0  0  0  0
    1.3950    0.8028    1.1179 H   0  0  0  0  0  0  0  0  0  0  0  0
    2.5703    1.2551   -0.1328 H   0  0  0  0  0  0  0  0  0  0  0  0
    3.0079   -1.0129    0.7573 H   0  0  0  0  0  0  0  0  0  0  0  0
    1.4426   -1.5645   -0.0147 H   0  0  0  0  0  0  0  0  0  0  0  0
    3.9441   -0.4151   -1.2705 H   0  0  0  0  0  0  0  0  0  0  0  0
    3.1159   -1.9941   -1.5877 H   0  0  0  0  0  0  0  0  0  0  0  0
    2.4470    0.8081   -2.5700 H   0  0  0  0  0  0  0  0  0  0  0  0
    2.1560   -0.8281   -3.3874 H   0  0  0  0  0  0  0  0  0  0  0  0
    0.0726   -0.1214   -2.7165 H   0  0  0  0  0  0  0  0  0  0  0  0
  1  2  1  0
  2  3  1  0
  3  4  2  0
  3  5  1  0
  5  6  1  0
  6  7  2  0
  7  8  1  0
  8  9  2  0
  9 10  1  0
 10 11  2  0
  5 12  1  0
 12 13  1  0
 13 14  1  0
 14 15  1  0
 15 16  1  0
 16 17  1  0
 11  6  1  0
 17 12  1  0
  1 18  1  0
  1 19  1  0
  1 20  1  0
  5 21  1  6
  7 22  1  0
  8 23  1  0
  9 24  1  0
 10 25  1  0
 11 26  1  0
 12 27  1  6
 13 28  1  0
 13 29  1  0
 14 30  1  0
 14 31  1  0
 15 32  1  0
 15 33  1  0
 16 34  1  0
 16 35  1  0
 17 36  1  0
M  END
$$$$
