@<TRIPOS>MOLECULE
*****
 36 37 0 0 0
SMALL
GASTEIGER

@<TRIPOS>ATOM
      1 C          -0.7781    2.9919    2.6700 C.3     1  UNL1        0.0817
      2 O          -0.5534    1.9201    1.7611 O.3     1  UNL1       -0.4675
      3 C          -1.0110    1.9946    0.4312 C.2     1  UNL1        0.3158
      4 O          -1.6138    3.0567    0.1339 O.2     1  UNL1       -0.2501
      5 C          -0.7763    0.8789   -0.5125 C.3     1  UNL1        0.0966
      6 C          -1.3758   -0.3804   -0.0725 C.ar    1  UNL1       -0.0322
      7 C          -2.2399   -1.0565   -0.8991 C.ar    1  UNL1       -0.0577
      8 C          -2.8401   -2.2521   -0.5195 C.ar    1  UNL1       -0.0615
      9 C          -2.5712   -2.7865    0.7160 C.ar    1  UNL1       -0.0617
     10 C          -1.7121   -2.1242    1.5508 C.ar    1  UNL1       -0.0615
     11 C          -1.1176   -0.9246    1.1551 C.ar    1  UNL1       -0.0577
     12 C           0.6545    0.7946   -0.9622 C.3     1  UNL1        0.0246
     13 C           1.6741    0.5955    0.0846 C.3     1  UNL1       -0.0364
     14 C           2.2629   -0.8206   -0.0152 C.3     1  UNL1       -0.0505
     15 C           2.9726   -0.9332   -1.3708 C.3     1  UNL1       -0.0404
     16 C           2.1374   -0.2416   -2.4440 C.3     1  UNL1       -0.0038
     17 N           0.7625   -0.2667   -1.9516 N.3     1  UNL1       -0.3121
     18 H          -1.6600    2.7793    3.3093 H       1  UNL1        0.0661
     19 H           0.1199    3.1758    3.2667 H       1  UNL1        0.0661
     20 H          -1.0246    3.8982    2.0441 H       1  UNL1        0.0661
     21 H          -1.3376    1.1920   -1.4568 H       1  UNL1        0.0478
     22 H          -2.4898   -0.6810   -1.8881 H       1  UNL1        0.0621
     23 H          -3.5072   -2.7531   -1.1853 H       1  UNL1        0.0618
     24 H          -3.0491   -3.7348    1.0131 H       1  UNL1        0.0618
     25 H          -1.4885   -2.5382    2.5382 H       1  UNL1        0.0618
     26 H          -0.4551   -0.4640    1.8730 H       1  UNL1        0.0621
     27 H           0.8658    1.7503   -1.5175 H       1  UNL1        0.0472
     28 H           1.3950    0.8028    1.1179 H       1  UNL1        0.0281
     29 H           2.5703    1.2551   -0.1328 H       1  UNL1        0.0281
     30 H           3.0079   -1.0129    0.7573 H       1  UNL1        0.0266
     31 H           1.4426   -1.5645   -0.0147 H       1  UNL1        0.0266
     32 H           3.9441   -0.4151   -1.2705 H       1  UNL1        0.0277
     33 H           3.1159   -1.9941   -1.5877 H       1  UNL1        0.0277
     34 H           2.4470    0.8081   -2.5700 H       1  UNL1        0.0424
     35 H           2.1560   -0.8281   -3.3874 H       1  UNL1        0.0424
     36 H           0.0726   -0.1214   -2.7165 H       1  UNL1        0.1222
@<TRIPOS>BOND
     1     1     2    1
     2     2     3    1
     3     3     4    2
     4     3     5    1
     5     5     6    1
     6     6     7   ar
     7     7     8   ar
     8     8     9   ar
     9     9    10   ar
    10    10    11   ar
    11     5    12    1
    12    12    13    1
    13    13    14    1
    14    14    15    1
    15    15    16    1
    16    16    17    1
    17    11     6   ar
    18    17    12    1
    19     1    18    1
    20     1    19    1
    21     1    20    1
    22     5    21    1
    23     7    22    1
    24     8    23    1
    25     9    24    1
    26    10    25    1
    27    11    26    1
    28    12    27    1
    29    13    28    1
    30    13    29    1
    31    14    30    1
    32    14    31    1
    33    15    32    1
    34    15    33    1
    35    16    34    1
    36    16    35    1
    37    17    36    1
