
     RDKit          3D

 36 39  0  0  0  0  0  0  0  0999 V2000
   -4.0006   -0.6697   -0.9678 C   0  0  0  0  0  0  0  0  0  0  0  0
   -3.3072   -0.6536    0.3343 C   0  0  0  0  0  0  0  0  0  0  0  0
   -3.7907   -1.3001    1.4420 N   0  0  0  0  0  0  0  0  0  0  0  0
   -2.9458   -1.1781    2.4800 C   0  0  0  0  0  0  0  0  0  0  0  0
   -1.8525   -0.4277    2.0759 C   0  0  0  0  0  0  0  0  0  0  0  0
   -0.6315   -0.0478    2.8226 C   0  0  0  0  0  0  0  0  0  0  0  0
    0.5820   -0.2815    2.0835 N   0  0  0  0  0  0  0  0  0  0  0  0
    0.9759   -0.0399    0.8736 C   0  0  0  0  0  0  0  0  0  0  0  0
    2.2722   -0.3554    0.2859 C   0  0  0  0  0  0  0  0  0  0  0  0
    3.4471    0.3481    0.5595 C   0  0  0  0  0  0  0  0  0  0  0  0
    4.6512    0.0092   -0.0237 C   0  0  0  0  0  0  0  0  0  0  0  0
    4.7265   -1.0645   -0.9180 C   0  0  0  0  0  0  0  0  0  0  0  0
    3.5803   -1.7709   -1.2014 C   0  0  0  0  0  0  0  0  0  0  0  0
    2.4166   -1.4011   -0.6032 C   0  0  0  0  0  0  0  0  0  0  0  0
    1.3368   -2.1736   -0.9574 F   0  0  0  0  0  0  0  0  0  0  0  0
    0.0672    0.6424   -0.0825 C   0  0  0  0  0  0  0  0  0  0  0  0
   -1.3203    0.6299   -0.0973 C   0  0  0  0  0  0  0  0  0  0  0  0
   -2.1188    1.3308   -0.9793 C   0  0  0  0  0  0  0  0  0  0  0  0
   -1.4203    2.0991   -1.9221 C   0  0  0  0  0  0  0  0  0  0  0  0
   -0.0207    2.1359   -1.9424 C   0  0  0  0  0  0  0  0  0  0  0  0
    0.8541    3.0937   -3.1194 Cl  0  0  0  0  0  0  0  0  0  0  0  0
    0.7405    1.4102   -1.0247 C   0  0  0  0  0  0  0  0  0  0  0  0
   -2.1417   -0.1452    0.7745 N   0  0  0  0  0  0  0  0  0  0  0  0
   -3.3418   -0.6695   -1.8633 H   0  0  0  0  0  0  0  0  0  0  0  0
   -4.9279   -0.1107   -1.0383 H   0  0  0  0  0  0  0  0  0  0  0  0
   -4.3828   -1.7479   -1.0418 H   0  0  0  0  0  0  0  0  0  0  0  0
   -3.0340   -1.5680    3.4835 H   0  0  0  0  0  0  0  0  0  0  0  0
   -0.6914    1.0290    3.0532 H   0  0  0  0  0  0  0  0  0  0  0  0
   -0.6209   -0.5998    3.7787 H   0  0  0  0  0  0  0  0  0  0  0  0
    3.3333    1.1804    1.2669 H   0  0  0  0  0  0  0  0  0  0  0  0
    5.4857    0.6493    0.2852 H   0  0  0  0  0  0  0  0  0  0  0  0
    5.7314   -1.2247   -1.3048 H   0  0  0  0  0  0  0  0  0  0  0  0
    3.6956   -2.5852   -1.8944 H   0  0  0  0  0  0  0  0  0  0  0  0
   -3.1785    1.4039   -1.0030 H   0  0  0  0  0  0  0  0  0  0  0  0
   -1.9729    2.6776   -2.6515 H   0  0  0  0  0  0  0  0  0  0  0  0
    1.8035    1.3757   -0.9630 H   0  0  0  0  0  0  0  0  0  0  0  0
  1  2  1  0
  2  3  2  0
  3  4  1  0
  4  5  2  0
  5  6  1  0
  6  7  1  0
  7  8  2  0
  8  9  1  0
  9 10  2  0
 10 11  1  0
 11 12  2  0
 12 13  1  0
 13 14  2  0
 14 15  1  0
  8 16  1  0
 16 17  2  0
 17 18  1  0
 18 19  2  0
 19 20  1  0
 20 21  1  0
 20 22  2  0
 17 23  1  0
 23  2  1  0
 23  5  1  0
 14  9  1  0
 22 16  1  0
  1 24  1  0
  1 25  1  0
  1 26  1  0
  4 27  1  0
  6 28  1  0
  6 29  1  0
 10 30  1  0
 11 31  1  0
 12 32  1  0
 13 33  1  0
 18 34  1  0
 19 35  1  0
 22 36  1  0
M  END
$$$$
