@<TRIPOS>MOLECULE
*****
 54 53 0 0 0
SMALL
GASTEIGER

@<TRIPOS>ATOM
      1 C           4.3366   -0.0195   -2.0799 C.3     1  UNL1       -0.0653
      2 C           2.8304   -0.3167   -2.0954 C.3     1  UNL1       -0.0559
      3 C           2.5613   -1.2030   -0.8712 C.3     1  UNL1       -0.0526
      4 C           2.9110   -0.4781    0.3890 C.3     1  UNL1       -0.0404
      5 C           2.1138    0.7268    0.7133 C.3     1  UNL1        0.0536
      6 C           2.5953    1.4135    1.9705 C.3     1  UNL1        0.0525
      7 N           2.5936    0.6806    3.1701 N.am    1  UNL1       -0.1857
      8 O           1.5048    0.7250    3.9961 O.3     1  UNL1       -0.2927
      9 C           3.6800   -0.1030    3.6163 C.2     1  UNL1        0.2250
     10 O           4.7202   -0.1661    2.9344 O.2     1  UNL1       -0.2772
     11 C           0.6790    0.4701    0.7149 C.2     1  UNL1        0.2183
     12 O           0.1539    0.4270    1.9031 O.2     1  UNL1       -0.2754
     13 N          -0.1840    0.2734   -0.3579 N.am    1  UNL1       -0.3032
     14 C          -1.6513    0.0143   -0.0994 C.3     1  UNL1        0.1044
     15 C          -1.9388   -1.3015   -0.6581 C.2     1  UNL1        0.2359
     16 O          -1.1788   -1.8586   -1.5181 O.2     1  UNL1       -0.2736
     17 N          -3.0671   -2.0501   -0.2859 N.am    1  UNL1       -0.3061
     18 C          -3.3875   -3.3401   -0.9104 C.3     1  UNL1        0.0029
     19 C          -3.9506   -1.6425    0.7658 C.3     1  UNL1        0.0029
     20 C          -2.3825    1.1715   -0.7244 C.3     1  UNL1       -0.0108
     21 C          -2.1369    1.2742   -2.2139 C.3     1  UNL1       -0.0579
     22 C          -1.7832    2.4709   -0.1435 C.3     1  UNL1       -0.0579
     23 C          -3.8461    1.2536   -0.4740 C.3     1  UNL1       -0.0579
     24 H           4.6855    0.2119   -3.1270 H       1  UNL1        0.0230
     25 H           4.8242   -0.9210   -1.6775 H       1  UNL1        0.0230
     26 H           4.5119    0.8459   -1.4208 H       1  UNL1        0.0230
     27 H           2.2700    0.6232   -2.0071 H       1  UNL1        0.0263
     28 H           2.5184   -0.8293   -3.0221 H       1  UNL1        0.0263
     29 H           1.5147   -1.4860   -0.8789 H       1  UNL1        0.0265
     30 H           3.1417   -2.1557   -0.9742 H       1  UNL1        0.0265
     31 H           4.0092   -0.2686    0.3108 H       1  UNL1        0.0273
     32 H           2.8007   -1.2238    1.2366 H       1  UNL1        0.0273
     33 H           2.3042    1.4777   -0.1125 H       1  UNL1        0.0410
     34 H           3.6542    1.7371    1.7513 H       1  UNL1        0.0496
     35 H           2.0252    2.3559    2.0662 H       1  UNL1        0.0496
     36 H           1.7851    0.8926    4.9481 H       1  UNL1        0.2416
     37 H           3.6171   -0.6422    4.5336 H       1  UNL1        0.1274
     38 H           0.1429    0.3156   -1.3269 H       1  UNL1        0.1495
     39 H          -1.7758    0.0270    0.9698 H       1  UNL1        0.0600
     40 H          -2.6000   -3.6307   -1.6315 H       1  UNL1        0.0428
     41 H          -3.4426   -4.0898   -0.1002 H       1  UNL1        0.0428
     42 H          -4.3863   -3.2308   -1.3481 H       1  UNL1        0.0428
     43 H          -4.9171   -1.2955    0.3875 H       1  UNL1        0.0428
     44 H          -4.1719   -2.5394    1.4330 H       1  UNL1        0.0428
     45 H          -3.5081   -0.9082    1.4604 H       1  UNL1        0.0428
     46 H          -2.5013    0.3595   -2.7205 H       1  UNL1        0.0236
     47 H          -1.0990    1.5353   -2.4581 H       1  UNL1        0.0236
     48 H          -2.7764    2.1055   -2.5808 H       1  UNL1        0.0236
     49 H          -1.8524    2.4477    0.9558 H       1  UNL1        0.0236
     50 H          -0.7486    2.6137   -0.5199 H       1  UNL1        0.0236
     51 H          -2.3903    3.3287   -0.5028 H       1  UNL1        0.0236
     52 H          -4.4322    0.4991   -1.0606 H       1  UNL1        0.0236
     53 H          -4.1661    1.1787    0.5739 H       1  UNL1        0.0236
     54 H          -4.2104    2.2443   -0.8984 H       1  UNL1        0.0236
@<TRIPOS>BOND
     1     1     2    1
     2     2     3    1
     3     3     4    1
     4     4     5    1
     5     5     6    1
     6     6     7    1
     7     7     8    1
     8     7     9   am
     9     9    10    2
    10     5    11    1
    11    11    12    2
    12    11    13   am
    13    13    14    1
    14    14    15    1
    15    15    16    2
    16    15    17   am
    17    17    18    1
    18    17    19    1
    19    14    20    1
    20    20    21    1
    21    20    22    1
    22    20    23    1
    23     1    24    1
    24     1    25    1
    25     1    26    1
    26     2    27    1
    27     2    28    1
    28     3    29    1
    29     3    30    1
    30     4    31    1
    31     4    32    1
    32     5    33    1
    33     6    34    1
    34     6    35    1
    35     8    36    1
    36     9    37    1
    37    13    38    1
    38    14    39    1
    39    18    40    1
    40    18    41    1
    41    18    42    1
    42    19    43    1
    43    19    44    1
    44    19    45    1
    45    21    46    1
    46    21    47    1
    47    21    48    1
    48    22    49    1
    49    22    50    1
    50    22    51    1
    51    23    52    1
    52    23    53    1
    53    23    54    1
