
     RDKit          3D

 54 53  0  0  0  0  0  0  0  0999 V2000
    4.3366   -0.0195   -2.0799 C   0  0  0  0  0  0  0  0  0  0  0  0
    2.8304   -0.3167   -2.0954 C   0  0  0  0  0  0  0  0  0  0  0  0
    2.5613   -1.2030   -0.8712 C   0  0  0  0  0  0  0  0  0  0  0  0
    2.9110   -0.4781    0.3890 C   0  0  0  0  0  0  0  0  0  0  0  0
    2.1138    0.7268    0.7133 C   0  0  2  0  0  0  0  0  0  0  0  0
    2.5953    1.4135    1.9705 C   0  0  0  0  0  0  0  0  0  0  0  0
    2.5936    0.6806    3.1701 N   0  0  0  0  0  0  0  0  0  0  0  0
    1.5048    0.7250    3.9961 O   0  0  0  0  0  0  0  0  0  0  0  0
    3.6800   -0.1030    3.6163 C   0  0  0  0  0  0  0  0  0  0  0  0
    4.7202   -0.1661    2.9344 O   0  0  0  0  0  0  0  0  0  0  0  0
    0.6790    0.4701    0.7149 C   0  0  0  0  0  0  0  0  0  0  0  0
    0.1539    0.4270    1.9031 O   0  0  0  0  0  0  0  0  0  0  0  0
   -0.1840    0.2734   -0.3579 N   0  0  0  0  0  0  0  0  0  0  0  0
   -1.6513    0.0143   -0.0994 C   0  0  2  0  0  0  0  0  0  0  0  0
   -1.9388   -1.3015   -0.6581 C   0  0  0  0  0  0  0  0  0  0  0  0
   -1.1788   -1.8586   -1.5181 O   0  0  0  0  0  0  0  0  0  0  0  0
   -3.0671   -2.0501   -0.2859 N   0  0  0  0  0  0  0  0  0  0  0  0
   -3.3875   -3.3401   -0.9104 C   0  0  0  0  0  0  0  0  0  0  0  0
   -3.9506   -1.6425    0.7658 C   0  0  0  0  0  0  0  0  0  0  0  0
   -2.3825    1.1715   -0.7244 C   0  0  0  0  0  0  0  0  0  0  0  0
   -2.1369    1.2742   -2.2139 C   0  0  0  0  0  0  0  0  0  0  0  0
   -1.7832    2.4709   -0.1435 C   0  0  0  0  0  0  0  0  0  0  0  0
   -3.8461    1.2536   -0.4740 C   0  0  0  0  0  0  0  0  0  0  0  0
    4.6855    0.2119   -3.1270 H   0  0  0  0  0  0  0  0  0  0  0  0
    4.8242   -0.9210   -1.6775 H   0  0  0  0  0  0  0  0  0  0  0  0
    4.5119    0.8459   -1.4208 H   0  0  0  0  0  0  0  0  0  0  0  0
    2.2700    0.6232   -2.0071 H   0  0  0  0  0  0  0  0  0  0  0  0
    2.5184   -0.8293   -3.0221 H   0  0  0  0  0  0  0  0  0  0  0  0
    1.5147   -1.4860   -0.8789 H   0  0  0  0  0  0  0  0  0  0  0  0
    3.1417   -2.1557   -0.9742 H   0  0  0  0  0  0  0  0  0  0  0  0
    4.0092   -0.2686    0.3108 H   0  0  0  0  0  0  0  0  0  0  0  0
    2.8007   -1.2238    1.2366 H   0  0  0  0  0  0  0  0  0  0  0  0
    2.3042    1.4777   -0.1125 H   0  0  0  0  0  0  0  0  0  0  0  0
    3.6542    1.7371    1.7513 H   0  0  0  0  0  0  0  0  0  0  0  0
    2.0252    2.3559    2.0662 H   0  0  0  0  0  0  0  0  0  0  0  0
    1.7851    0.8926    4.9481 H   0  0  0  0  0  0  0  0  0  0  0  0
    3.6171   -0.6422    4.5336 H   0  0  0  0  0  0  0  0  0  0  0  0
    0.1429    0.3156   -1.3269 H   0  0  0  0  0  0  0  0  0  0  0  0
   -1.7758    0.0270    0.9698 H   0  0  0  0  0  0  0  0  0  0  0  0
   -2.6000   -3.6307   -1.6315 H   0  0  0  0  0  0  0  0  0  0  0  0
   -3.4426   -4.0898   -0.1002 H   0  0  0  0  0  0  0  0  0  0  0  0
   -4.3863   -3.2308   -1.3481 H   0  0  0  0  0  0  0  0  0  0  0  0
   -4.9171   -1.2955    0.3875 H   0  0  0  0  0  0  0  0  0  0  0  0
   -4.1719   -2.5394    1.4330 H   0  0  0  0  0  0  0  0  0  0  0  0
   -3.5081   -0.9082    1.4604 H   0  0  0  0  0  0  0  0  0  0  0  0
   -2.5013    0.3595   -2.7205 H   0  0  0  0  0  0  0  0  0  0  0  0
   -1.0990    1.5353   -2.4581 H   0  0  0  0  0  0  0  0  0  0  0  0
   -2.7764    2.1055   -2.5808 H   0  0  0  0  0  0  0  0  0  0  0  0
   -1.8524    2.4477    0.9558 H   0  0  0  0  0  0  0  0  0  0  0  0
   -0.7486    2.6137   -0.5199 H   0  0  0  0  0  0  0  0  0  0  0  0
   -2.3903    3.3287   -0.5028 H   0  0  0  0  0  0  0  0  0  0  0  0
   -4.4322    0.4991   -1.0606 H   0  0  0  0  0  0  0  0  0  0  0  0
   -4.1661    1.1787    0.5739 H   0  0  0  0  0  0  0  0  0  0  0  0
   -4.2104    2.2443   -0.8984 H   0  0  0  0  0  0  0  0  0  0  0  0
  1  2  1  0
  2  3  1  0
  3  4  1  0
  4  5  1  0
  5  6  1  0
  6  7  1  0
  7  8  1  0
  7  9  1  0
  9 10  2  0
  5 11  1  0
 11 12  2  0
 11 13  1  0
 13 14  1  0
 14 15  1  0
 15 16  2  0
 15 17  1  0
 17 18  1  0
 17 19  1  0
 14 20  1  0
 20 21  1  0
 20 22  1  0
 20 23  1  0
  1 24  1  0
  1 25  1  0
  1 26  1  0
  2 27  1  0
  2 28  1  0
  3 29  1  0
  3 30  1  0
  4 31  1  0
  4 32  1  0
  5 33  1  6
  6 34  1  0
  6 35  1  0
  8 36  1  0
  9 37  1  0
 13 38  1  0
 14 39  1  1
 18 40  1  0
 18 41  1  0
 18 42  1  0
 19 43  1  0
 19 44  1  0
 19 45  1  0
 21 46  1  0
 21 47  1  0
 21 48  1  0
 22 49  1  0
 22 50  1  0
 22 51  1  0
 23 52  1  0
 23 53  1  0
 23 54  1  0
M  END
$$$$
