@<TRIPOS>MOLECULE
*****
 49 53 0 0 0
SMALL
GASTEIGER

@<TRIPOS>ATOM
      1 O           1.9888    0.1655    1.2246 O.2     1  UNL1       -0.2685
      2 C           2.6492    0.6262    0.2632 C.2     1  UNL1        0.2626
      3 N           3.9836    1.0609    0.5274 N.am    1  UNL1       -0.3072
      4 C           4.5997    0.9928    1.8485 C.3     1  UNL1        0.0236
      5 C           5.9839    0.3650    1.8103 C.3     1  UNL1       -0.0328
      6 C           5.7834    1.7955    2.1647 C.3     1  UNL1       -0.0328
      7 C           2.0673    0.7100   -1.0701 C.ar    1  UNL1        0.1282
      8 C           2.7129    1.2248   -2.1908 C.ar    1  UNL1        0.0589
      9 N           1.8550    1.1240   -3.2187 N.ar    1  UNL1       -0.2353
     10 C           0.7042    0.5759   -2.8150 C.ar    1  UNL1        0.1381
     11 C          -0.4757    0.2574   -3.4651 C.ar    1  UNL1       -0.0182
     12 C          -1.4966   -0.3190   -2.7332 C.ar    1  UNL1       -0.0477
     13 C          -1.3680   -0.5806   -1.3851 C.ar    1  UNL1        0.0173
     14 C          -2.4284   -1.1924   -0.5971 C.ar    1  UNL1        0.0780
     15 C          -3.1439   -0.6630    0.4519 C.ar    1  UNL1        0.0967
     16 C          -2.9806    0.6907    1.0137 C.ar    1  UNL1        0.0026
     17 C          -3.2536    1.7731    0.1830 C.ar    1  UNL1       -0.0498
     18 C          -3.0983    3.0475    0.7260 C.ar    1  UNL1       -0.0258
     19 C          -2.6928    3.2556    2.0279 C.ar    1  UNL1        0.1234
     20 F          -2.5621    4.5418    2.4912 F       1  UNL1       -0.2055
     21 C          -2.4252    2.1756    2.8416 C.ar    1  UNL1       -0.0258
     22 C          -2.5753    0.9050    2.3148 C.ar    1  UNL1       -0.0498
     23 N          -4.0420   -1.5465    0.9222 N.ar    1  UNL1       -0.2351
     24 C          -3.8849   -2.6427    0.1562 C.ar    1  UNL1        0.0972
     25 N          -2.9255   -2.4488   -0.7562 N.ar    1  UNL1       -0.3241
     26 C          -2.4513   -3.3827   -1.7703 C.3     1  UNL1        0.0852
     27 C          -1.3089   -4.2197   -1.2301 C.3     1  UNL1        0.2569
     28 F          -0.9217   -5.0719   -2.2469 F       1  UNL1       -0.2073
     29 F          -0.2823   -3.4415   -0.7701 F       1  UNL1       -0.2073
     30 C          -0.1716   -0.2423   -0.7909 C.ar    1  UNL1        0.0211
     31 N           0.8540    0.3285   -1.4918 N.ar    1  UNL1       -0.2949
     32 H           4.5005    1.4377   -0.2960 H       1  UNL1        0.1493
     33 H           3.9866    0.6039    2.6858 H       1  UNL1        0.0498
     34 H           6.4345    0.1071    0.8242 H       1  UNL1        0.0284
     35 H           6.2654   -0.3733    2.5972 H       1  UNL1        0.0284
     36 H           5.9902    2.0810    3.2122 H       1  UNL1        0.0284
     37 H           6.2194    2.5200    1.4404 H       1  UNL1        0.0284
     38 H           3.7184    1.6230   -2.1943 H       1  UNL1        0.0853
     39 H          -0.5309    0.4798   -4.5172 H       1  UNL1        0.0654
     40 H          -2.4092   -0.5616   -3.2533 H       1  UNL1        0.0626
     41 H          -3.5754    1.6566   -0.8466 H       1  UNL1        0.0625
     42 H          -3.3048    3.9258    0.0995 H       1  UNL1        0.0646
     43 H          -2.1061    2.3395    3.8682 H       1  UNL1        0.0646
     44 H          -2.3605    0.0523    2.9664 H       1  UNL1        0.0625
     45 H          -4.4867   -3.5384    0.3051 H       1  UNL1        0.1029
     46 H          -2.0673   -2.8524   -2.6673 H       1  UNL1        0.0548
     47 H          -3.2845   -4.0724   -1.9884 H       1  UNL1        0.0548
     48 H          -1.6423   -4.8591   -0.3864 H       1  UNL1        0.1037
     49 H          -0.0407   -0.4347    0.2638 H       1  UNL1        0.0820
@<TRIPOS>BOND
     1     1     2    2
     2     2     3   am
     3     3     4    1
     4     4     5    1
     5     5     6    1
     6     2     7    1
     7     7     8   ar
     8     8     9   ar
     9     9    10   ar
    10    10    11   ar
    11    11    12   ar
    12    12    13   ar
    13    13    14    1
    14    14    15   ar
    15    15    16    1
    16    16    17   ar
    17    17    18   ar
    18    18    19   ar
    19    19    20    1
    20    19    21   ar
    21    21    22   ar
    22    15    23   ar
    23    23    24   ar
    24    24    25   ar
    25    25    26    1
    26    26    27    1
    27    27    28    1
    28    27    29    1
    29    13    30   ar
    30    30    31   ar
    31     6     4    1
    32    31     7   ar
    33    31    10   ar
    34    25    14   ar
    35    22    16   ar
    36     3    32    1
    37     4    33    1
    38     5    34    1
    39     5    35    1
    40     6    36    1
    41     6    37    1
    42     8    38    1
    43    11    39    1
    44    12    40    1
    45    17    41    1
    46    18    42    1
    47    21    43    1
    48    22    44    1
    49    24    45    1
    50    26    46    1
    51    26    47    1
    52    27    48    1
    53    30    49    1
