@<TRIPOS>MOLECULE
*****
 81 87 0 0 0
SMALL
GASTEIGER

@<TRIPOS>ATOM
      1 C          -1.7046    3.5993   -0.4347 C.3     1  UNL1       -0.0612
      2 C          -1.4712    2.5999    0.6502 C.3     1  UNL1       -0.0295
      3 C          -2.0594    1.3029    0.2596 C.ar    1  UNL1       -0.0314
      4 C          -3.4477    1.1453    0.3584 C.ar    1  UNL1        0.0035
      5 C          -4.4810    2.0985    0.8109 C.3     1  UNL1        0.0541
      6 N          -5.7171    1.3885    0.6861 N.ar    1  UNL1       -0.3019
      7 C          -5.4781    0.1506    0.2264 C.ar    1  UNL1        0.0713
      8 C          -6.5607   -0.6813    0.0438 C.ar    1  UNL1       -0.0290
      9 C          -7.8423   -0.3165    0.3016 C.ar    1  UNL1        0.0082
     10 C          -8.0442    0.9813    0.7789 C.ar    1  UNL1        0.0606
     11 C          -9.3927    1.5450    1.1232 C.3     1  UNL1        0.1230
     12 O         -10.1994    0.4849    1.6658 O.3     1  UNL1       -0.4575
     13 C          -9.8636   -0.8592    1.4545 C.2     1  UNL1        0.3441
     14 O         -10.2587   -1.6236    2.3712 O.2     1  UNL1       -0.2472
     15 C          -9.1142   -1.0287    0.1758 C.3     1  UNL1        0.1877
     16 O          -9.9149   -0.3716   -0.8004 O.3     1  UNL1       -0.3732
     17 C          -9.0196   -2.4575   -0.2371 C.3     1  UNL1       -0.0121
     18 C          -8.3826   -2.6477   -1.5735 C.3     1  UNL1       -0.0618
     19 C          -6.9623    1.8472    0.9739 C.ar    1  UNL1        0.2589
     20 O          -7.1418    3.0352    1.4103 O.2     1  UNL1       -0.2672
     21 C          -4.0541   -0.0597    0.0010 C.ar    1  UNL1        0.0932
     22 N          -3.3424   -1.1165   -0.4502 N.ar    1  UNL1       -0.2449
     23 C          -2.0095   -0.9702   -0.5468 C.ar    1  UNL1        0.0722
     24 C          -1.2362   -2.0279   -1.0124 C.ar    1  UNL1       -0.0322
     25 C           0.1454   -1.8973   -1.1275 C.ar    1  UNL1       -0.0171
     26 C           0.7996   -0.7294   -0.7896 C.ar    1  UNL1        0.1339
     27 O           2.1694   -0.5491   -0.8873 O.3     1  UNL1       -0.4114
     28 C           3.0085   -0.8467    0.1467 C.2     1  UNL1        0.4082
     29 O           2.7252   -1.3095    1.3025 O.2     1  UNL1       -0.2258
     30 N           4.4263   -0.6290   -0.0297 N.am    1  UNL1       -0.2670
     31 C           5.2859   -0.9577    1.0972 C.3     1  UNL1        0.0192
     32 C           6.4355   -1.7555    0.6068 C.3     1  UNL1       -0.0213
     33 C           7.0815   -1.2616   -0.6590 C.3     1  UNL1        0.0133
     34 C           6.1144   -0.8513   -1.7110 C.3     1  UNL1       -0.0213
     35 C           4.9157   -0.1021   -1.2863 C.3     1  UNL1        0.0192
     36 N           8.1410   -0.3383   -0.4966 N.3     1  UNL1       -0.2993
     37 C           7.9000    0.8808    0.1730 C.3     1  UNL1       -0.0008
     38 C           9.1808    1.7179    0.0160 C.3     1  UNL1       -0.0402
     39 C          10.3375    1.1088    0.7574 C.3     1  UNL1       -0.0507
     40 C          10.0872   -0.3773    0.9009 C.3     1  UNL1       -0.0402
     41 C           9.4596   -0.8459   -0.4094 C.3     1  UNL1       -0.0008
     42 C           0.0083    0.3250   -0.3225 C.ar    1  UNL1       -0.0097
     43 C          -1.3540    0.1943   -0.2096 C.ar    1  UNL1        0.0074
     44 H          -2.0768    4.5670   -0.0228 H       1  UNL1        0.0233
     45 H          -0.8225    3.7499   -1.0910 H       1  UNL1        0.0233
     46 H          -2.5002    3.2177   -1.1048 H       1  UNL1        0.0233
     47 H          -2.1016    2.9547    1.5278 H       1  UNL1        0.0311
     48 H          -0.4572    2.5552    1.0559 H       1  UNL1        0.0311
     49 H          -4.2266    2.3206    1.8881 H       1  UNL1        0.0543
     50 H          -4.4547    3.0522    0.2707 H       1  UNL1        0.0543
     51 H          -6.4454   -1.6726   -0.3101 H       1  UNL1        0.0643
     52 H          -9.9168    1.9147    0.2381 H       1  UNL1        0.0750
     53 H          -9.3314    2.2914    1.9155 H       1  UNL1        0.0750
     54 H         -10.8754   -0.4447   -0.5969 H       1  UNL1        0.2113
     55 H          -8.5605   -3.0879    0.5566 H       1  UNL1        0.0299
     56 H         -10.0768   -2.8355   -0.3007 H       1  UNL1        0.0299
     57 H          -7.5247   -3.3670   -1.5781 H       1  UNL1        0.0231
     58 H          -8.0389   -1.7288   -2.0682 H       1  UNL1        0.0231
     59 H          -9.1113   -3.1259   -2.2990 H       1  UNL1        0.0231
     60 H          -1.7132   -2.9479   -1.2829 H       1  UNL1        0.0640
     61 H           0.7389   -2.7324   -1.4929 H       1  UNL1        0.0655
     62 H           5.5699   -0.0538    1.6726 H       1  UNL1        0.0466
     63 H           4.7291   -1.5926    1.8241 H       1  UNL1        0.0466
     64 H           7.2038   -1.8058    1.4096 H       1  UNL1        0.0295
     65 H           6.0720   -2.8081    0.4809 H       1  UNL1        0.0295
     66 H           7.5876   -2.1953   -1.0647 H       1  UNL1        0.0463
     67 H           6.6627   -0.2536   -2.4819 H       1  UNL1        0.0295
     68 H           5.7671   -1.7557   -2.2954 H       1  UNL1        0.0295
     69 H           5.0253    0.9973   -1.2687 H       1  UNL1        0.0466
     70 H           4.1034   -0.2783   -2.0532 H       1  UNL1        0.0466
     71 H           7.7723    0.8047    1.2732 H       1  UNL1        0.0427
     72 H           7.1090    1.5234   -0.2256 H       1  UNL1        0.0427
     73 H           8.9818    2.7764    0.2801 H       1  UNL1        0.0278
     74 H           9.4098    1.6758   -1.0686 H       1  UNL1        0.0278
     75 H          11.3056    1.3197    0.2260 H       1  UNL1        0.0266
     76 H          10.4159    1.6220    1.7364 H       1  UNL1        0.0266
     77 H          11.0202   -0.9350    1.1190 H       1  UNL1        0.0278
     78 H           9.4208   -0.4994    1.7663 H       1  UNL1        0.0278
     79 H          10.0738   -0.3275   -1.1996 H       1  UNL1        0.0427
     80 H           9.5773   -1.9090   -0.6022 H       1  UNL1        0.0427
     81 H           0.5185    1.2200   -0.0664 H       1  UNL1        0.0661
@<TRIPOS>BOND
     1     1     2    1
     2     2     3    1
     3     3     4   ar
     4     4     5    1
     5     5     6    1
     6     6     7   ar
     7     7     8   ar
     8     8     9   ar
     9     9    10   ar
    10    10    11    1
    11    11    12    1
    12    12    13    1
    13    13    14    2
    14    13    15    1
    15    15    16    1
    16    15    17    1
    17    17    18    1
    18    10    19   ar
    19    19    20    2
    20     7    21    1
    21    21    22   ar
    22    22    23   ar
    23    23    24   ar
    24    24    25   ar
    25    25    26   ar
    26    26    27    1
    27    27    28    1
    28    28    29    2
    29    28    30   am
    30    30    31    1
    31    31    32    1
    32    32    33    1
    33    33    34    1
    34    34    35    1
    35    33    36    1
    36    36    37    1
    37    37    38    1
    38    38    39    1
    39    39    40    1
    40    40    41    1
    41    26    42   ar
    42    42    43   ar
    43    43     3   ar
    44    21     4   ar
    45    43    23   ar
    46    19     6   ar
    47    35    30    1
    48    41    36    1
    49    15     9    1
    50     1    44    1
    51     1    45    1
    52     1    46    1
    53     2    47    1
    54     2    48    1
    55     5    49    1
    56     5    50    1
    57     8    51    1
    58    11    52    1
    59    11    53    1
    60    16    54    1
    61    17    55    1
    62    17    56    1
    63    18    57    1
    64    18    58    1
    65    18    59    1
    66    24    60    1
    67    25    61    1
    68    31    62    1
    69    31    63    1
    70    32    64    1
    71    32    65    1
    72    33    66    1
    73    34    67    1
    74    34    68    1
    75    35    69    1
    76    35    70    1
    77    37    71    1
    78    37    72    1
    79    38    73    1
    80    38    74    1
    81    39    75    1
    82    39    76    1
    83    40    77    1
    84    40    78    1
    85    41    79    1
    86    41    80    1
    87    42    81    1
