@<TRIPOS>MOLECULE
*****
 41 43 0 0 0
SMALL
GASTEIGER

@<TRIPOS>ATOM
      1 C          -2.2972   -3.0575    1.0424 C.3     1  UNL1        0.0707
      2 S          -1.6682   -2.0437   -0.2353 S.O2    1  UNL1        0.0295
      3 O          -0.4054   -2.6208   -0.7819 O.2     1  UNL1       -0.1583
      4 O          -2.6673   -2.0851   -1.3892 O.2     1  UNL1       -0.1583
      5 N          -1.4374   -0.4133    0.1738 N.3     1  UNL1       -0.1728
      6 C          -0.5391   -0.1094    1.1993 C.3     1  UNL1        0.0455
      7 C           0.8353    0.1128    0.6224 C.ar    1  UNL1       -0.0311
      8 C           1.1965    1.3739    0.1622 C.ar    1  UNL1       -0.0567
      9 C           2.4390    1.6305   -0.3614 C.ar    1  UNL1       -0.0537
     10 C           3.3842    0.6151   -0.4451 C.ar    1  UNL1       -0.0179
     11 C           4.6415    0.8687   -0.9735 C.ar    1  UNL1       -0.0540
     12 C           5.5654   -0.1483   -1.0488 C.ar    1  UNL1       -0.0612
     13 C           5.1928   -1.3923   -0.5882 C.ar    1  UNL1       -0.0612
     14 C           3.9627   -1.6505   -0.0686 C.ar    1  UNL1       -0.0540
     15 C           3.0101   -0.6299    0.0164 C.ar    1  UNL1       -0.0176
     16 C           1.7616   -0.8848    0.5418 C.ar    1  UNL1       -0.0496
     17 C          -2.5421    0.4274   -0.0832 C.3     1  UNL1        0.0454
     18 C          -2.3231    1.4648   -1.1362 C.3     1  UNL1       -0.0219
     19 C          -3.1631    2.6607   -0.6741 C.3     1  UNL1       -0.0025
     20 N          -4.0095    2.1544    0.3929 N.3     1  UNL1       -0.3144
     21 C          -3.1820    1.1241    1.0568 C.3     1  UNL1        0.0132
     22 H          -1.9556   -2.7520    2.0515 H       1  UNL1        0.0479
     23 H          -3.3999   -3.1196    0.9670 H       1  UNL1        0.0479
     24 H          -1.9209   -4.1017    0.8961 H       1  UNL1        0.0479
     25 H          -0.7951    0.6718    1.9207 H       1  UNL1        0.0493
     26 H          -0.4142   -1.0416    1.8335 H       1  UNL1        0.0493
     27 H           0.4782    2.1882    0.2211 H       1  UNL1        0.0621
     28 H           2.7488    2.5974   -0.7266 H       1  UNL1        0.0624
     29 H           4.9098    1.8420   -1.3254 H       1  UNL1        0.0624
     30 H           6.5737    0.0224   -1.4641 H       1  UNL1        0.0618
     31 H           5.9156   -2.1926   -0.6459 H       1  UNL1        0.0618
     32 H           3.6465   -2.6206    0.3001 H       1  UNL1        0.0624
     33 H           1.5553   -1.8845    0.8913 H       1  UNL1        0.0627
     34 H          -3.3504   -0.2510   -0.5193 H       1  UNL1        0.0493
     35 H          -1.3121    1.8160   -1.2842 H       1  UNL1        0.0293
     36 H          -2.7180    1.1592   -2.1494 H       1  UNL1        0.0293
     37 H          -3.8234    3.0174   -1.4835 H       1  UNL1        0.0424
     38 H          -2.5278    3.4667   -0.2673 H       1  UNL1        0.0424
     39 H          -4.8856    1.7070    0.0227 H       1  UNL1        0.1220
     40 H          -3.9416    0.4597    1.5629 H       1  UNL1        0.0440
     41 H          -2.5380    1.6190    1.7764 H       1  UNL1        0.0440
@<TRIPOS>BOND
     1     1     2    1
     2     2     3    2
     3     2     4    2
     4     2     5    1
     5     5     6    1
     6     6     7    1
     7     7     8   ar
     8     8     9   ar
     9     9    10   ar
    10    10    11   ar
    11    11    12   ar
    12    12    13   ar
    13    13    14   ar
    14    14    15   ar
    15    15    16   ar
    16     5    17    1
    17    17    18    1
    18    18    19    1
    19    19    20    1
    20    20    21    1
    21    16     7   ar
    22    21    17    1
    23    15    10   ar
    24     1    22    1
    25     1    23    1
    26     1    24    1
    27     6    25    1
    28     6    26    1
    29     8    27    1
    30     9    28    1
    31    11    29    1
    32    12    30    1
    33    13    31    1
    34    14    32    1
    35    16    33    1
    36    17    34    1
    37    18    35    1
    38    18    36    1
    39    19    37    1
    40    19    38    1
    41    20    39    1
    42    21    40    1
    43    21    41    1
