
     RDKit          3D

 41 43  0  0  0  0  0  0  0  0999 V2000
   -2.2972   -3.0575    1.0424 C   0  0  0  0  0  0  0  0  0  0  0  0
   -1.6682   -2.0437   -0.2353 S   0  0  0  0  0  6  0  0  0  0  0  0
   -0.4054   -2.6208   -0.7819 O   0  0  0  0  0  0  0  0  0  0  0  0
   -2.6673   -2.0851   -1.3892 O   0  0  0  0  0  0  0  0  0  0  0  0
   -1.4374   -0.4133    0.1738 N   0  0  0  0  0  0  0  0  0  0  0  0
   -0.5391   -0.1094    1.1993 C   0  0  0  0  0  0  0  0  0  0  0  0
    0.8353    0.1128    0.6224 C   0  0  0  0  0  0  0  0  0  0  0  0
    1.1965    1.3739    0.1622 C   0  0  0  0  0  0  0  0  0  0  0  0
    2.4390    1.6305   -0.3614 C   0  0  0  0  0  0  0  0  0  0  0  0
    3.3842    0.6151   -0.4451 C   0  0  0  0  0  0  0  0  0  0  0  0
    4.6415    0.8687   -0.9735 C   0  0  0  0  0  0  0  0  0  0  0  0
    5.5654   -0.1483   -1.0488 C   0  0  0  0  0  0  0  0  0  0  0  0
    5.1928   -1.3923   -0.5882 C   0  0  0  0  0  0  0  0  0  0  0  0
    3.9627   -1.6505   -0.0686 C   0  0  0  0  0  0  0  0  0  0  0  0
    3.0101   -0.6299    0.0164 C   0  0  0  0  0  0  0  0  0  0  0  0
    1.7616   -0.8848    0.5418 C   0  0  0  0  0  0  0  0  0  0  0  0
   -2.5421    0.4274   -0.0832 C   0  0  2  0  0  0  0  0  0  0  0  0
   -2.3231    1.4648   -1.1362 C   0  0  0  0  0  0  0  0  0  0  0  0
   -3.1631    2.6607   -0.6741 C   0  0  0  0  0  0  0  0  0  0  0  0
   -4.0095    2.1544    0.3929 N   0  0  0  0  0  0  0  0  0  0  0  0
   -3.1820    1.1241    1.0568 C   0  0  0  0  0  0  0  0  0  0  0  0
   -1.9556   -2.7520    2.0515 H   0  0  0  0  0  0  0  0  0  0  0  0
   -3.3999   -3.1196    0.9670 H   0  0  0  0  0  0  0  0  0  0  0  0
   -1.9209   -4.1017    0.8961 H   0  0  0  0  0  0  0  0  0  0  0  0
   -0.7951    0.6718    1.9207 H   0  0  0  0  0  0  0  0  0  0  0  0
   -0.4142   -1.0416    1.8335 H   0  0  0  0  0  0  0  0  0  0  0  0
    0.4782    2.1882    0.2211 H   0  0  0  0  0  0  0  0  0  0  0  0
    2.7488    2.5974   -0.7266 H   0  0  0  0  0  0  0  0  0  0  0  0
    4.9098    1.8420   -1.3254 H   0  0  0  0  0  0  0  0  0  0  0  0
    6.5737    0.0224   -1.4641 H   0  0  0  0  0  0  0  0  0  0  0  0
    5.9156   -2.1926   -0.6459 H   0  0  0  0  0  0  0  0  0  0  0  0
    3.6465   -2.6206    0.3001 H   0  0  0  0  0  0  0  0  0  0  0  0
    1.5553   -1.8845    0.8913 H   0  0  0  0  0  0  0  0  0  0  0  0
   -3.3504   -0.2510   -0.5193 H   0  0  0  0  0  0  0  0  0  0  0  0
   -1.3121    1.8160   -1.2842 H   0  0  0  0  0  0  0  0  0  0  0  0
   -2.7180    1.1592   -2.1494 H   0  0  0  0  0  0  0  0  0  0  0  0
   -3.8234    3.0174   -1.4835 H   0  0  0  0  0  0  0  0  0  0  0  0
   -2.5278    3.4667   -0.2673 H   0  0  0  0  0  0  0  0  0  0  0  0
   -4.8856    1.7070    0.0227 H   0  0  0  0  0  0  0  0  0  0  0  0
   -3.9416    0.4597    1.5629 H   0  0  0  0  0  0  0  0  0  0  0  0
   -2.5380    1.6190    1.7764 H   0  0  0  0  0  0  0  0  0  0  0  0
  1  2  1  0
  2  3  2  0
  2  4  2  0
  2  5  1  0
  5  6  1  0
  6  7  1  0
  7  8  2  0
  8  9  1  0
  9 10  2  0
 10 11  1  0
 11 12  2  0
 12 13  1  0
 13 14  2  0
 14 15  1  0
 15 16  2  0
  5 17  1  0
 17 18  1  0
 18 19  1  0
 19 20  1  0
 20 21  1  0
 16  7  1  0
 21 17  1  0
 15 10  1  0
  1 22  1  0
  1 23  1  0
  1 24  1  0
  6 25  1  0
  6 26  1  0
  8 27  1  0
  9 28  1  0
 11 29  1  0
 12 30  1  0
 13 31  1  0
 14 32  1  0
 16 33  1  0
 17 34  1  6
 18 35  1  0
 18 36  1  0
 19 37  1  0
 19 38  1  0
 20 39  1  0
 21 40  1  0
 21 41  1  0
M  END
$$$$
