
     RDKit          3D

 24 25  0  0  0  0  0  0  0  0999 V2000
   -1.4521    0.2610   -0.7158 C   0  0  1  0  0  0  0  0  0  0  0  0
   -2.8247    0.5434   -0.7558 O   0  0  0  0  0  0  0  0  0  0  0  0
   -0.7058    1.4173   -0.1830 C   0  0  0  0  0  0  0  0  0  0  0  0
   -1.0312    2.7388   -0.1194 N   0  0  0  0  0  0  0  0  0  0  0  0
   -0.0081    3.3520    0.4534 N   0  0  0  0  0  0  0  0  0  0  0  0
    0.9208    2.4771    0.7415 N   0  0  0  0  0  0  0  0  0  0  0  0
    0.5184    1.2712    0.3598 N   0  0  0  0  0  0  0  0  0  0  0  0
    1.0961   -0.0594    0.4115 C   0  0  2  0  0  0  0  0  0  0  0  0
    1.8763   -0.3071   -0.8629 C   0  0  0  0  0  0  0  0  0  0  0  0
    2.9055    0.6177   -1.0260 O   0  0  0  0  0  0  0  0  0  0  0  0
    0.1089   -1.1391    0.6963 C   0  0  1  0  0  0  0  0  0  0  0  0
    0.0451   -1.3284    2.0854 O   0  0  0  0  0  0  0  0  0  0  0  0
   -1.2832   -0.8900    0.2347 C   0  0  2  0  0  0  0  0  0  0  0  0
   -1.7679   -2.0649   -0.3554 O   0  0  0  0  0  0  0  0  0  0  0  0
   -1.1749   -0.0490   -1.7310 H   0  0  0  0  0  0  0  0  0  0  0  0
   -3.0700    0.8480   -1.6599 H   0  0  0  0  0  0  0  0  0  0  0  0
    1.8610   -0.0827    1.2331 H   0  0  0  0  0  0  0  0  0  0  0  0
    1.2219   -0.1573   -1.7555 H   0  0  0  0  0  0  0  0  0  0  0  0
    2.2735   -1.3388   -0.8966 H   0  0  0  0  0  0  0  0  0  0  0  0
    3.4431    0.5939   -0.1879 H   0  0  0  0  0  0  0  0  0  0  0  0
    0.5402   -2.0830    0.2767 H   0  0  0  0  0  0  0  0  0  0  0  0
    0.9407   -1.3959    2.4879 H   0  0  0  0  0  0  0  0  0  0  0  0
   -1.9999   -0.6905    1.0848 H   0  0  0  0  0  0  0  0  0  0  0  0
   -2.4338   -2.5345    0.1841 H   0  0  0  0  0  0  0  0  0  0  0  0
  1  2  1  0
  1  3  1  0
  3  4  2  0
  4  5  1  0
  5  6  2  0
  6  7  1  0
  7  8  1  0
  8  9  1  0
  9 10  1  0
  8 11  1  0
 11 12  1  0
 11 13  1  0
 13 14  1  0
 13  1  1  0
  7  3  1  0
  1 15  1  6
  2 16  1  0
  8 17  1  1
  9 18  1  0
  9 19  1  0
 10 20  1  0
 11 21  1  6
 12 22  1  0
 13 23  1  1
 14 24  1  0
M  END
$$$$
