@<TRIPOS>MOLECULE
*****
 24 25 0 0 0
SMALL
GASTEIGER

@<TRIPOS>ATOM
      1 C          -1.4521    0.2610   -0.7158 C.3     1  UNL1        0.1441
      2 O          -2.8247    0.5434   -0.7558 O.3     1  UNL1       -0.3813
      3 C          -0.7058    1.4173   -0.1830 C.ar    1  UNL1        0.1829
      4 N          -1.0312    2.7388   -0.1194 N.ar    1  UNL1       -0.1106
      5 N          -0.0081    3.3520    0.4534 N.ar    1  UNL1       -0.0229
      6 N           0.9208    2.4771    0.7415 N.ar    1  UNL1       -0.0434
      7 N           0.5184    1.2712    0.3598 N.ar    1  UNL1       -0.2189
      8 C           1.0961   -0.0594    0.4115 C.3     1  UNL1        0.1076
      9 C           1.8763   -0.3071   -0.8629 C.3     1  UNL1        0.0692
     10 O           2.9055    0.6177   -1.0260 O.3     1  UNL1       -0.3928
     11 C           0.1089   -1.1391    0.6963 C.3     1  UNL1        0.1084
     12 O           0.0451   -1.3284    2.0854 O.3     1  UNL1       -0.3869
     13 C          -1.2832   -0.8900    0.2347 C.3     1  UNL1        0.1160
     14 O          -1.7679   -2.0649   -0.3554 O.3     1  UNL1       -0.3861
     15 H          -1.1749   -0.0490   -1.7310 H       1  UNL1        0.0703
     16 H          -3.0700    0.8480   -1.6599 H       1  UNL1        0.2105
     17 H           1.8610   -0.0827    1.2331 H       1  UNL1        0.0596
     18 H           1.2219   -0.1573   -1.7555 H       1  UNL1        0.0579
     19 H           2.2735   -1.3388   -0.8966 H       1  UNL1        0.0579
     20 H           3.4431    0.5939   -0.1879 H       1  UNL1        0.2095
     21 H           0.5402   -2.0830    0.2767 H       1  UNL1        0.0642
     22 H           0.9407   -1.3959    2.4879 H       1  UNL1        0.2100
     23 H          -1.9999   -0.6905    1.0848 H       1  UNL1        0.0650
     24 H          -2.4338   -2.5345    0.1841 H       1  UNL1        0.2100
@<TRIPOS>BOND
     1     1     2    1
     2     1     3    1
     3     3     4   ar
     4     4     5   ar
     5     5     6   ar
     6     6     7   ar
     7     7     8    1
     8     8     9    1
     9     9    10    1
    10     8    11    1
    11    11    12    1
    12    11    13    1
    13    13    14    1
    14    13     1    1
    15     7     3   ar
    16     1    15    1
    17     2    16    1
    18     8    17    1
    19     9    18    1
    20     9    19    1
    21    10    20    1
    22    11    21    1
    23    12    22    1
    24    13    23    1
    25    14    24    1
