@<TRIPOS>MOLECULE
*****
 44 46 0 0 0
SMALL
GASTEIGER

@<TRIPOS>ATOM
      1 C          -2.6696    0.8315    2.3202 C.3     1  UNL1       -0.0353
      2 C          -2.2694   -0.0033    1.0943 C.3     1  UNL1        0.0939
      3 C          -1.0443   -0.7342    1.5130 C.ar    1  UNL1        0.0028
      4 C           0.1462   -0.4545    0.8158 C.ar    1  UNL1       -0.0334
      5 C           1.3329   -1.0578    1.1050 C.ar    1  UNL1        0.0369
      6 N           2.5375   -0.7895    0.4157 N.am    1  UNL1       -0.2802
      7 C           2.7459    0.1013   -0.6461 C.2     1  UNL1        0.2666
      8 O           1.8300    0.7799   -1.1073 O.2     1  UNL1       -0.2682
      9 C           4.0932    0.2496   -1.2476 C.ar    1  UNL1        0.1257
     10 C           4.3136    1.1171   -2.2874 C.ar    1  UNL1       -0.0298
     11 C           5.5574    1.2821   -2.8740 C.ar    1  UNL1       -0.0397
     12 C           6.6179    0.5445   -2.3936 C.ar    1  UNL1        0.0591
     13 CL          8.2249    0.6864   -3.0719 Cl      1  UNL1       -0.0820
     14 C           6.3713   -0.3214   -1.3471 C.ar    1  UNL1        0.0467
     15 N           5.1415   -0.4604   -0.7941 N.ar    1  UNL1       -0.2489
     16 C           1.3183   -1.9827    2.1417 C.ar    1  UNL1       -0.0037
     17 C           0.1605   -2.2598    2.8254 C.ar    1  UNL1        0.1437
     18 F           0.1772   -3.1718    3.8375 F       1  UNL1       -0.2039
     19 C          -1.0359   -1.6456    2.5271 C.ar    1  UNL1        0.0816
     20 CL         -2.5147   -1.9963    3.3965 Cl      1  UNL1       -0.0802
     21 C          -3.3839   -0.9351    0.7259 C.3     1  UNL1        0.0223
     22 C          -4.1453   -0.5998   -0.5023 C.3     1  UNL1        0.1997
     23 C          -5.2981    0.3291   -0.3273 C.3     1  UNL1        0.4266
     24 F          -4.9843    1.5564    0.1710 F       1  UNL1       -0.1669
     25 F          -6.2834   -0.2763    0.4269 F       1  UNL1       -0.1669
     26 F          -5.8550    0.5333   -1.5914 F       1  UNL1       -0.1669
     27 O          -3.2899   -0.1368   -1.5354 O.2     1  UNL1       -0.4534
     28 C          -2.3753    0.8456   -1.1738 C.2     1  UNL1        0.2765
     29 N          -1.9872    1.7687   -2.1930 N.pl3   1  UNL1       -0.3134
     30 N          -1.9421    0.8735    0.0096 N.2     1  UNL1       -0.2257
     31 H          -3.0457    1.8306    2.0189 H       1  UNL1        0.0256
     32 H          -3.4964    0.2810    2.8080 H       1  UNL1        0.0256
     33 H          -1.8422    0.8963    3.0407 H       1  UNL1        0.0256
     34 H           0.1012    0.2798    0.0110 H       1  UNL1        0.0640
     35 H           3.4324   -1.3212    0.7198 H       1  UNL1        0.1552
     36 H           3.4878    1.7046   -2.6761 H       1  UNL1        0.0641
     37 H           5.7351    1.9645   -3.6933 H       1  UNL1        0.0633
     38 H           7.1775   -0.9137   -0.9467 H       1  UNL1        0.0844
     39 H           2.2655   -2.4641    2.3723 H       1  UNL1        0.0665
     40 H          -4.1206   -0.9586    1.5813 H       1  UNL1        0.0330
     41 H          -2.9424   -1.9659    0.5873 H       1  UNL1        0.0330
     42 H          -4.5740   -1.5654   -0.9052 H       1  UNL1        0.0826
     43 H          -2.2258    2.7791   -2.1557 H       1  UNL1        0.1466
     44 H          -1.4421    1.3813   -2.9957 H       1  UNL1        0.1466
@<TRIPOS>BOND
     1     2     1    1
     2     2     3    1
     3     3     4   ar
     4     4     5   ar
     5     5     6    1
     6     6     7   am
     7     7     8    2
     8     7     9    1
     9     9    10   ar
    10    10    11   ar
    11    11    12   ar
    12    12    13    1
    13    12    14   ar
    14    14    15   ar
    15     5    16   ar
    16    16    17   ar
    17    17    18    1
    18    17    19   ar
    19    19    20    1
    20     2    21    1
    21    21    22    1
    22    22    23    1
    23    23    24    1
    24    23    25    1
    25    23    26    1
    26    22    27    1
    27    27    28    1
    28    28    29    1
    29    28    30    2
    30    30     2    1
    31    19     3   ar
    32    15     9   ar
    33     1    31    1
    34     1    32    1
    35     1    33    1
    36     4    34    1
    37     6    35    1
    38    10    36    1
    39    11    37    1
    40    14    38    1
    41    16    39    1
    42    21    40    1
    43    21    41    1
    44    22    42    1
    45    29    43    1
    46    29    44    1
