
     RDKit          3D

 22 22  0  0  0  0  0  0  0  0999 V2000
    3.5611    0.8466   -1.1412 N   0  0  0  0  0  0  0  0  0  0  0  0
    2.4981    1.3621    0.0942 S   0  0  0  0  0  6  0  0  0  0  0  0
    2.0285    2.7478   -0.2478 O   0  0  0  0  0  0  0  0  0  0  0  0
    3.2583    1.3935    1.4057 O   0  0  0  0  0  0  0  0  0  0  0  0
    1.1489    0.2815    0.3210 C   0  0  0  0  0  0  0  0  0  0  0  0
    1.2005   -0.7751    1.1982 C   0  0  0  0  0  0  0  0  0  0  0  0
    0.1105   -1.6277    1.3650 C   0  0  0  0  0  0  0  0  0  0  0  0
    0.1964   -2.9680    2.4875 Cl  0  0  0  0  0  0  0  0  0  0  0  0
   -1.0404   -1.3751    0.6109 C   0  0  0  0  0  0  0  0  0  0  0  0
   -2.3996   -2.4564    0.8335 Cl  0  0  0  0  0  0  0  0  0  0  0  0
   -1.1121   -0.3230   -0.2722 C   0  0  0  0  0  0  0  0  0  0  0  0
   -2.5686   -0.0405   -1.1965 S   0  0  0  0  0  6  0  0  0  0  0  0
   -3.8525    0.2312   -0.0464 N   0  0  0  0  0  0  0  0  0  0  0  0
   -2.4269    1.0975   -2.1362 O   0  0  0  0  0  0  0  0  0  0  0  0
   -2.9027   -1.3282   -1.8973 O   0  0  0  0  0  0  0  0  0  0  0  0
   -0.0019    0.4978   -0.4037 C   0  0  0  0  0  0  0  0  0  0  0  0
    4.5495    1.0741   -0.9797 H   0  0  0  0  0  0  0  0  0  0  0  0
    3.3646   -0.0805   -1.5272 H   0  0  0  0  0  0  0  0  0  0  0  0
    2.0978   -0.9557    1.7729 H   0  0  0  0  0  0  0  0  0  0  0  0
   -4.0177    1.2661   -0.0007 H   0  0  0  0  0  0  0  0  0  0  0  0
   -3.6048   -0.1828    0.8634 H   0  0  0  0  0  0  0  0  0  0  0  0
   -0.0870    1.3148   -1.1035 H   0  0  0  0  0  0  0  0  0  0  0  0
  1  2  1  0
  2  3  2  0
  2  4  2  0
  2  5  1  0
  5  6  2  0
  6  7  1  0
  7  8  1  0
  7  9  2  0
  9 10  1  0
  9 11  1  0
 11 12  1  0
 12 13  1  0
 12 14  2  0
 12 15  2  0
 11 16  2  0
 16  5  1  0
  1 17  1  0
  1 18  1  0
  6 19  1  0
 13 20  1  0
 13 21  1  0
 16 22  1  0
M  END
$$$$
