@<TRIPOS>MOLECULE
*****
 22 22 0 0 0
SMALL
GASTEIGER

@<TRIPOS>ATOM
      1 N           3.5611    0.8466   -1.1412 N.3     1  UNL1       -0.2035
      2 S           2.4981    1.3621    0.0942 S.O2    1  UNL1        0.0561
      3 O           2.0285    2.7478   -0.2478 O.2     1  UNL1       -0.1533
      4 O           3.2583    1.3935    1.4057 O.2     1  UNL1       -0.1533
      5 C           1.1489    0.2815    0.3210 C.ar    1  UNL1        0.1083
      6 C           1.2005   -0.7751    1.1982 C.ar    1  UNL1       -0.0155
      7 C           0.1105   -1.6277    1.3650 C.ar    1  UNL1        0.0630
      8 CL          0.1964   -2.9680    2.4875 Cl      1  UNL1       -0.0819
      9 C          -1.0404   -1.3751    0.6109 C.ar    1  UNL1        0.0856
     10 CL         -2.3996   -2.4564    0.8335 Cl      1  UNL1       -0.0800
     11 C          -1.1121   -0.3230   -0.2722 C.ar    1  UNL1        0.1265
     12 S          -2.5686   -0.0405   -1.1965 S.O2    1  UNL1        0.0574
     13 N          -3.8525    0.2312   -0.0464 N.3     1  UNL1       -0.2035
     14 O          -2.4269    1.0975   -2.1362 O.2     1  UNL1       -0.1532
     15 O          -2.9027   -1.3282   -1.8973 O.2     1  UNL1       -0.1532
     16 C          -0.0019    0.4978   -0.4037 C.ar    1  UNL1       -0.0075
     17 H           4.5495    1.0741   -0.9797 H       1  UNL1        0.1442
     18 H           3.3646   -0.0805   -1.5272 H       1  UNL1        0.1442
     19 H           2.0978   -0.9557    1.7729 H       1  UNL1        0.0652
     20 H          -4.0177    1.2661   -0.0007 H       1  UNL1        0.1442
     21 H          -3.6048   -0.1828    0.8634 H       1  UNL1        0.1442
     22 H          -0.0870    1.3148   -1.1035 H       1  UNL1        0.0657
@<TRIPOS>BOND
     1     1     2    1
     2     2     3    2
     3     2     4    2
     4     2     5    1
     5     5     6   ar
     6     6     7   ar
     7     7     8    1
     8     7     9   ar
     9     9    10    1
    10     9    11   ar
    11    11    12    1
    12    12    13    1
    13    12    14    2
    14    12    15    2
    15    11    16   ar
    16    16     5   ar
    17     1    17    1
    18     1    18    1
    19     6    19    1
    20    13    20    1
    21    13    21    1
    22    16    22    1
