@<TRIPOS>MOLECULE
*****
 44 44 0 0 0
SMALL
GASTEIGER

@<TRIPOS>ATOM
      1 O           1.7406   -2.3079    0.2648 O.3     1  UNL1       -0.3864
      2 C           0.9738   -1.2676    0.7832 C.3     1  UNL1        0.1135
      3 C           1.6592    0.0298    0.3885 C.3     1  UNL1        0.1266
      4 O           3.0327   -0.1513    0.3036 O.3     1  UNL1       -0.2781
      5 P           3.8455    0.7961    1.4440 P.3     1  UNL1        0.4728
      6 O           4.5538   -0.2448    2.6005 O.3     1  UNL1       -0.3026
      7 O           5.1156    1.6084    0.6456 O.3     1  UNL1       -0.3026
      8 O           2.9295    1.7660    2.1346 O.2     1  UNL1       -0.2275
      9 C           1.0831    0.5376   -0.9402 C.3     1  UNL1        0.1135
     10 O           1.8093    1.7168   -1.2132 O.3     1  UNL1       -0.3864
     11 C          -0.3218    0.9620   -0.6946 C.3     1  UNL1        0.1275
     12 O          -0.9631    1.4539   -1.8168 O.3     1  UNL1       -0.2781
     13 P          -1.3488    3.0529   -1.8275 P.3     1  UNL1        0.4728
     14 O          -0.2901    3.8832   -0.7995 O.3     1  UNL1       -0.3026
     15 O          -1.2301    3.7898   -3.3370 O.3     1  UNL1       -0.3026
     16 O          -2.7607    3.3483   -1.3113 O.2     1  UNL1       -0.2275
     17 C          -1.0901   -0.0421    0.0699 C.3     1  UNL1        0.1283
     18 O          -1.5579    0.3935    1.2945 O.3     1  UNL1       -0.2780
     19 P          -3.1886    0.5055    1.4878 P.3     1  UNL1        0.4728
     20 O          -3.7977   -0.3894    2.7781 O.3     1  UNL1       -0.3026
     21 O          -4.0681    0.0821    0.1026 O.3     1  UNL1       -0.3026
     22 O          -3.5483    1.9592    1.7559 O.2     1  UNL1       -0.2275
     23 C          -0.3968   -1.3567    0.1209 C.3     1  UNL1        0.1275
     24 O          -0.2093   -1.9345   -1.1277 O.3     1  UNL1       -0.2781
     25 P          -0.8677   -3.4788   -1.2106 P.3     1  UNL1        0.4728
     26 O          -1.0592   -4.1365    0.3440 O.3     1  UNL1       -0.3026
     27 O           0.0263   -4.4909   -2.1941 O.3     1  UNL1       -0.3026
     28 O          -2.2614   -3.3419   -1.8177 O.2     1  UNL1       -0.2275
     29 H           2.3485   -2.6828    0.9473 H       1  UNL1        0.2100
     30 H           0.9378   -1.4299    1.8758 H       1  UNL1        0.0647
     31 H           1.4688    0.7618    1.1980 H       1  UNL1        0.0655
     32 H           5.0252    0.2773    3.2879 H       1  UNL1        0.2220
     33 H           4.8058    1.8909   -0.2706 H       1  UNL1        0.2220
     34 H           1.2412   -0.2194   -1.7134 H       1  UNL1        0.0647
     35 H           1.8447    2.2074   -0.3540 H       1  UNL1        0.2100
     36 H          -0.2250    1.8729   -0.0255 H       1  UNL1        0.0656
     37 H          -0.6671    4.7896   -0.6911 H       1  UNL1        0.2220
     38 H          -1.0774    3.1011   -4.0505 H       1  UNL1        0.2220
     39 H          -2.0350   -0.2234   -0.5297 H       1  UNL1        0.0656
     40 H          -3.1158   -0.9470    3.2271 H       1  UNL1        0.2220
     41 H          -4.9497   -0.2173    0.3778 H       1  UNL1        0.2220
     42 H          -0.9474   -2.1194    0.7163 H       1  UNL1        0.0656
     43 H          -1.9277   -4.6184    0.4370 H       1  UNL1        0.2220
     44 H          -0.5369   -5.1862   -2.6604 H       1  UNL1        0.2220
@<TRIPOS>BOND
     1     1     2    1
     2     2     3    1
     3     3     4    1
     4     4     5    1
     5     5     6    1
     6     5     7    1
     7     5     8    2
     8     3     9    1
     9     9    10    1
    10     9    11    1
    11    11    12    1
    12    12    13    1
    13    13    14    1
    14    13    15    1
    15    13    16    2
    16    11    17    1
    17    17    18    1
    18    18    19    1
    19    19    20    1
    20    19    21    1
    21    19    22    2
    22    17    23    1
    23    23    24    1
    24    24    25    1
    25    25    26    1
    26    25    27    1
    27    25    28    2
    28    23     2    1
    29     1    29    1
    30     2    30    1
    31     3    31    1
    32     6    32    1
    33     7    33    1
    34     9    34    1
    35    10    35    1
    36    11    36    1
    37    14    37    1
    38    15    38    1
    39    17    39    1
    40    20    40    1
    41    21    41    1
    42    23    42    1
    43    26    43    1
    44    27    44    1
