
     RDKit          3D

 44 44  0  0  0  0  0  0  0  0999 V2000
    1.7406   -2.3079    0.2648 O   0  0  0  0  0  0  0  0  0  0  0  0
    0.9738   -1.2676    0.7832 C   0  0  1  0  0  0  0  0  0  0  0  0
    1.6592    0.0298    0.3885 C   0  0  1  0  0  0  0  0  0  0  0  0
    3.0327   -0.1513    0.3036 O   0  0  0  0  0  0  0  0  0  0  0  0
    3.8455    0.7961    1.4440 P   0  0  0  0  0  0  0  0  0  0  0  0
    4.5538   -0.2448    2.6005 O   0  0  0  0  0  0  0  0  0  0  0  0
    5.1156    1.6084    0.6456 O   0  0  0  0  0  0  0  0  0  0  0  0
    2.9295    1.7660    2.1346 O   0  0  0  0  0  0  0  0  0  0  0  0
    1.0831    0.5376   -0.9402 C   0  0  2  0  0  0  0  0  0  0  0  0
    1.8093    1.7168   -1.2132 O   0  0  0  0  0  0  0  0  0  0  0  0
   -0.3218    0.9620   -0.6946 C   0  0  1  0  0  0  0  0  0  0  0  0
   -0.9631    1.4539   -1.8168 O   0  0  0  0  0  0  0  0  0  0  0  0
   -1.3488    3.0529   -1.8275 P   0  0  0  0  0  0  0  0  0  0  0  0
   -0.2901    3.8832   -0.7995 O   0  0  0  0  0  0  0  0  0  0  0  0
   -1.2301    3.7898   -3.3370 O   0  0  0  0  0  0  0  0  0  0  0  0
   -2.7607    3.3483   -1.3113 O   0  0  0  0  0  0  0  0  0  0  0  0
   -1.0901   -0.0421    0.0699 C   0  0  2  0  0  0  0  0  0  0  0  0
   -1.5579    0.3935    1.2945 O   0  0  0  0  0  0  0  0  0  0  0  0
   -3.1886    0.5055    1.4878 P   0  0  0  0  0  0  0  0  0  0  0  0
   -3.7977   -0.3894    2.7781 O   0  0  0  0  0  0  0  0  0  0  0  0
   -4.0681    0.0821    0.1026 O   0  0  0  0  0  0  0  0  0  0  0  0
   -3.5483    1.9592    1.7559 O   0  0  0  0  0  0  0  0  0  0  0  0
   -0.3968   -1.3567    0.1209 C   0  0  1  0  0  0  0  0  0  0  0  0
   -0.2093   -1.9345   -1.1277 O   0  0  0  0  0  0  0  0  0  0  0  0
   -0.8677   -3.4788   -1.2106 P   0  0  0  0  0  0  0  0  0  0  0  0
   -1.0592   -4.1365    0.3440 O   0  0  0  0  0  0  0  0  0  0  0  0
    0.0263   -4.4909   -2.1941 O   0  0  0  0  0  0  0  0  0  0  0  0
   -2.2614   -3.3419   -1.8177 O   0  0  0  0  0  0  0  0  0  0  0  0
    2.3485   -2.6828    0.9473 H   0  0  0  0  0  0  0  0  0  0  0  0
    0.9378   -1.4299    1.8758 H   0  0  0  0  0  0  0  0  0  0  0  0
    1.4688    0.7618    1.1980 H   0  0  0  0  0  0  0  0  0  0  0  0
    5.0252    0.2773    3.2879 H   0  0  0  0  0  0  0  0  0  0  0  0
    4.8058    1.8909   -0.2706 H   0  0  0  0  0  0  0  0  0  0  0  0
    1.2412   -0.2194   -1.7134 H   0  0  0  0  0  0  0  0  0  0  0  0
    1.8447    2.2074   -0.3540 H   0  0  0  0  0  0  0  0  0  0  0  0
   -0.2250    1.8729   -0.0255 H   0  0  0  0  0  0  0  0  0  0  0  0
   -0.6671    4.7896   -0.6911 H   0  0  0  0  0  0  0  0  0  0  0  0
   -1.0774    3.1011   -4.0505 H   0  0  0  0  0  0  0  0  0  0  0  0
   -2.0350   -0.2234   -0.5297 H   0  0  0  0  0  0  0  0  0  0  0  0
   -3.1158   -0.9470    3.2271 H   0  0  0  0  0  0  0  0  0  0  0  0
   -4.9497   -0.2173    0.3778 H   0  0  0  0  0  0  0  0  0  0  0  0
   -0.9474   -2.1194    0.7163 H   0  0  0  0  0  0  0  0  0  0  0  0
   -1.9277   -4.6184    0.4370 H   0  0  0  0  0  0  0  0  0  0  0  0
   -0.5369   -5.1862   -2.6604 H   0  0  0  0  0  0  0  0  0  0  0  0
  1  2  1  0
  2  3  1  0
  3  4  1  0
  4  5  1  0
  5  6  1  0
  5  7  1  0
  5  8  2  0
  3  9  1  0
  9 10  1  0
  9 11  1  0
 11 12  1  0
 12 13  1  0
 13 14  1  0
 13 15  1  0
 13 16  2  0
 11 17  1  0
 17 18  1  0
 18 19  1  0
 19 20  1  0
 19 21  1  0
 19 22  2  0
 17 23  1  0
 23 24  1  0
 24 25  1  0
 25 26  1  0
 25 27  1  0
 25 28  2  0
 23  2  1  0
  1 29  1  0
  2 30  1  1
  3 31  1  1
  6 32  1  0
  7 33  1  0
  9 34  1  6
 10 35  1  0
 11 36  1  1
 14 37  1  0
 15 38  1  0
 17 39  1  6
 20 40  1  0
 21 41  1  0
 23 42  1  1
 26 43  1  0
 27 44  1  0
M  END
$$$$
