@<TRIPOS>MOLECULE
*****
 31 31 0 0 0
SMALL
GASTEIGER

@<TRIPOS>ATOM
      1 CL          3.0088   -1.5159    2.4309 Cl      1  UNL1       -0.1237
      2 C           4.2936   -1.0765    1.2973 C.3     1  UNL1        0.0405
      3 C           3.9358    0.1972    0.5495 C.3     1  UNL1        0.0557
      4 N           2.7156    0.0367   -0.2018 N.am    1  UNL1       -0.1401
      5 N           2.7672   -0.4260   -1.5301 N.2     1  UNL1        0.0527
      6 O           2.6798   -1.6270   -1.8338 O.2     1  UNL1       -0.1256
      7 C           1.4717    0.3499    0.4133 C.2     1  UNL1        0.3244
      8 O           1.4985    0.7597    1.6065 O.2     1  UNL1       -0.2508
      9 N           0.2516    0.2012   -0.3037 N.am    1  UNL1       -0.2950
     10 C          -1.0779    0.5011    0.2528 C.3     1  UNL1        0.0246
     11 C          -1.8376   -0.7761    0.3501 C.3     1  UNL1       -0.0345
     12 C          -2.7459   -1.0634   -0.8113 C.3     1  UNL1       -0.0514
     13 C          -3.6597    0.1170   -0.9953 C.3     1  UNL1       -0.0529
     14 C          -2.7688    1.2445   -1.4671 C.3     1  UNL1       -0.0514
     15 C          -1.7019    1.6114   -0.4827 C.3     1  UNL1       -0.0345
     16 H           4.4894   -1.9098    0.5765 H       1  UNL1        0.0446
     17 H           5.2220   -0.9425    1.8867 H       1  UNL1        0.0446
     18 H           3.7699    0.9867    1.3138 H       1  UNL1        0.0498
     19 H           4.8142    0.4828   -0.0715 H       1  UNL1        0.0498
     20 H           0.3385   -0.1449   -1.2860 H       1  UNL1        0.1506
     21 H          -0.8667    0.8426    1.2906 H       1  UNL1        0.0499
     22 H          -2.4825   -0.8240    1.2535 H       1  UNL1        0.0283
     23 H          -1.1479   -1.6441    0.4289 H       1  UNL1        0.0283
     24 H          -3.3350   -1.9550   -0.5791 H       1  UNL1        0.0266
     25 H          -2.2046   -1.2301   -1.7538 H       1  UNL1        0.0266
     26 H          -4.2579    0.3732   -0.1203 H       1  UNL1        0.0265
     27 H          -4.3300   -0.1307   -1.8455 H       1  UNL1        0.0265
     28 H          -2.3161    0.9104   -2.4238 H       1  UNL1        0.0266
     29 H          -3.4355    2.0936   -1.6811 H       1  UNL1        0.0266
     30 H          -0.9201    2.1806   -1.0325 H       1  UNL1        0.0283
     31 H          -2.1684    2.3775    0.2068 H       1  UNL1        0.0283
@<TRIPOS>BOND
     1     1     2    1
     2     2     3    1
     3     3     4    1
     4     4     5    1
     5     5     6    2
     6     4     7   am
     7     7     8    2
     8     7     9   am
     9     9    10    1
    10    10    11    1
    11    11    12    1
    12    12    13    1
    13    13    14    1
    14    14    15    1
    15    15    10    1
    16     2    16    1
    17     2    17    1
    18     3    18    1
    19     3    19    1
    20     9    20    1
    21    10    21    1
    22    11    22    1
    23    11    23    1
    24    12    24    1
    25    12    25    1
    26    13    26    1
    27    13    27    1
    28    14    28    1
    29    14    29    1
    30    15    30    1
    31    15    31    1
