
     RDKit          3D

 31 31  0  0  0  0  0  0  0  0999 V2000
    3.0088   -1.5159    2.4309 Cl  0  0  0  0  0  0  0  0  0  0  0  0
    4.2936   -1.0765    1.2973 C   0  0  0  0  0  0  0  0  0  0  0  0
    3.9358    0.1972    0.5495 C   0  0  0  0  0  0  0  0  0  0  0  0
    2.7156    0.0367   -0.2018 N   0  0  0  0  0  0  0  0  0  0  0  0
    2.7672   -0.4260   -1.5301 N   0  0  0  0  0  0  0  0  0  0  0  0
    2.6798   -1.6270   -1.8338 O   0  0  0  0  0  0  0  0  0  0  0  0
    1.4717    0.3499    0.4133 C   0  0  0  0  0  0  0  0  0  0  0  0
    1.4985    0.7597    1.6065 O   0  0  0  0  0  0  0  0  0  0  0  0
    0.2516    0.2012   -0.3037 N   0  0  0  0  0  0  0  0  0  0  0  0
   -1.0779    0.5011    0.2528 C   0  0  0  0  0  0  0  0  0  0  0  0
   -1.8376   -0.7761    0.3501 C   0  0  0  0  0  0  0  0  0  0  0  0
   -2.7459   -1.0634   -0.8113 C   0  0  0  0  0  0  0  0  0  0  0  0
   -3.6597    0.1170   -0.9953 C   0  0  0  0  0  0  0  0  0  0  0  0
   -2.7688    1.2445   -1.4671 C   0  0  0  0  0  0  0  0  0  0  0  0
   -1.7019    1.6114   -0.4827 C   0  0  0  0  0  0  0  0  0  0  0  0
    4.4894   -1.9098    0.5765 H   0  0  0  0  0  0  0  0  0  0  0  0
    5.2220   -0.9425    1.8867 H   0  0  0  0  0  0  0  0  0  0  0  0
    3.7699    0.9867    1.3138 H   0  0  0  0  0  0  0  0  0  0  0  0
    4.8142    0.4828   -0.0715 H   0  0  0  0  0  0  0  0  0  0  0  0
    0.3385   -0.1449   -1.2860 H   0  0  0  0  0  0  0  0  0  0  0  0
   -0.8667    0.8426    1.2906 H   0  0  0  0  0  0  0  0  0  0  0  0
   -2.4825   -0.8240    1.2535 H   0  0  0  0  0  0  0  0  0  0  0  0
   -1.1479   -1.6441    0.4289 H   0  0  0  0  0  0  0  0  0  0  0  0
   -3.3350   -1.9550   -0.5791 H   0  0  0  0  0  0  0  0  0  0  0  0
   -2.2046   -1.2301   -1.7538 H   0  0  0  0  0  0  0  0  0  0  0  0
   -4.2579    0.3732   -0.1203 H   0  0  0  0  0  0  0  0  0  0  0  0
   -4.3300   -0.1307   -1.8455 H   0  0  0  0  0  0  0  0  0  0  0  0
   -2.3161    0.9104   -2.4238 H   0  0  0  0  0  0  0  0  0  0  0  0
   -3.4355    2.0936   -1.6811 H   0  0  0  0  0  0  0  0  0  0  0  0
   -0.9201    2.1806   -1.0325 H   0  0  0  0  0  0  0  0  0  0  0  0
   -2.1684    2.3775    0.2068 H   0  0  0  0  0  0  0  0  0  0  0  0
  1  2  1  0
  2  3  1  0
  3  4  1  0
  4  5  1  0
  5  6  2  0
  4  7  1  0
  7  8  2  0
  7  9  1  0
  9 10  1  0
 10 11  1  0
 11 12  1  0
 12 13  1  0
 13 14  1  0
 14 15  1  0
 15 10  1  0
  2 16  1  0
  2 17  1  0
  3 18  1  0
  3 19  1  0
  9 20  1  0
 10 21  1  0
 11 22  1  0
 11 23  1  0
 12 24  1  0
 12 25  1  0
 13 26  1  0
 13 27  1  0
 14 28  1  0
 14 29  1  0
 15 30  1  0
 15 31  1  0
M  END
$$$$
