@<TRIPOS>MOLECULE
*****
 51 53 0 0 0
SMALL
GASTEIGER

@<TRIPOS>ATOM
      1 N           5.1467   -3.6277   -2.7436 N.1     1  UNL1       -0.1909
      2 C           5.7198   -2.6387   -2.2967 C.1     1  UNL1        0.0995
      3 C           6.3495   -1.5067   -1.7829 C.ar    1  UNL1        0.0582
      4 C           7.6615   -1.1766   -2.1460 C.ar    1  UNL1       -0.0440
      5 C           8.2771   -0.0740   -1.6216 C.ar    1  UNL1       -0.0605
      6 C           7.6280    0.7485   -0.7188 C.ar    1  UNL1       -0.0613
      7 C           6.3220    0.4389   -0.3435 C.ar    1  UNL1       -0.0541
      8 C           5.6885   -0.6866   -0.8751 C.ar    1  UNL1        0.0069
      9 C           4.2757   -0.9392   -0.4251 C.3     1  UNL1        0.1158
     10 O           3.3445   -0.6783   -1.4957 O.3     1  UNL1       -0.4873
     11 C           1.9962   -0.7956   -1.1804 C.ar    1  UNL1        0.1211
     12 C           1.5646   -1.1130    0.0797 C.ar    1  UNL1       -0.0181
     13 C           0.2629   -1.2467    0.4663 C.ar    1  UNL1       -0.0319
     14 C          -0.7020   -1.0411   -0.4939 C.ar    1  UNL1        0.1057
     15 S          -2.3975   -1.2179   -0.0394 S.O2    1  UNL1        0.0616
     16 O          -2.4330   -2.0656    1.2464 O.2     1  UNL1       -0.1528
     17 O          -3.1687   -1.9859   -1.0532 O.2     1  UNL1       -0.1528
     18 N          -3.1304    0.2620    0.3504 N.3     1  UNL1       -0.1622
     19 C          -2.6200    0.9832    1.4365 C.3     1  UNL1        0.0473
     20 C          -3.0188    2.4685    1.2721 C.3     1  UNL1        0.0696
     21 O          -2.6005    3.1464    2.3914 O.3     1  UNL1       -0.3905
     22 C          -4.5587    2.4750    1.2309 C.3     1  UNL1       -0.0237
     23 C          -4.9723    1.7686   -0.0341 C.3     1  UNL1       -0.0248
     24 C          -4.5309    0.2992    0.1773 C.3     1  UNL1        0.1099
     25 C          -5.3290   -0.2803    1.2802 C.2     1  UNL1        0.2543
     26 O          -4.7637   -0.8110    2.3020 O.2     1  UNL1       -0.2719
     27 N          -6.7638   -0.2848    1.2729 N.am    1  UNL1       -0.1961
     28 O          -7.4777   -0.8113    2.2804 O.3     1  UNL1       -0.2951
     29 C          -0.3484   -0.7175   -1.7871 C.ar    1  UNL1       -0.0319
     30 C           1.0008   -0.5955   -2.1343 C.ar    1  UNL1       -0.0181
     31 H           8.1325   -1.8375   -2.8308 H       1  UNL1        0.0630
     32 H           9.2883    0.1727   -1.9147 H       1  UNL1        0.0618
     33 H           8.1480    1.5914   -0.3344 H       1  UNL1        0.0618
     34 H           5.7798    1.0727    0.3808 H       1  UNL1        0.0622
     35 H           4.1505   -2.0146   -0.1150 H       1  UNL1        0.0748
     36 H           4.0356   -0.2528    0.3958 H       1  UNL1        0.0748
     37 H           2.3469   -1.2501    0.8247 H       1  UNL1        0.0655
     38 H           0.0381   -1.5170    1.4882 H       1  UNL1        0.0638
     39 H          -1.5130    0.9168    1.5101 H       1  UNL1        0.0470
     40 H          -3.0612    0.6774    2.4189 H       1  UNL1        0.0470
     41 H          -2.5934    2.8052    0.3145 H       1  UNL1        0.0606
     42 H          -1.6106    3.2886    2.3216 H       1  UNL1        0.2098
     43 H          -4.9609    3.4733    1.3695 H       1  UNL1        0.0291
     44 H          -4.8587    1.8601    2.1200 H       1  UNL1        0.0291
     45 H          -6.0322    1.8187   -0.2691 H       1  UNL1        0.0286
     46 H          -4.3933    2.1280   -0.9093 H       1  UNL1        0.0286
     47 H          -4.8551   -0.2041   -0.7756 H       1  UNL1        0.0576
     48 H          -7.2246    0.1394    0.4378 H       1  UNL1        0.1822
     49 H          -7.4355   -0.2374    3.1013 H       1  UNL1        0.2414
     50 H          -1.0999   -0.5596   -2.5482 H       1  UNL1        0.0638
     51 H           1.2961   -0.3676   -3.1249 H       1  UNL1        0.0655
@<TRIPOS>BOND
     1     1     2    3
     2     2     3    1
     3     3     4   ar
     4     4     5   ar
     5     5     6   ar
     6     6     7   ar
     7     7     8   ar
     8     8     9    1
     9     9    10    1
    10    10    11    1
    11    11    12   ar
    12    12    13   ar
    13    13    14   ar
    14    14    15    1
    15    15    16    2
    16    15    17    2
    17    15    18    1
    18    18    19    1
    19    19    20    1
    20    20    21    1
    21    20    22    1
    22    22    23    1
    23    23    24    1
    24    24    25    1
    25    25    26    2
    26    25    27   am
    27    27    28    1
    28    14    29   ar
    29    29    30   ar
    30     8     3   ar
    31    30    11   ar
    32    24    18    1
    33     4    31    1
    34     5    32    1
    35     6    33    1
    36     7    34    1
    37     9    35    1
    38     9    36    1
    39    12    37    1
    40    13    38    1
    41    19    39    1
    42    19    40    1
    43    20    41    1
    44    21    42    1
    45    22    43    1
    46    22    44    1
    47    23    45    1
    48    23    46    1
    49    24    47    1
    50    27    48    1
    51    28    49    1
    52    29    50    1
    53    30    51    1
