@<TRIPOS>MOLECULE
*****
 36 35 0 0 0
SMALL
GASTEIGER

@<TRIPOS>ATOM
      1 O           0.5390   -0.0588    1.8008 O.3     1  UNL1       -0.3868
      2 C           1.2496   -0.8951    0.9794 C.3     1  UNL1        0.1073
      3 C           2.6336   -0.3164    0.7774 C.3     1  UNL1        0.0875
      4 O           2.5131    0.9338    0.1974 O.3     1  UNL1       -0.2841
      5 P           4.0285    1.6501   -0.0632 P.3     1  UNL1        0.4724
      6 O           5.1896    0.4298   -0.2533 O.3     1  UNL1       -0.3026
      7 O           3.9526    2.6341   -1.4366 O.3     1  UNL1       -0.3026
      8 O           4.4458    2.5125    1.1070 O.2     1  UNL1       -0.2275
      9 C           0.5717   -1.1631   -0.3609 C.3     1  UNL1        0.1115
     10 O           1.4768   -2.0314   -1.0218 O.3     1  UNL1       -0.3865
     11 C          -0.6761   -1.9550   -0.1960 C.3     1  UNL1        0.1115
     12 O          -1.1313   -2.3248   -1.4696 O.3     1  UNL1       -0.3865
     13 C          -1.7968   -1.2990    0.5353 C.3     1  UNL1        0.1073
     14 O          -2.8300   -2.2629    0.6089 O.3     1  UNL1       -0.3868
     15 C          -2.3741   -0.0899   -0.0989 C.3     1  UNL1        0.0875
     16 O          -3.4335    0.3230    0.7435 O.3     1  UNL1       -0.2841
     17 P          -4.1941    1.6908    0.1565 P.3     1  UNL1        0.4724
     18 O          -3.6165    3.0307    1.0131 O.3     1  UNL1       -0.3026
     19 O          -3.9453    1.9048   -1.4985 O.3     1  UNL1       -0.3026
     20 O          -5.6984    1.6640    0.3851 O.2     1  UNL1       -0.2275
     21 H           0.8044    0.8858    1.7392 H       1  UNL1        0.2100
     22 H           1.3428   -1.9103    1.4520 H       1  UNL1        0.0643
     23 H           3.2777   -0.9948    0.1706 H       1  UNL1        0.0592
     24 H           3.0984   -0.1983    1.7646 H       1  UNL1        0.0592
     25 H           5.6619    0.6067   -1.1003 H       1  UNL1        0.2220
     26 H           4.7520    3.2311   -1.4034 H       1  UNL1        0.2220
     27 H           0.4869   -0.2831   -0.9951 H       1  UNL1        0.0647
     28 H           1.5407   -2.8074   -0.3784 H       1  UNL1        0.2100
     29 H          -0.4331   -2.8949    0.3416 H       1  UNL1        0.0647
     30 H          -1.6464   -3.1584   -1.4589 H       1  UNL1        0.2100
     31 H          -1.5477   -1.0794    1.5879 H       1  UNL1        0.0643
     32 H          -3.2077   -2.4634   -0.2758 H       1  UNL1        0.2100
     33 H          -2.8206   -0.2560   -1.0893 H       1  UNL1        0.0592
     34 H          -1.6945    0.7722   -0.1602 H       1  UNL1        0.0592
     35 H          -3.3646    3.7261    0.3641 H       1  UNL1        0.2220
     36 H          -3.1543    2.4471   -1.6776 H       1  UNL1        0.2220
@<TRIPOS>BOND
     1     1     2    1
     2     2     3    1
     3     3     4    1
     4     4     5    1
     5     5     6    1
     6     5     7    1
     7     5     8    2
     8     2     9    1
     9     9    10    1
    10     9    11    1
    11    11    12    1
    12    11    13    1
    13    13    14    1
    14    13    15    1
    15    15    16    1
    16    16    17    1
    17    17    18    1
    18    17    19    1
    19    17    20    2
    20     1    21    1
    21     2    22    1
    22     3    23    1
    23     3    24    1
    24     6    25    1
    25     7    26    1
    26     9    27    1
    27    10    28    1
    28    11    29    1
    29    12    30    1
    30    13    31    1
    31    14    32    1
    32    15    33    1
    33    15    34    1
    34    18    35    1
    35    19    36    1
