
     RDKit          3D

 36 35  0  0  0  0  0  0  0  0999 V2000
    0.5390   -0.0588    1.8008 O   0  0  0  0  0  0  0  0  0  0  0  0
    1.2496   -0.8951    0.9794 C   0  0  2  0  0  0  0  0  0  0  0  0
    2.6336   -0.3164    0.7774 C   0  0  0  0  0  0  0  0  0  0  0  0
    2.5131    0.9338    0.1974 O   0  0  0  0  0  0  0  0  0  0  0  0
    4.0285    1.6501   -0.0632 P   0  0  0  0  0  0  0  0  0  0  0  0
    5.1896    0.4298   -0.2533 O   0  0  0  0  0  0  0  0  0  0  0  0
    3.9526    2.6341   -1.4366 O   0  0  0  0  0  0  0  0  0  0  0  0
    4.4458    2.5125    1.1070 O   0  0  0  0  0  0  0  0  0  0  0  0
    0.5717   -1.1631   -0.3609 C   0  0  1  0  0  0  0  0  0  0  0  0
    1.4768   -2.0314   -1.0218 O   0  0  0  0  0  0  0  0  0  0  0  0
   -0.6761   -1.9550   -0.1960 C   0  0  2  0  0  0  0  0  0  0  0  0
   -1.1313   -2.3248   -1.4696 O   0  0  0  0  0  0  0  0  0  0  0  0
   -1.7968   -1.2990    0.5353 C   0  0  2  0  0  0  0  0  0  0  0  0
   -2.8300   -2.2629    0.6089 O   0  0  0  0  0  0  0  0  0  0  0  0
   -2.3741   -0.0899   -0.0989 C   0  0  0  0  0  0  0  0  0  0  0  0
   -3.4335    0.3230    0.7435 O   0  0  0  0  0  0  0  0  0  0  0  0
   -4.1941    1.6908    0.1565 P   0  0  0  0  0  0  0  0  0  0  0  0
   -3.6165    3.0307    1.0131 O   0  0  0  0  0  0  0  0  0  0  0  0
   -3.9453    1.9048   -1.4985 O   0  0  0  0  0  0  0  0  0  0  0  0
   -5.6984    1.6640    0.3851 O   0  0  0  0  0  0  0  0  0  0  0  0
    0.8044    0.8858    1.7392 H   0  0  0  0  0  0  0  0  0  0  0  0
    1.3428   -1.9103    1.4520 H   0  0  0  0  0  0  0  0  0  0  0  0
    3.2777   -0.9948    0.1706 H   0  0  0  0  0  0  0  0  0  0  0  0
    3.0984   -0.1983    1.7646 H   0  0  0  0  0  0  0  0  0  0  0  0
    5.6619    0.6067   -1.1003 H   0  0  0  0  0  0  0  0  0  0  0  0
    4.7520    3.2311   -1.4034 H   0  0  0  0  0  0  0  0  0  0  0  0
    0.4869   -0.2831   -0.9951 H   0  0  0  0  0  0  0  0  0  0  0  0
    1.5407   -2.8074   -0.3784 H   0  0  0  0  0  0  0  0  0  0  0  0
   -0.4331   -2.8949    0.3416 H   0  0  0  0  0  0  0  0  0  0  0  0
   -1.6464   -3.1584   -1.4589 H   0  0  0  0  0  0  0  0  0  0  0  0
   -1.5477   -1.0794    1.5879 H   0  0  0  0  0  0  0  0  0  0  0  0
   -3.2077   -2.4634   -0.2758 H   0  0  0  0  0  0  0  0  0  0  0  0
   -2.8206   -0.2560   -1.0893 H   0  0  0  0  0  0  0  0  0  0  0  0
   -1.6945    0.7722   -0.1602 H   0  0  0  0  0  0  0  0  0  0  0  0
   -3.3646    3.7261    0.3641 H   0  0  0  0  0  0  0  0  0  0  0  0
   -3.1543    2.4471   -1.6776 H   0  0  0  0  0  0  0  0  0  0  0  0
  1  2  1  0
  2  3  1  0
  3  4  1  0
  4  5  1  0
  5  6  1  0
  5  7  1  0
  5  8  2  0
  2  9  1  0
  9 10  1  0
  9 11  1  0
 11 12  1  0
 11 13  1  0
 13 14  1  0
 13 15  1  0
 15 16  1  0
 16 17  1  0
 17 18  1  0
 17 19  1  0
 17 20  2  0
  1 21  1  0
  2 22  1  1
  3 23  1  0
  3 24  1  0
  6 25  1  0
  7 26  1  0
  9 27  1  6
 10 28  1  0
 11 29  1  1
 12 30  1  0
 13 31  1  1
 14 32  1  0
 15 33  1  0
 15 34  1  0
 18 35  1  0
 19 36  1  0
M  END
$$$$
