
     RDKit          3D

 43 45  0  0  0  0  0  0  0  0999 V2000
    3.9778    1.9382   -1.7991 C   0  0  0  0  0  0  0  0  0  0  0  0
    3.6814    1.0658   -0.6338 C   0  0  0  0  0  0  0  0  0  0  0  0
    2.7029    0.0723   -0.6065 C   0  0  0  0  0  0  0  0  0  0  0  0
    2.4665   -0.7241    0.5233 C   0  0  0  0  0  0  0  0  0  0  0  0
    1.3868   -1.6712    0.2223 C   0  0  0  0  0  0  0  0  0  0  0  0
    0.0197   -1.1091    0.2955 C   0  0  0  0  0  0  0  0  0  0  0  0
   -0.6473   -0.7209   -0.8172 N   0  0  0  0  0  0  0  0  0  0  0  0
   -1.8333   -0.2296   -0.5300 N   0  0  0  0  0  0  0  0  0  0  0  0
   -2.0401   -0.2564    0.7973 C   0  0  0  0  0  0  0  0  0  0  0  0
   -0.8785   -0.8064    1.2931 C   0  0  0  0  0  0  0  0  0  0  0  0
   -0.7254   -0.9982    2.6481 C   0  0  0  0  0  0  0  0  0  0  0  0
    0.4532   -1.5750    3.1840 N   0  0  0  0  0  0  0  0  0  0  0  0
   -1.6907   -0.6558    3.4901 N   0  0  0  0  0  0  0  0  0  0  0  0
   -2.8111   -0.1232    2.9991 C   0  0  0  0  0  0  0  0  0  0  0  0
   -2.9960    0.0780    1.6836 N   0  0  0  0  0  0  0  0  0  0  0  0
   -2.8148    0.2798   -1.4732 C   0  0  0  0  0  0  0  0  0  0  0  0
   -3.4637    1.5525   -1.0272 C   0  0  0  0  0  0  0  0  0  0  0  0
   -3.8384   -0.8253   -1.6890 C   0  0  0  0  0  0  0  0  0  0  0  0
   -2.1845    0.5442   -2.8263 C   0  0  0  0  0  0  0  0  0  0  0  0
    3.2592   -0.4643    1.5997 C   0  0  0  0  0  0  0  0  0  0  0  0
    4.2352    0.5018    1.6228 C   0  0  0  0  0  0  0  0  0  0  0  0
    4.4483    1.2678    0.5082 C   0  0  0  0  0  0  0  0  0  0  0  0
    3.6998    1.4917   -2.7614 H   0  0  0  0  0  0  0  0  0  0  0  0
    3.5378    2.9412   -1.6207 H   0  0  0  0  0  0  0  0  0  0  0  0
    5.1017    2.0330   -1.8421 H   0  0  0  0  0  0  0  0  0  0  0  0
    2.1896    0.0412   -1.5818 H   0  0  0  0  0  0  0  0  0  0  0  0
    1.5188   -2.1649   -0.7770 H   0  0  0  0  0  0  0  0  0  0  0  0
    1.4439   -2.5340    0.9434 H   0  0  0  0  0  0  0  0  0  0  0  0
    0.9646   -2.4816    3.2843 H   0  0  0  0  0  0  0  0  0  0  0  0
    0.9827   -2.4566    3.2993 H   0  0  0  0  0  0  0  0  0  0  0  0
   -3.6887    0.2071    3.5583 H   0  0  0  0  0  0  0  0  0  0  0  0
   -4.5274    1.5479   -1.3470 H   0  0  0  0  0  0  0  0  0  0  0  0
   -3.0044    2.4366   -1.5523 H   0  0  0  0  0  0  0  0  0  0  0  0
   -3.4571    1.7372    0.0453 H   0  0  0  0  0  0  0  0  0  0  0  0
   -4.8300   -0.4222   -2.0062 H   0  0  0  0  0  0  0  0  0  0  0  0
   -3.4436   -1.5291   -2.4300 H   0  0  0  0  0  0  0  0  0  0  0  0
   -4.0160   -1.3705   -0.7347 H   0  0  0  0  0  0  0  0  0  0  0  0
   -1.6346   -0.3181   -3.2136 H   0  0  0  0  0  0  0  0  0  0  0  0
   -1.5522    1.4730   -2.7956 H   0  0  0  0  0  0  0  0  0  0  0  0
   -3.0195    0.7709   -3.5221 H   0  0  0  0  0  0  0  0  0  0  0  0
    3.0335   -1.1150    2.4277 H   0  0  0  0  0  0  0  0  0  0  0  0
    4.7605    0.5625    2.5618 H   0  0  0  0  0  0  0  0  0  0  0  0
    5.2331    2.0089    0.5993 H   0  0  0  0  0  0  0  0  0  0  0  0
  1  2  1  0
  2  3  2  0
  3  4  1  0
  4  5  1  0
  5  6  1  0
  6  7  2  0
  7  8  1  0
  8  9  1  0
  9 10  2  0
 10 11  1  0
 11 12  1  0
 11 13  2  0
 13 14  1  0
 14 15  2  0
  8 16  1  0
 16 17  1  0
 16 18  1  0
 16 19  1  0
  4 20  2  0
 20 21  1  0
 21 22  2  0
 22  2  1  0
 10  6  1  0
 15  9  1  0
  1 23  1  0
  1 24  1  0
  1 25  1  0
  3 26  1  0
  5 27  1  0
  5 28  1  0
 12 29  1  0
 12 30  1  0
 14 31  1  0
 17 32  1  0
 17 33  1  0
 17 34  1  0
 18 35  1  0
 18 36  1  0
 18 37  1  0
 19 38  1  0
 19 39  1  0
 19 40  1  0
 20 41  1  0
 21 42  1  0
 22 43  1  0
M  END
$$$$
