
     RDKit          3D

 56 59  0  0  0  0  0  0  0  0999 V2000
   -2.5439   -4.1077    0.2637 C   0  0  0  0  0  0  0  0  0  0  0  0
   -2.5210   -2.6957   -0.0703 N   0  0  0  0  0  0  0  0  0  0  0  0
   -3.3484   -2.4185   -1.2284 C   0  0  0  0  0  0  0  0  0  0  0  0
   -2.9894   -1.9473    1.0898 C   0  0  0  0  0  0  0  0  0  0  0  0
   -2.9994   -0.4686    0.8368 C   0  0  0  0  0  0  0  0  0  0  0  0
   -1.6932    0.0076    0.5236 O   0  0  0  0  0  0  0  0  0  0  0  0
   -1.4331    1.3302    0.2493 C   0  0  0  0  0  0  0  0  0  0  0  0
   -2.4191    2.3086    0.2547 C   0  0  0  0  0  0  0  0  0  0  0  0
   -2.1223    3.6147   -0.0233 C   0  0  0  0  0  0  0  0  0  0  0  0
   -3.1443    4.6639   -0.0236 C   0  0  0  0  0  0  0  0  0  0  0  0
   -2.9046    5.9863    0.3155 C   0  0  0  0  0  0  0  0  0  0  0  0
   -4.0621    6.6582    0.2036 N   0  0  0  0  0  0  0  0  0  0  0  0
   -5.0203    5.8136   -0.1918 N   0  0  0  0  0  0  0  0  0  0  0  0
   -4.4706    4.5970   -0.3327 C   0  0  0  0  0  0  0  0  0  0  0  0
   -0.8241    3.9678   -0.3138 C   0  0  0  0  0  0  0  0  0  0  0  0
    0.1517    3.0101   -0.3210 C   0  0  0  0  0  0  0  0  0  0  0  0
   -0.1301    1.6989   -0.0447 C   0  0  0  0  0  0  0  0  0  0  0  0
    0.9160    0.7006   -0.0568 N   0  0  0  0  0  0  0  0  0  0  0  0
    1.2822   -0.0377   -1.1974 C   0  0  0  0  0  0  0  0  0  0  0  0
    0.6780    0.1655   -2.2815 O   0  0  0  0  0  0  0  0  0  0  0  0
    2.3590   -1.0623   -1.2016 C   0  0  0  0  0  0  0  0  0  0  0  0
    2.0539   -2.1790   -0.2216 C   0  0  0  0  0  0  0  0  0  0  0  0
    3.1046   -3.1128   -0.3628 O   0  0  0  0  0  0  0  0  0  0  0  0
    4.3973   -2.6593   -0.2125 C   0  0  0  0  0  0  0  0  0  0  0  0
    5.4140   -3.5609    0.1206 C   0  0  0  0  0  0  0  0  0  0  0  0
    6.7127   -3.1180    0.2735 C   0  0  0  0  0  0  0  0  0  0  0  0
    6.9626   -1.7735    0.0877 C   0  0  0  0  0  0  0  0  0  0  0  0
    8.2314   -1.2655    0.2241 F   0  0  0  0  0  0  0  0  0  0  0  0
    5.9770   -0.8625   -0.2415 C   0  0  0  0  0  0  0  0  0  0  0  0
    4.6830   -1.3377   -0.3880 C   0  0  0  0  0  0  0  0  0  0  0  0
    3.6217   -0.3745   -0.7376 C   0  0  0  0  0  0  0  0  0  0  0  0
   -3.2348   -4.3337    1.1076 H   0  0  0  0  0  0  0  0  0  0  0  0
   -1.4800   -4.3827    0.5224 H   0  0  0  0  0  0  0  0  0  0  0  0
   -2.8364   -4.7439   -0.5797 H   0  0  0  0  0  0  0  0  0  0  0  0
   -2.8373   -1.7069   -1.9017 H   0  0  0  0  0  0  0  0  0  0  0  0
   -4.3081   -2.0125   -0.8359 H   0  0  0  0  0  0  0  0  0  0  0  0
   -3.5219   -3.3725   -1.7919 H   0  0  0  0  0  0  0  0  0  0  0  0
   -4.0245   -2.2515    1.3396 H   0  0  0  0  0  0  0  0  0  0  0  0
   -2.3730   -2.1469    1.9759 H   0  0  0  0  0  0  0  0  0  0  0  0
   -3.7280   -0.2293    0.0529 H   0  0  0  0  0  0  0  0  0  0  0  0
   -3.2943    0.0195    1.7977 H   0  0  0  0  0  0  0  0  0  0  0  0
   -3.4382    2.0437    0.4807 H   0  0  0  0  0  0  0  0  0  0  0  0
   -1.9797    6.4551    0.6223 H   0  0  0  0  0  0  0  0  0  0  0  0
   -5.9949    6.1432   -0.3371 H   0  0  0  0  0  0  0  0  0  0  0  0
   -5.0032    3.7252   -0.6394 H   0  0  0  0  0  0  0  0  0  0  0  0
   -0.5874    5.0298   -0.5391 H   0  0  0  0  0  0  0  0  0  0  0  0
    1.1823    3.2662   -0.5474 H   0  0  0  0  0  0  0  0  0  0  0  0
    1.4037    0.5453    0.8439 H   0  0  0  0  0  0  0  0  0  0  0  0
    2.5420   -1.4687   -2.2000 H   0  0  0  0  0  0  0  0  0  0  0  0
    2.0977   -1.8032    0.8171 H   0  0  0  0  0  0  0  0  0  0  0  0
    1.1013   -2.6647   -0.4706 H   0  0  0  0  0  0  0  0  0  0  0  0
    5.1622   -4.5969    0.2533 H   0  0  0  0  0  0  0  0  0  0  0  0
    7.5243   -3.7606    0.5262 H   0  0  0  0  0  0  0  0  0  0  0  0
    6.2228    0.1896   -0.3781 H   0  0  0  0  0  0  0  0  0  0  0  0
    4.0441    0.2724   -1.5618 H   0  0  0  0  0  0  0  0  0  0  0  0
    3.4419    0.2425    0.1768 H   0  0  0  0  0  0  0  0  0  0  0  0
  1  2  1  0
  2  3  1  0
  2  4  1  0
  4  5  1  0
  5  6  1  0
  6  7  1  0
  7  8  2  0
  8  9  1  0
  9 10  1  0
 10 11  1  0
 11 12  2  0
 12 13  1  0
 13 14  1  0
  9 15  2  0
 15 16  1  0
 16 17  2  0
 17 18  1  0
 18 19  1  0
 19 20  2  0
 19 21  1  0
 21 22  1  0
 22 23  1  0
 23 24  1  0
 24 25  2  0
 25 26  1  0
 26 27  2  0
 27 28  1  0
 27 29  1  0
 29 30  2  0
 30 31  1  0
 17  7  1  0
 31 21  1  0
 14 10  2  0
 30 24  1  0
  1 32  1  0
  1 33  1  0
  1 34  1  0
  3 35  1  0
  3 36  1  0
  3 37  1  0
  4 38  1  0
  4 39  1  0
  5 40  1  0
  5 41  1  0
  8 42  1  0
 11 43  1  0
 13 44  1  0
 14 45  1  0
 15 46  1  0
 16 47  1  0
 18 48  1  0
 21 49  1  0
 22 50  1  0
 22 51  1  0
 25 52  1  0
 26 53  1  0
 29 54  1  0
 31 55  1  0
 31 56  1  0
M  END
$$$$
