@<TRIPOS>MOLECULE
*****
 56 59 0 0 0
SMALL
GASTEIGER

@<TRIPOS>ATOM
      1 C          -2.5439   -4.1077    0.2637 C.3     1  UNL1       -0.0129
      2 N          -2.5210   -2.6957   -0.0703 N.3     1  UNL1       -0.3051
      3 C          -3.3484   -2.4185   -1.2284 C.3     1  UNL1       -0.0129
      4 C          -2.9894   -1.9473    1.0898 C.3     1  UNL1        0.0325
      5 C          -2.9994   -0.4686    0.8368 C.3     1  UNL1        0.1023
      6 O          -1.6932    0.0076    0.5236 O.3     1  UNL1       -0.4888
      7 C          -1.4331    1.3302    0.2493 C.ar    1  UNL1        0.1422
      8 C          -2.4191    2.3086    0.2547 C.ar    1  UNL1       -0.0103
      9 C          -2.1223    3.6147   -0.0233 C.ar    1  UNL1       -0.0114
     10 C          -3.1443    4.6639   -0.0236 C.ar    1  UNL1        0.0194
     11 C          -2.9046    5.9863    0.3155 C.ar    1  UNL1        0.0568
     12 N          -4.0621    6.6582    0.2036 N.ar    1  UNL1       -0.1817
     13 N          -5.0203    5.8136   -0.1918 N.ar    1  UNL1       -0.2841
     14 C          -4.4706    4.5970   -0.3327 C.ar    1  UNL1        0.0300
     15 C          -0.8241    3.9678   -0.3138 C.ar    1  UNL1       -0.0520
     16 C           0.1517    3.0101   -0.3210 C.ar    1  UNL1       -0.0363
     17 C          -0.1301    1.6989   -0.0447 C.ar    1  UNL1        0.0756
     18 N           0.9160    0.7006   -0.0568 N.am    1  UNL1       -0.2823
     19 C           1.2822   -0.0377   -1.1974 C.2     1  UNL1        0.2239
     20 O           0.6780    0.1655   -2.2815 O.2     1  UNL1       -0.2750
     21 C           2.3590   -1.0623   -1.2016 C.3     1  UNL1        0.0739
     22 C           2.0539   -2.1790   -0.2216 C.3     1  UNL1        0.1010
     23 O           3.1046   -3.1128   -0.3628 O.3     1  UNL1       -0.4909
     24 C           4.3973   -2.6593   -0.2125 C.ar    1  UNL1        0.1239
     25 C           5.4140   -3.5609    0.1206 C.ar    1  UNL1       -0.0170
     26 C           6.7127   -3.1180    0.2735 C.ar    1  UNL1       -0.0230
     27 C           6.9626   -1.7735    0.0877 C.ar    1  UNL1        0.1239
     28 F           8.2314   -1.2655    0.2241 F       1  UNL1       -0.2055
     29 C           5.9770   -0.8625   -0.2415 C.ar    1  UNL1       -0.0198
     30 C           4.6830   -1.3377   -0.3880 C.ar    1  UNL1       -0.0022
     31 C           3.6217   -0.3745   -0.7376 C.3     1  UNL1       -0.0099
     32 H          -3.2348   -4.3337    1.1076 H       1  UNL1        0.0391
     33 H          -1.4800   -4.3827    0.5224 H       1  UNL1        0.0391
     34 H          -2.8364   -4.7439   -0.5797 H       1  UNL1        0.0391
     35 H          -2.8373   -1.7069   -1.9017 H       1  UNL1        0.0391
     36 H          -4.3081   -2.0125   -0.8359 H       1  UNL1        0.0391
     37 H          -3.5219   -3.3725   -1.7919 H       1  UNL1        0.0391
     38 H          -4.0245   -2.2515    1.3396 H       1  UNL1        0.0460
     39 H          -2.3730   -2.1469    1.9759 H       1  UNL1        0.0460
     40 H          -3.7280   -0.2293    0.0529 H       1  UNL1        0.0709
     41 H          -3.2943    0.0195    1.7977 H       1  UNL1        0.0709
     42 H          -3.4382    2.0437    0.4807 H       1  UNL1        0.0661
     43 H          -1.9797    6.4551    0.6223 H       1  UNL1        0.0854
     44 H          -5.9949    6.1432   -0.3371 H       1  UNL1        0.1882
     45 H          -5.0032    3.7252   -0.6394 H       1  UNL1        0.0830
     46 H          -0.5874    5.0298   -0.5391 H       1  UNL1        0.0624
     47 H           1.1823    3.2662   -0.5474 H       1  UNL1        0.0637
     48 H           1.4037    0.5453    0.8439 H       1  UNL1        0.1549
     49 H           2.5420   -1.4687   -2.2000 H       1  UNL1        0.0431
     50 H           2.0977   -1.8032    0.8171 H       1  UNL1        0.0704
     51 H           1.1013   -2.6647   -0.4706 H       1  UNL1        0.0704
     52 H           5.1622   -4.5969    0.2533 H       1  UNL1        0.0655
     53 H           7.5243   -3.7606    0.5262 H       1  UNL1        0.0647
     54 H           6.2228    0.1896   -0.3781 H       1  UNL1        0.0650
     55 H           4.0441    0.2724   -1.5618 H       1  UNL1        0.0323
     56 H           3.4419    0.2425    0.1768 H       1  UNL1        0.0323
@<TRIPOS>BOND
     1     1     2    1
     2     2     3    1
     3     2     4    1
     4     4     5    1
     5     5     6    1
     6     6     7    1
     7     7     8   ar
     8     8     9   ar
     9     9    10    1
    10    10    11   ar
    11    11    12   ar
    12    12    13   ar
    13    13    14   ar
    14     9    15   ar
    15    15    16   ar
    16    16    17   ar
    17    17    18    1
    18    18    19   am
    19    19    20    2
    20    19    21    1
    21    21    22    1
    22    22    23    1
    23    23    24    1
    24    24    25   ar
    25    25    26   ar
    26    26    27   ar
    27    27    28    1
    28    27    29   ar
    29    29    30   ar
    30    30    31    1
    31    17     7   ar
    32    31    21    1
    33    14    10   ar
    34    30    24   ar
    35     1    32    1
    36     1    33    1
    37     1    34    1
    38     3    35    1
    39     3    36    1
    40     3    37    1
    41     4    38    1
    42     4    39    1
    43     5    40    1
    44     5    41    1
    45     8    42    1
    46    11    43    1
    47    13    44    1
    48    14    45    1
    49    15    46    1
    50    16    47    1
    51    18    48    1
    52    21    49    1
    53    22    50    1
    54    22    51    1
    55    25    52    1
    56    26    53    1
    57    29    54    1
    58    31    55    1
    59    31    56    1
