@<TRIPOS>MOLECULE
*****
 46 47 0 0 0
SMALL
GASTEIGER

@<TRIPOS>ATOM
      1 C          -7.3031   -0.0812   -0.2775 C.3     1  UNL1       -0.0653
      2 C          -6.1907   -1.0350   -0.6919 C.3     1  UNL1       -0.0559
      3 C          -4.8749   -0.2467   -0.6188 C.3     1  UNL1       -0.0533
      4 C          -4.6857    0.2270    0.7868 C.3     1  UNL1       -0.0531
      5 C          -3.4296    1.0124    0.9589 C.3     1  UNL1       -0.0531
      6 C          -2.2339    0.1632    0.6001 C.3     1  UNL1       -0.0530
      7 C          -0.9998    1.0283    0.8053 C.3     1  UNL1       -0.0526
      8 C           0.2557    0.2172    0.4551 C.3     1  UNL1       -0.0435
      9 C           1.4151    1.1565    0.6898 C.3     1  UNL1        0.0339
     10 C           2.7260    0.5712    0.4123 C.ar    1  UNL1        0.1994
     11 N           3.0893   -0.6498   -0.0127 N.ar    1  UNL1       -0.1673
     12 O           2.0306   -1.4922   -0.2198 O.co2   1  UNL1       -0.6192
     13 C           4.3792   -0.9752   -0.2039 C.ar    1  UNL1        0.2299
     14 C           4.6582   -2.2533   -0.6422 C.ar    1  UNL1        0.0117
     15 C           5.9917   -2.6098   -0.8465 C.ar    1  UNL1       -0.0555
     16 C           7.0314   -1.7392   -0.6284 C.ar    1  UNL1       -0.0607
     17 C           6.7349   -0.4635   -0.1898 C.ar    1  UNL1       -0.0447
     18 C           5.4189   -0.0992    0.0160 C.ar    1  UNL1        0.0890
     19 C           5.0822    1.1797    0.4583 C.ar    1  UNL1        0.1362
     20 O           6.1374    2.0361    0.6708 O.3     1  UNL1       -0.5057
     21 C           3.7376    1.4893    0.6479 C.ar    1  UNL1        0.0487
     22 H          -7.0107    0.9253   -0.6598 H       1  UNL1        0.0230
     23 H          -8.2338   -0.4322   -0.7798 H       1  UNL1        0.0230
     24 H          -7.3778   -0.0677    0.8206 H       1  UNL1        0.0230
     25 H          -6.1274   -1.9068   -0.0373 H       1  UNL1        0.0263
     26 H          -6.4068   -1.3491   -1.7339 H       1  UNL1        0.0263
     27 H          -4.9015    0.6055   -1.3223 H       1  UNL1        0.0265
     28 H          -4.0939   -0.9791   -0.9357 H       1  UNL1        0.0265
     29 H          -4.6069   -0.6603    1.4754 H       1  UNL1        0.0265
     30 H          -5.5581    0.8154    1.1056 H       1  UNL1        0.0265
     31 H          -3.3938    1.8940    0.2628 H       1  UNL1        0.0265
     32 H          -3.3029    1.3538    1.9953 H       1  UNL1        0.0265
     33 H          -2.3078   -0.1703   -0.4409 H       1  UNL1        0.0265
     34 H          -2.2052   -0.7168    1.2594 H       1  UNL1        0.0265
     35 H          -0.9118    1.3762    1.8407 H       1  UNL1        0.0265
     36 H          -1.0566    1.9074    0.1327 H       1  UNL1        0.0265
     37 H           0.3641   -0.6309    1.1578 H       1  UNL1        0.0270
     38 H           0.1903   -0.1284   -0.6074 H       1  UNL1        0.0270
     39 H           1.2252    2.0378    0.0406 H       1  UNL1        0.0372
     40 H           1.3852    1.4228    1.7697 H       1  UNL1        0.0372
     41 H           3.8752   -2.9761   -0.8286 H       1  UNL1        0.0684
     42 H           6.2912   -3.5964   -1.1904 H       1  UNL1        0.0620
     43 H           8.0741   -1.9846   -0.7771 H       1  UNL1        0.0618
     44 H           7.5320    0.2702   -0.0007 H       1  UNL1        0.0627
     45 H           5.9488    3.0385    0.7144 H       1  UNL1        0.2922
     46 H           3.6383    2.5157    0.9918 H       1  UNL1        0.0717
@<TRIPOS>UNITY_ATOM_ATTR
11 1
charge 1
12 1
charge -1
@<TRIPOS>BOND
     1     1     2    1
     2     2     3    1
     3     3     4    1
     4     4     5    1
     5     5     6    1
     6     6     7    1
     7     7     8    1
     8     8     9    1
     9     9    10    1
    10    10    11   ar
    11    11    12    1
    12    11    13   ar
    13    13    14   ar
    14    14    15   ar
    15    15    16   ar
    16    16    17   ar
    17    17    18   ar
    18    18    19   ar
    19    19    20    1
    20    19    21   ar
    21    21    10   ar
    22    18    13   ar
    23     1    22    1
    24     1    23    1
    25     1    24    1
    26     2    25    1
    27     2    26    1
    28     3    27    1
    29     3    28    1
    30     4    29    1
    31     4    30    1
    32     5    31    1
    33     5    32    1
    34     6    33    1
    35     6    34    1
    36     7    35    1
    37     7    36    1
    38     8    37    1
    39     8    38    1
    40     9    39    1
    41     9    40    1
    42    14    41    1
    43    15    42    1
    44    16    43    1
    45    17    44    1
    46    20    45    1
    47    21    46    1
