@<TRIPOS>MOLECULE
*****
 54 56 0 0 0
SMALL
GASTEIGER

@<TRIPOS>ATOM
      1 C          -6.2634    0.7570   -0.8580 C.3     1  UNL1       -0.0518
      2 C          -5.7104   -0.5827   -0.4193 C.3     1  UNL1        0.0386
      3 C          -6.7872   -1.4976    0.1216 C.3     1  UNL1       -0.0518
      4 C          -5.0890   -1.2214   -1.6496 C.3     1  UNL1       -0.0518
      5 C          -4.6899   -0.3182    0.6271 C.2     1  UNL1        0.2184
      6 O          -4.8645   -0.8204    1.7890 O.2     1  UNL1       -0.2752
      7 N          -3.5382    0.4680    0.3773 N.am    1  UNL1       -0.3149
      8 C          -2.5615    0.7147    1.3979 C.3     1  UNL1        0.0119
      9 C          -1.4083    1.5708    0.9372 C.3     1  UNL1       -0.0344
     10 C          -0.7139    0.8607   -0.2035 C.3     1  UNL1       -0.0368
     11 C           0.4612    1.6582   -0.7246 C.3     1  UNL1       -0.0342
     12 C           1.7362    1.3790    0.0060 C.3     1  UNL1        0.0138
     13 N           1.9782   -0.0378    0.0700 N.pl3   1  UNL1       -0.3142
     14 C           3.0974   -0.6532    0.6449 C.ar    1  UNL1        0.1389
     15 N           2.9779   -1.5236    1.6743 N.ar    1  UNL1       -0.2196
     16 C           4.1516   -2.0302    2.1156 C.ar    1  UNL1        0.1188
     17 N           5.3484   -1.7498    1.6368 N.ar    1  UNL1       -0.2347
     18 C           5.5250   -0.8704    0.5898 C.ar    1  UNL1        0.0838
     19 C           6.6719   -0.4888   -0.0004 C.ar    1  UNL1       -0.0163
     20 C           6.6450    0.3859   -1.0161 C.ar    1  UNL1        0.0763
     21 C           7.6756    0.9751   -1.8334 C.2     1  UNL1        0.2482
     22 N           9.0460    0.6822   -1.6655 N.am    1  UNL1       -0.3249
     23 O           7.3446    1.7834   -2.7334 O.2     1  UNL1       -0.2698
     24 S           4.8813    0.7217   -1.1834 S.2     1  UNL1       -0.0787
     25 C           4.3530   -0.3438    0.1250 C.ar    1  UNL1        0.0781
     26 C           0.9483   -0.9018   -0.5261 C.3     1  UNL1        0.0138
     27 C          -0.3440   -0.5429    0.1821 C.3     1  UNL1       -0.0342
     28 H          -6.9627    1.1884   -0.1175 H       1  UNL1        0.0239
     29 H          -6.7815    0.6024   -1.8297 H       1  UNL1        0.0239
     30 H          -5.4007    1.4176   -1.0491 H       1  UNL1        0.0239
     31 H          -6.4736   -2.5490   -0.1276 H       1  UNL1        0.0239
     32 H          -6.7675   -1.3703    1.2421 H       1  UNL1        0.0239
     33 H          -7.7711   -1.2707   -0.3115 H       1  UNL1        0.0239
     34 H          -4.4746   -0.4633   -2.1459 H       1  UNL1        0.0239
     35 H          -5.9342   -1.5673   -2.2863 H       1  UNL1        0.0239
     36 H          -4.5233   -2.1330   -1.3510 H       1  UNL1        0.0239
     37 H          -3.4090    0.8702   -0.5676 H       1  UNL1        0.1487
     38 H          -2.1159   -0.2644    1.7212 H       1  UNL1        0.0462
     39 H          -3.0638    1.1331    2.2930 H       1  UNL1        0.0462
     40 H          -0.7479    1.7213    1.8097 H       1  UNL1        0.0283
     41 H          -1.7609    2.5471    0.5261 H       1  UNL1        0.0283
     42 H          -1.4389    0.7924   -1.0393 H       1  UNL1        0.0302
     43 H           0.2064    2.7392   -0.5245 H       1  UNL1        0.0283
     44 H           0.5397    1.5659   -1.8178 H       1  UNL1        0.0283
     45 H           2.5638    1.8325   -0.5922 H       1  UNL1        0.0464
     46 H           1.7386    1.8770    0.9936 H       1  UNL1        0.0464
     47 H           4.1367   -2.7492    2.9551 H       1  UNL1        0.1048
     48 H           7.6791   -0.8818    0.3297 H       1  UNL1        0.0652
     49 H           9.3280   -0.1383   -1.0922 H       1  UNL1        0.1453
     50 H           9.7952    1.2603   -2.0968 H       1  UNL1        0.1453
     51 H           0.8465   -0.6886   -1.6062 H       1  UNL1        0.0464
     52 H           1.1707   -1.9638   -0.3617 H       1  UNL1        0.0464
     53 H          -1.0973   -1.2894   -0.0841 H       1  UNL1        0.0283
     54 H          -0.1531   -0.5925    1.2760 H       1  UNL1        0.0283
@<TRIPOS>BOND
     1     1     2    1
     2     2     3    1
     3     2     4    1
     4     2     5    1
     5     5     6    2
     6     5     7   am
     7     7     8    1
     8     8     9    1
     9     9    10    1
    10    10    11    1
    11    11    12    1
    12    12    13    1
    13    13    14    1
    14    14    15   ar
    15    15    16   ar
    16    16    17   ar
    17    17    18   ar
    18    18    19   ar
    19    19    20   ar
    20    20    21    1
    21    21    22   am
    22    21    23    2
    23    20    24   ar
    24    24    25   ar
    25    13    26    1
    26    26    27    1
    27    27    10    1
    28    25    14   ar
    29    25    18   ar
    30     1    28    1
    31     1    29    1
    32     1    30    1
    33     3    31    1
    34     3    32    1
    35     3    33    1
    36     4    34    1
    37     4    35    1
    38     4    36    1
    39     7    37    1
    40     8    38    1
    41     8    39    1
    42     9    40    1
    43     9    41    1
    44    10    42    1
    45    11    43    1
    46    11    44    1
    47    12    45    1
    48    12    46    1
    49    16    47    1
    50    19    48    1
    51    22    49    1
    52    22    50    1
    53    26    51    1
    54    26    52    1
    55    27    53    1
    56    27    54    1
