
     RDKit          3D

 37 39  0  0  0  0  0  0  0  0999 V2000
   -5.4995   -0.4829    2.6845 O   0  0  0  0  0  0  0  0  0  0  0  0
   -5.7090   -0.3817    1.4537 C   0  0  0  0  0  0  0  0  0  0  0  0
   -4.6003   -0.1939    0.4895 C   0  0  0  0  0  0  0  0  0  0  0  0
   -3.3537   -0.1266    0.8932 C   0  0  0  0  0  0  0  0  0  0  0  0
   -2.2069    0.0561    0.0157 C   0  0  0  0  0  0  0  0  0  0  0  0
   -2.2847    0.1817   -1.3527 C   0  0  0  0  0  0  0  0  0  0  0  0
   -1.1766    0.3535   -2.1513 C   0  0  0  0  0  0  0  0  0  0  0  0
    0.1067    0.4088   -1.5886 C   0  0  0  0  0  0  0  0  0  0  0  0
    0.2034    0.2874   -0.2464 C   0  0  0  0  0  0  0  0  0  0  0  0
   -0.9303    0.1139    0.5461 C   0  0  0  0  0  0  0  0  0  0  0  0
    1.6327    0.3746    0.1283 C   0  0  0  0  0  0  0  0  0  0  0  0
    2.3273    0.6688   -1.0764 N   0  0  0  0  0  0  0  0  0  0  0  0
    3.6487   -0.4083   -1.3688 S   0  0  0  0  0  6  0  0  0  0  0  0
    3.0908   -1.8156   -1.3645 O   0  0  0  0  0  0  0  0  0  0  0  0
    4.2697   -0.1325   -2.7213 O   0  0  0  0  0  0  0  0  0  0  0  0
    4.7659   -0.2341   -0.0784 C   0  0  0  0  0  0  0  0  0  0  0  0
    4.8856    0.4870    1.0457 C   0  0  0  0  0  0  0  0  0  0  0  0
    5.9266    0.3787    1.8657 C   0  0  0  0  0  0  0  0  0  0  0  0
    6.9395   -0.5144    1.5574 C   0  0  0  0  0  0  0  0  0  0  0  0
    6.3060   -1.2131   -0.0150 S   0  0  0  0  0  0  0  0  0  0  0  0
    1.4458    0.5799   -2.1870 C   0  0  0  0  0  0  0  0  0  0  0  0
   -7.0495   -0.4516    0.9954 N   0  0  0  0  0  0  0  0  0  0  0  0
   -8.0872   -0.6249    1.8718 O   0  0  0  0  0  0  0  0  0  0  0  0
   -4.8034   -0.1089   -0.5681 H   0  0  0  0  0  0  0  0  0  0  0  0
   -3.1752   -0.2151    1.9657 H   0  0  0  0  0  0  0  0  0  0  0  0
   -3.2612    0.1436   -1.8220 H   0  0  0  0  0  0  0  0  0  0  0  0
   -1.2203    0.4537   -3.2269 H   0  0  0  0  0  0  0  0  0  0  0  0
   -0.8320    0.0175    1.6306 H   0  0  0  0  0  0  0  0  0  0  0  0
    1.9490   -0.5802    0.6058 H   0  0  0  0  0  0  0  0  0  0  0  0
    1.6990    1.1682    0.9089 H   0  0  0  0  0  0  0  0  0  0  0  0
    4.0571    1.2187    1.2978 H   0  0  0  0  0  0  0  0  0  0  0  0
    6.0524    0.9803    2.8277 H   0  0  0  0  0  0  0  0  0  0  0  0
    7.8869   -0.8056    2.0332 H   0  0  0  0  0  0  0  0  0  0  0  0
    1.5022    1.4620   -2.8591 H   0  0  0  0  0  0  0  0  0  0  0  0
    1.6335   -0.3485   -2.7991 H   0  0  0  0  0  0  0  0  0  0  0  0
   -7.2035   -0.3649   -0.0369 H   0  0  0  0  0  0  0  0  0  0  0  0
   -8.9354   -0.3315    1.4553 H   0  0  0  0  0  0  0  0  0  0  0  0
  1  2  2  0
  2  3  1  0
  3  4  2  0
  4  5  1  0
  5  6  2  0
  6  7  1  0
  7  8  2  0
  8  9  1  0
  9 10  2  0
  9 11  1  0
 11 12  1  0
 12 13  1  0
 13 14  2  0
 13 15  2  0
 13 16  1  0
 16 17  2  0
 17 18  1  0
 18 19  2  0
 19 20  1  0
 12 21  1  0
  2 22  1  0
 22 23  1  0
 10  5  1  0
 20 16  1  0
 21  8  1  0
  3 24  1  0
  4 25  1  0
  6 26  1  0
  7 27  1  0
 10 28  1  0
 11 29  1  0
 11 30  1  0
 17 31  1  0
 18 32  1  0
 19 33  1  0
 21 34  1  0
 21 35  1  0
 22 36  1  0
 23 37  1  0
M  END
$$$$
