@<TRIPOS>MOLECULE
*****
 37 39 0 0 0
SMALL
GASTEIGER

@<TRIPOS>ATOM
      1 O          -5.4995   -0.4829    2.6845 O.2     1  UNL1       -0.2687
      2 C          -5.7090   -0.3817    1.4537 C.2     1  UNL1        0.2593
      3 C          -4.6003   -0.1939    0.4895 C.2     1  UNL1        0.0027
      4 C          -3.3537   -0.1266    0.8932 C.2     1  UNL1       -0.0496
      5 C          -2.2069    0.0561    0.0157 C.ar    1  UNL1       -0.0246
      6 C          -2.2847    0.1817   -1.3527 C.ar    1  UNL1       -0.0543
      7 C          -1.1766    0.3535   -2.1513 C.ar    1  UNL1       -0.0564
      8 C           0.1067    0.4088   -1.5886 C.ar    1  UNL1       -0.0272
      9 C           0.2034    0.2874   -0.2464 C.ar    1  UNL1       -0.0266
     10 C          -0.9303    0.1139    0.5461 C.ar    1  UNL1       -0.0498
     11 C           1.6327    0.3746    0.1283 C.3     1  UNL1        0.0462
     12 N           2.3273    0.6688   -1.0764 N.3     1  UNL1       -0.1675
     13 S           3.6487   -0.4083   -1.3688 S.O2    1  UNL1        0.0677
     14 O           3.0908   -1.8156   -1.3645 O.2     1  UNL1       -0.1523
     15 O           4.2697   -0.1325   -2.7213 O.2     1  UNL1       -0.1523
     16 C           4.7659   -0.2341   -0.0784 C.ar    1  UNL1        0.1427
     17 C           4.8856    0.4870    1.0457 C.ar    1  UNL1       -0.0281
     18 C           5.9266    0.3787    1.8657 C.ar    1  UNL1       -0.0528
     19 C           6.9395   -0.5144    1.5574 C.ar    1  UNL1       -0.0224
     20 S           6.3060   -1.2131   -0.0150 S.2     1  UNL1       -0.0770
     21 C           1.4458    0.5799   -2.1870 C.3     1  UNL1        0.0462
     22 N          -7.0495   -0.4516    0.9954 N.am    1  UNL1       -0.1940
     23 O          -8.0872   -0.6249    1.8718 O.3     1  UNL1       -0.2949
     24 H          -4.8034   -0.1089   -0.5681 H       1  UNL1        0.0670
     25 H          -3.1752   -0.2151    1.9657 H       1  UNL1        0.0625
     26 H          -3.2612    0.1436   -1.8220 H       1  UNL1        0.0624
     27 H          -1.2203    0.4537   -3.2269 H       1  UNL1        0.0621
     28 H          -0.8320    0.0175    1.6306 H       1  UNL1        0.0627
     29 H           1.9490   -0.5802    0.6058 H       1  UNL1        0.0493
     30 H           1.6990    1.1682    0.9089 H       1  UNL1        0.0493
     31 H           4.0571    1.2187    1.2978 H       1  UNL1        0.0642
     32 H           6.0524    0.9803    2.8277 H       1  UNL1        0.0623
     33 H           7.8869   -0.8056    2.0332 H       1  UNL1        0.0694
     34 H           1.5022    1.4620   -2.8591 H       1  UNL1        0.0493
     35 H           1.6335   -0.3485   -2.7991 H       1  UNL1        0.0493
     36 H          -7.2035   -0.3649   -0.0369 H       1  UNL1        0.1825
     37 H          -8.9354   -0.3315    1.4553 H       1  UNL1        0.2414
@<TRIPOS>BOND
     1     1     2    2
     2     2     3    1
     3     3     4    2
     4     4     5    1
     5     5     6   ar
     6     6     7   ar
     7     7     8   ar
     8     8     9   ar
     9     9    10   ar
    10     9    11    1
    11    11    12    1
    12    12    13    1
    13    13    14    2
    14    13    15    2
    15    13    16    1
    16    16    17   ar
    17    17    18   ar
    18    18    19   ar
    19    19    20   ar
    20    12    21    1
    21     2    22   am
    22    22    23    1
    23    10     5   ar
    24    20    16   ar
    25    21     8    1
    26     3    24    1
    27     4    25    1
    28     6    26    1
    29     7    27    1
    30    10    28    1
    31    11    29    1
    32    11    30    1
    33    17    31    1
    34    18    32    1
    35    19    33    1
    36    21    34    1
    37    21    35    1
    38    22    36    1
    39    23    37    1
