@<TRIPOS>MOLECULE
*****
 21 21 0 0 0
SMALL
GASTEIGER

@<TRIPOS>ATOM
      1 C          -1.8331   -0.0761   -0.4955 C.3     1  UNL1        0.0171
      2 C          -1.6034    1.0100    0.5255 C.3     1  UNL1       -0.0556
      3 C          -0.6977   -0.1079   -1.4736 C.3     1  UNL1       -0.0008
      4 C           0.6194   -0.3786   -0.7902 C.ar    1  UNL1        0.0512
      5 C           1.0958   -1.7169   -0.6126 C.ar    1  UNL1        0.0002
      6 S           2.7013   -1.3743    0.2577 S.2     1  UNL1       -0.0608
      7 C           2.4449    0.4332    0.2231 C.ar    1  UNL1        0.1557
      8 N           3.3162    1.4942    0.7444 N.pl3   1  UNL1       -0.3375
      9 N           1.3332    0.6667   -0.3532 N.ar    1  UNL1       -0.2301
     10 C          -2.1518   -1.3773    0.1143 C.2     1  UNL1        0.1235
     11 O          -2.9874   -2.2633    0.1927 O.2     1  UNL1       -0.3007
     12 H          -2.7296    0.2349   -1.0711 H       1  UNL1        0.0375
     13 H          -2.5628    1.4819    0.8442 H       1  UNL1        0.0236
     14 H          -1.0259    0.6684    1.4114 H       1  UNL1        0.0236
     15 H          -1.0011    1.8341    0.0715 H       1  UNL1        0.0236
     16 H          -0.6980    0.8527   -2.0240 H       1  UNL1        0.0335
     17 H          -0.8492   -0.8862   -2.2506 H       1  UNL1        0.0335
     18 H           0.6188   -2.5519   -0.9122 H       1  UNL1        0.0712
     19 H           3.1149    2.0705    1.5956 H       1  UNL1        0.1442
     20 H           4.2019    1.6573    0.1916 H       1  UNL1        0.1442
     21 H          -1.3063   -1.6711    0.7515 H       1  UNL1        0.1029
@<TRIPOS>BOND
     1     1     2    1
     2     1     3    1
     3     3     4    1
     4     4     5   ar
     5     5     6   ar
     6     6     7   ar
     7     7     8    1
     8     7     9   ar
     9     1    10    1
    10    10    11    2
    11     9     4   ar
    12     1    12    1
    13     2    13    1
    14     2    14    1
    15     2    15    1
    16     3    16    1
    17     3    17    1
    18     5    18    1
    19     8    19    1
    20     8    20    1
    21    10    21    1
