@<TRIPOS>MOLECULE
*****
 61 68 0 0 0
SMALL
GASTEIGER

@<TRIPOS>ATOM
      1 C           5.0887    1.5168    0.6695 C.3     1  UNL1       -0.0155
      2 N           3.7520    1.9635    0.6911 N.3     1  UNL1       -0.3136
      3 C           2.8559    1.4698   -0.2611 C.3     1  UNL1        0.0423
      4 C           1.5023    2.1626   -0.0253 C.3     1  UNL1        0.0107
      5 C           0.6882    1.8301   -1.2510 C.3     1  UNL1        0.1402
      6 O           1.0224    0.7372   -1.9334 O.3     1  UNL1       -0.3282
      7 C           1.5089   -0.3834   -1.2501 C.3     1  UNL1        0.1741
      8 C           2.2353   -1.1680   -2.3248 C.3     1  UNL1       -0.0136
      9 C           2.5349   -0.0087   -0.1828 C.3     1  UNL1        0.1214
     10 O           2.0878   -0.2937    1.0823 O.3     1  UNL1       -0.3735
     11 C           2.9107   -1.1639    1.7927 C.3     1  UNL1        0.0371
     12 N           0.3947   -1.1398   -0.7001 N.ar    1  UNL1       -0.3070
     13 C           0.3404   -2.4480   -0.4498 C.ar    1  UNL1        0.0527
     14 C           1.2522   -3.4542   -0.5687 C.ar    1  UNL1       -0.0375
     15 C           0.9159   -4.7646   -0.2181 C.ar    1  UNL1       -0.0598
     16 C          -0.3342   -5.0952    0.2576 C.ar    1  UNL1       -0.0611
     17 C          -1.2521   -4.0958    0.3806 C.ar    1  UNL1       -0.0520
     18 C          -0.9272   -2.8118    0.0385 C.ar    1  UNL1        0.0081
     19 C          -1.6576   -1.6684    0.0831 C.ar    1  UNL1        0.0151
     20 C          -2.9617   -1.3827    0.4706 C.ar    1  UNL1       -0.0078
     21 C          -3.4676   -0.0808    0.4141 C.ar    1  UNL1        0.0518
     22 C          -2.6179    0.8999   -0.0394 C.ar    1  UNL1        0.0221
     23 C          -2.7427    2.2597   -0.2167 C.ar    1  UNL1        0.0085
     24 C          -3.7483    3.1760   -0.0313 C.ar    1  UNL1       -0.0520
     25 C          -3.5876    4.5399   -0.3031 C.ar    1  UNL1       -0.0611
     26 C          -2.3912    5.0040   -0.7730 C.ar    1  UNL1       -0.0598
     27 C          -1.3550    4.1079   -0.9719 C.ar    1  UNL1       -0.0375
     28 C          -1.5486    2.7728   -0.6937 C.ar    1  UNL1        0.0524
     29 N          -0.7046    1.7438   -0.8078 N.ar    1  UNL1       -0.3115
     30 C          -1.3091    0.6036   -0.4268 C.ar    1  UNL1        0.0774
     31 C          -0.8438   -0.6834   -0.3622 C.ar    1  UNL1        0.0772
     32 C          -4.8441   -0.0785    0.8710 C.2     1  UNL1        0.2453
     33 O          -5.6751    0.8400    0.9887 O.2     1  UNL1       -0.2702
     34 N          -5.1559   -1.4256    1.2068 N.am    1  UNL1       -0.3072
     35 C          -4.0269   -2.2774    0.9855 C.3     1  UNL1        0.0385
     36 H           5.2488    0.5337    0.1834 H       1  UNL1        0.0388
     37 H           5.7303    2.2902    0.1912 H       1  UNL1        0.0388
     38 H           5.4376    1.3982    1.7345 H       1  UNL1        0.0388
     39 H           3.3735    2.2548    1.6050 H       1  UNL1        0.1220
     40 H           3.2257    1.7017   -1.2887 H       1  UNL1        0.0489
     41 H           1.6204    3.2543    0.0537 H       1  UNL1        0.0325
     42 H           1.0667    1.6824    0.8618 H       1  UNL1        0.0325
     43 H           0.7042    2.7198   -1.9434 H       1  UNL1        0.0839
     44 H           3.2732   -1.4758   -2.0091 H       1  UNL1        0.0277
     45 H           1.6440   -1.9657   -2.7821 H       1  UNL1        0.0277
     46 H           2.4884   -0.4965   -3.2163 H       1  UNL1        0.0277
     47 H           3.4883   -0.5487   -0.3476 H       1  UNL1        0.0660
     48 H           2.4994   -1.3611    2.8054 H       1  UNL1        0.0524
     49 H           3.9324   -0.7723    1.9692 H       1  UNL1        0.0524
     50 H           3.0661   -2.1367    1.2597 H       1  UNL1        0.0524
     51 H           2.2252   -3.2334   -0.9187 H       1  UNL1        0.0638
     52 H           1.6383   -5.5794   -0.3096 H       1  UNL1        0.0618
     53 H          -0.5982   -6.1203    0.5320 H       1  UNL1        0.0618
     54 H          -2.2485   -4.3362    0.7554 H       1  UNL1        0.0624
     55 H          -4.6996    2.8763    0.3311 H       1  UNL1        0.0624
     56 H          -4.4133    5.2350   -0.1416 H       1  UNL1        0.0618
     57 H          -2.2060    6.0338   -0.9995 H       1  UNL1        0.0618
     58 H          -0.3896    4.4263   -1.3420 H       1  UNL1        0.0638
     59 H          -6.0669   -1.7680    1.5641 H       1  UNL1        0.1493
     60 H          -3.7001   -2.8147    1.9006 H       1  UNL1        0.0512
     61 H          -4.2796   -3.0016    0.1637 H       1  UNL1        0.0512
@<TRIPOS>BOND
     1     1     2    1
     2     2     3    1
     3     3     4    1
     4     4     5    1
     5     5     6    1
     6     6     7    1
     7     7     8    1
     8     7     9    1
     9     9    10    1
    10    10    11    1
    11     7    12    1
    12    12    13   ar
    13    13    14   ar
    14    14    15   ar
    15    15    16   ar
    16    16    17   ar
    17    17    18   ar
    18    18    19   ar
    19    19    20   ar
    20    20    21   ar
    21    21    22   ar
    22    22    23   ar
    23    23    24   ar
    24    24    25   ar
    25    25    26   ar
    26    26    27   ar
    27    27    28   ar
    28    28    29   ar
    29    29    30   ar
    30    30    31   ar
    31    21    32    1
    32    32    33    2
    33    32    34   am
    34    34    35    1
    35     9     3    1
    36    31    12   ar
    37    29     5    1
    38    18    13   ar
    39    31    19   ar
    40    35    20    1
    41    30    22   ar
    42    28    23   ar
    43     1    36    1
    44     1    37    1
    45     1    38    1
    46     2    39    1
    47     3    40    1
    48     4    41    1
    49     4    42    1
    50     5    43    1
    51     8    44    1
    52     8    45    1
    53     8    46    1
    54     9    47    1
    55    11    48    1
    56    11    49    1
    57    11    50    1
    58    14    51    1
    59    15    52    1
    60    16    53    1
    61    17    54    1
    62    24    55    1
    63    25    56    1
    64    26    57    1
    65    27    58    1
    66    34    59    1
    67    35    60    1
    68    35    61    1
