@<TRIPOS>MOLECULE
*****
 72 74 0 0 0
SMALL
GASTEIGER

@<TRIPOS>ATOM
      1 C          -3.2951    0.0346    1.1145 C.3     1  UNL1        0.1114
      2 O          -2.0442   -0.4428    0.7769 O.3     1  UNL1       -0.3316
      3 C          -1.3030    0.2487   -0.1269 C.3     1  UNL1        0.2815
      4 C          -1.6529    1.6932   -0.3164 C.3     1  UNL1        0.0409
      5 C          -3.1266    1.9154   -0.5512 C.3     1  UNL1        0.0815
      6 O          -3.4521    3.1310    0.0446 O.3     1  UNL1       -0.3897
      7 C          -3.9648    0.7942    0.0160 C.3     1  UNL1        0.0779
      8 N          -4.4301   -0.1065   -1.0261 N.am    1  UNL1       -0.3076
      9 C          -5.8196   -0.1824   -1.3155 C.2     1  UNL1        0.2103
     10 C          -6.4970   -1.0359   -2.3375 C.3     1  UNL1        0.0122
     11 O          -6.7441    0.4624   -0.7578 O.2     1  UNL1       -0.2761
     12 O          -1.2450   -0.5125   -1.2600 O.3     1  UNL1       -0.2424
     13 P          -0.4174    0.0343   -2.5650 P.3     1  UNL1        0.4779
     14 O          -1.1346    1.3851   -3.3351 O.3     1  UNL1       -0.3024
     15 O          -0.5287   -1.0676   -3.6340 O.2     1  UNL1       -0.2272
     16 O           1.2389    0.2480   -2.3569 O.3     1  UNL1       -0.2839
     17 C           1.8524   -0.9742   -2.4581 C.3     1  UNL1        0.0879
     18 C           3.3578   -0.9327   -2.4749 C.3     1  UNL1        0.1134
     19 O           3.8008   -0.3529   -1.2990 O.3     1  UNL1       -0.3456
     20 C           5.0625   -0.9244   -1.0963 C.3     1  UNL1        0.1680
     21 C           4.6942   -2.3885   -1.1978 C.3     1  UNL1        0.1286
     22 O           5.7977   -3.2277   -1.3010 O.3     1  UNL1       -0.3847
     23 C           3.8522   -2.3690   -2.4607 C.3     1  UNL1        0.1135
     24 O           4.6274   -2.5884   -3.5944 O.3     1  UNL1       -0.3864
     25 N           5.7012   -0.5449    0.1129 N.ar    1  UNL1       -0.2700
     26 C           5.0998   -0.1882    1.2569 C.ar    1  UNL1        0.0152
     27 C           5.7913    0.1765    2.4144 C.ar    1  UNL1       -0.0056
     28 C           7.1696    0.1481    2.3109 C.ar    1  UNL1        0.1230
     29 N           7.9793    0.5007    3.4274 N.pl3   1  UNL1       -0.3430
     30 N           7.7800   -0.2069    1.1718 N.ar    1  UNL1       -0.1783
     31 C           7.0600   -0.5543    0.0700 C.ar    1  UNL1        0.3522
     32 O           7.7115   -0.8740   -0.9564 O.2     1  UNL1       -0.2444
     33 C           0.1111    0.2509    0.4112 C.2     1  UNL1        0.3658
     34 O           1.4727    0.4636    0.5692 O.3     1  UNL1       -0.4769
     35 O           0.2032   -0.3773    1.5207 O.2     1  UNL1       -0.2449
     36 C          -3.3107    0.7074    2.4588 C.3     1  UNL1        0.1111
     37 O          -2.9001   -0.2038    3.4363 O.3     1  UNL1       -0.3865
     38 C          -4.6597    1.2074    2.8989 C.3     1  UNL1        0.1065
     39 O          -4.3969    1.8352    4.1615 O.3     1  UNL1       -0.3869
     40 C          -5.6525    0.1162    3.2217 C.3     1  UNL1        0.0727
     41 O          -6.0017   -0.5562    2.0727 O.3     1  UNL1       -0.3924
     42 H          -3.9041   -0.9124    1.2435 H       1  UNL1        0.0643
     43 H          -1.1347    2.1719   -1.1477 H       1  UNL1        0.0349
     44 H          -1.3655    2.2688    0.5861 H       1  UNL1        0.0349
     45 H          -3.3579    1.9320   -1.6506 H       1  UNL1        0.0614
     46 H          -3.0188    3.8242   -0.5175 H       1  UNL1        0.2099
     47 H          -4.8773    1.2736    0.4130 H       1  UNL1        0.0550
     48 H          -3.9443   -0.7682   -1.6679 H       1  UNL1        0.1491
     49 H          -6.9245   -0.3505   -3.0983 H       1  UNL1        0.0322
     50 H          -7.2223   -1.7072   -1.8658 H       1  UNL1        0.0322
     51 H          -5.7492   -1.6761   -2.8596 H       1  UNL1        0.0322
     52 H          -0.4686    2.0544   -3.5970 H       1  UNL1        0.2220
     53 H           1.5382   -1.5373   -3.3815 H       1  UNL1        0.0592
     54 H           1.5414   -1.5600   -1.5547 H       1  UNL1        0.0592
     55 H           3.7431   -0.4027   -3.3633 H       1  UNL1        0.0647
     56 H           5.6410   -0.6757   -2.0114 H       1  UNL1        0.0867
     57 H           4.0119   -2.6993   -0.3726 H       1  UNL1        0.0665
     58 H           6.1608   -3.3158   -0.3906 H       1  UNL1        0.2101
     59 H           3.0432   -3.1011   -2.3793 H       1  UNL1        0.0647
     60 H           4.0332   -2.7304   -4.3547 H       1  UNL1        0.2100
     61 H           4.0403   -0.1839    1.2819 H       1  UNL1        0.0812
     62 H           5.2861    0.4597    3.3242 H       1  UNL1        0.0666
     63 H           7.7962    1.1389    4.2217 H       1  UNL1        0.1437
     64 H           8.9392    0.1330    3.6053 H       1  UNL1        0.1437
     65 H           1.8277    1.3910    0.8457 H       1  UNL1        0.2952
     66 H          -2.6484    1.6071    2.4843 H       1  UNL1        0.0646
     67 H          -3.1023   -1.1502    3.1837 H       1  UNL1        0.2100
     68 H          -5.0357    2.0049    2.2646 H       1  UNL1        0.0643
     69 H          -3.7315    2.5438    4.0619 H       1  UNL1        0.2100
     70 H          -6.5927    0.6211    3.5778 H       1  UNL1        0.0584
     71 H          -5.3371   -0.5231    4.0445 H       1  UNL1        0.0584
     72 H          -6.9741   -0.7934    2.0280 H       1  UNL1        0.2095
@<TRIPOS>BOND
     1     1     2    1
     2     2     3    1
     3     3     4    1
     4     4     5    1
     5     5     6    1
     6     5     7    1
     7     7     8    1
     8     8     9   am
     9     9    10    1
    10     9    11    2
    11     3    12    1
    12    12    13    1
    13    13    14    1
    14    13    15    2
    15    13    16    1
    16    16    17    1
    17    17    18    1
    18    18    19    1
    19    19    20    1
    20    20    21    1
    21    21    22    1
    22    21    23    1
    23    23    24    1
    24    20    25    1
    25    25    26   ar
    26    26    27   ar
    27    27    28   ar
    28    28    29    1
    29    28    30   ar
    30    30    31   ar
    31    31    32    2
    32     3    33    1
    33    33    34    1
    34    33    35    2
    35     1    36    1
    36    36    37    1
    37    36    38    1
    38    38    39    1
    39    38    40    1
    40    40    41    1
    41     7     1    1
    42    23    18    1
    43    31    25   ar
    44     1    42    1
    45     4    43    1
    46     4    44    1
    47     5    45    1
    48     6    46    1
    49     7    47    1
    50     8    48    1
    51    10    49    1
    52    10    50    1
    53    10    51    1
    54    14    52    1
    55    17    53    1
    56    17    54    1
    57    18    55    1
    58    20    56    1
    59    21    57    1
    60    22    58    1
    61    23    59    1
    62    24    60    1
    63    26    61    1
    64    27    62    1
    65    29    63    1
    66    29    64    1
    67    34    65    1
    68    36    66    1
    69    37    67    1
    70    38    68    1
    71    39    69    1
    72    40    70    1
    73    40    71    1
    74    41    72    1
