
     RDKit          3D

 72 74  0  0  0  0  0  0  0  0999 V2000
   -3.2951    0.0346    1.1145 C   0  0  2  0  0  0  0  0  0  0  0  0
   -2.0442   -0.4428    0.7769 O   0  0  0  0  0  0  0  0  0  0  0  0
   -1.3030    0.2487   -0.1269 C   0  0  2  0  0  0  0  0  0  0  0  0
   -1.6529    1.6932   -0.3164 C   0  0  0  0  0  0  0  0  0  0  0  0
   -3.1266    1.9154   -0.5512 C   0  0  2  0  0  0  0  0  0  0  0  0
   -3.4521    3.1310    0.0446 O   0  0  0  0  0  0  0  0  0  0  0  0
   -3.9648    0.7942    0.0160 C   0  0  1  0  0  0  0  0  0  0  0  0
   -4.4301   -0.1065   -1.0261 N   0  0  0  0  0  0  0  0  0  0  0  0
   -5.8196   -0.1824   -1.3155 C   0  0  0  0  0  0  0  0  0  0  0  0
   -6.4970   -1.0359   -2.3375 C   0  0  0  0  0  0  0  0  0  0  0  0
   -6.7441    0.4624   -0.7578 O   0  0  0  0  0  0  0  0  0  0  0  0
   -1.2450   -0.5125   -1.2600 O   0  0  0  0  0  0  0  0  0  0  0  0
   -0.4174    0.0343   -2.5650 P   0  0  0  0  0  0  0  0  0  0  0  0
   -1.1346    1.3851   -3.3351 O   0  0  0  0  0  0  0  0  0  0  0  0
   -0.5287   -1.0676   -3.6340 O   0  0  0  0  0  0  0  0  0  0  0  0
    1.2389    0.2480   -2.3569 O   0  0  0  0  0  0  0  0  0  0  0  0
    1.8524   -0.9742   -2.4581 C   0  0  0  0  0  0  0  0  0  0  0  0
    3.3578   -0.9327   -2.4749 C   0  0  1  0  0  0  0  0  0  0  0  0
    3.8008   -0.3529   -1.2990 O   0  0  0  0  0  0  0  0  0  0  0  0
    5.0625   -0.9244   -1.0963 C   0  0  2  0  0  0  0  0  0  0  0  0
    4.6942   -2.3885   -1.1978 C   0  0  2  0  0  0  0  0  0  0  0  0
    5.7977   -3.2277   -1.3010 O   0  0  0  0  0  0  0  0  0  0  0  0
    3.8522   -2.3690   -2.4607 C   0  0  2  0  0  0  0  0  0  0  0  0
    4.6274   -2.5884   -3.5944 O   0  0  0  0  0  0  0  0  0  0  0  0
    5.7012   -0.5449    0.1129 N   0  0  0  0  0  0  0  0  0  0  0  0
    5.0998   -0.1882    1.2569 C   0  0  0  0  0  0  0  0  0  0  0  0
    5.7913    0.1765    2.4144 C   0  0  0  0  0  0  0  0  0  0  0  0
    7.1696    0.1481    2.3109 C   0  0  0  0  0  0  0  0  0  0  0  0
    7.9793    0.5007    3.4274 N   0  0  0  0  0  0  0  0  0  0  0  0
    7.7800   -0.2069    1.1718 N   0  0  0  0  0  0  0  0  0  0  0  0
    7.0600   -0.5543    0.0700 C   0  0  0  0  0  0  0  0  0  0  0  0
    7.7115   -0.8740   -0.9564 O   0  0  0  0  0  0  0  0  0  0  0  0
    0.1111    0.2509    0.4112 C   0  0  0  0  0  0  0  0  0  0  0  0
    1.4727    0.4636    0.5692 O   0  0  0  0  0  0  0  0  0  0  0  0
    0.2032   -0.3773    1.5207 O   0  0  0  0  0  0  0  0  0  0  0  0
   -3.3107    0.7074    2.4588 C   0  0  2  0  0  0  0  0  0  0  0  0
   -2.9001   -0.2038    3.4363 O   0  0  0  0  0  0  0  0  0  0  0  0
   -4.6597    1.2074    2.8989 C   0  0  2  0  0  0  0  0  0  0  0  0
   -4.3969    1.8352    4.1615 O   0  0  0  0  0  0  0  0  0  0  0  0
   -5.6525    0.1162    3.2217 C   0  0  0  0  0  0  0  0  0  0  0  0
   -6.0017   -0.5562    2.0727 O   0  0  0  0  0  0  0  0  0  0  0  0
   -3.9041   -0.9124    1.2435 H   0  0  0  0  0  0  0  0  0  0  0  0
   -1.1347    2.1719   -1.1477 H   0  0  0  0  0  0  0  0  0  0  0  0
   -1.3655    2.2688    0.5861 H   0  0  0  0  0  0  0  0  0  0  0  0
   -3.3579    1.9320   -1.6506 H   0  0  0  0  0  0  0  0  0  0  0  0
   -3.0188    3.8242   -0.5175 H   0  0  0  0  0  0  0  0  0  0  0  0
   -4.8773    1.2736    0.4130 H   0  0  0  0  0  0  0  0  0  0  0  0
   -3.9443   -0.7682   -1.6679 H   0  0  0  0  0  0  0  0  0  0  0  0
   -6.9245   -0.3505   -3.0983 H   0  0  0  0  0  0  0  0  0  0  0  0
   -7.2223   -1.7072   -1.8658 H   0  0  0  0  0  0  0  0  0  0  0  0
   -5.7492   -1.6761   -2.8596 H   0  0  0  0  0  0  0  0  0  0  0  0
   -0.4686    2.0544   -3.5970 H   0  0  0  0  0  0  0  0  0  0  0  0
    1.5382   -1.5373   -3.3815 H   0  0  0  0  0  0  0  0  0  0  0  0
    1.5414   -1.5600   -1.5547 H   0  0  0  0  0  0  0  0  0  0  0  0
    3.7431   -0.4027   -3.3633 H   0  0  0  0  0  0  0  0  0  0  0  0
    5.6410   -0.6757   -2.0114 H   0  0  0  0  0  0  0  0  0  0  0  0
    4.0119   -2.6993   -0.3726 H   0  0  0  0  0  0  0  0  0  0  0  0
    6.1608   -3.3158   -0.3906 H   0  0  0  0  0  0  0  0  0  0  0  0
    3.0432   -3.1011   -2.3793 H   0  0  0  0  0  0  0  0  0  0  0  0
    4.0332   -2.7304   -4.3547 H   0  0  0  0  0  0  0  0  0  0  0  0
    4.0403   -0.1839    1.2819 H   0  0  0  0  0  0  0  0  0  0  0  0
    5.2861    0.4597    3.3242 H   0  0  0  0  0  0  0  0  0  0  0  0
    7.7962    1.1389    4.2217 H   0  0  0  0  0  0  0  0  0  0  0  0
    8.9392    0.1330    3.6053 H   0  0  0  0  0  0  0  0  0  0  0  0
    1.8277    1.3910    0.8457 H   0  0  0  0  0  0  0  0  0  0  0  0
   -2.6484    1.6071    2.4843 H   0  0  0  0  0  0  0  0  0  0  0  0
   -3.1023   -1.1502    3.1837 H   0  0  0  0  0  0  0  0  0  0  0  0
   -5.0357    2.0049    2.2646 H   0  0  0  0  0  0  0  0  0  0  0  0
   -3.7315    2.5438    4.0619 H   0  0  0  0  0  0  0  0  0  0  0  0
   -6.5927    0.6211    3.5778 H   0  0  0  0  0  0  0  0  0  0  0  0
   -5.3371   -0.5231    4.0445 H   0  0  0  0  0  0  0  0  0  0  0  0
   -6.9741   -0.7934    2.0280 H   0  0  0  0  0  0  0  0  0  0  0  0
  1  2  1  0
  2  3  1  0
  3  4  1  0
  4  5  1  0
  5  6  1  0
  5  7  1  0
  7  8  1  0
  8  9  1  0
  9 10  1  0
  9 11  2  0
  3 12  1  6
 12 13  1  0
 13 14  1  0
 13 15  2  0
 13 16  1  0
 16 17  1  0
 17 18  1  0
 18 19  1  0
 19 20  1  0
 20 21  1  0
 21 22  1  0
 21 23  1  0
 23 24  1  0
 20 25  1  0
 25 26  1  0
 26 27  2  0
 27 28  1  0
 28 29  1  0
 28 30  2  0
 30 31  1  0
 31 32  2  0
  3 33  1  0
 33 34  1  0
 33 35  2  0
  1 36  1  0
 36 37  1  0
 36 38  1  0
 38 39  1  0
 38 40  1  0
 40 41  1  0
  7  1  1  0
 23 18  1  0
 31 25  1  0
  1 42  1  1
  4 43  1  0
  4 44  1  0
  5 45  1  6
  6 46  1  0
  7 47  1  1
  8 48  1  0
 10 49  1  0
 10 50  1  0
 10 51  1  0
 14 52  1  0
 17 53  1  0
 17 54  1  0
 18 55  1  6
 20 56  1  6
 21 57  1  1
 22 58  1  0
 23 59  1  1
 24 60  1  0
 26 61  1  0
 27 62  1  0
 29 63  1  0
 29 64  1  0
 34 65  1  0
 36 66  1  6
 37 67  1  0
 38 68  1  6
 39 69  1  0
 40 70  1  0
 40 71  1  0
 41 72  1  0
M  END
$$$$
