@<TRIPOS>MOLECULE
*****
 40 41 0 0 0
SMALL
GASTEIGER

@<TRIPOS>ATOM
      1 C          -5.5238    3.0599   -1.4214 C.3     1  UNL1        0.0142
      2 C          -4.4752    2.1138   -1.8890 C.2     1  UNL1        0.2353
      3 O          -3.4570    2.5094   -2.4821 O.2     1  UNL1       -0.2739
      4 N          -4.7216    0.7236   -1.6085 N.am    1  UNL1       -0.1568
      5 C          -3.8331   -0.0252   -1.0878 C.ar    1  UNL1        0.1636
      6 N          -3.7895   -1.2996   -0.7331 N.ar    1  UNL1       -0.3389
      7 C          -2.7276   -1.8376   -0.2051 C.ar    1  UNL1        0.0292
      8 C          -2.6854   -3.3034    0.2440 C.3     1  UNL1       -0.0233
      9 C          -1.6028   -1.0325   -0.0140 C.ar    1  UNL1        0.0414
     10 C          -0.2831   -1.2676    0.5486 C.ar    1  UNL1       -0.0076
     11 C           0.2411   -2.4908    0.8324 C.ar    1  UNL1       -0.0520
     12 C           1.5170   -2.5808    1.4177 C.ar    1  UNL1       -0.0409
     13 C           2.2210   -1.4360    1.6958 C.ar    1  UNL1        0.0673
     14 CL          3.8149   -1.5150    2.4310 Cl      1  UNL1       -0.0815
     15 C           1.6756   -0.2043    1.4006 C.ar    1  UNL1        0.1240
     16 S           2.5766    1.2569    1.7500 S.O2    1  UNL1        0.0599
     17 O           1.7453    2.4467    1.4638 O.2     1  UNL1       -0.1530
     18 O           2.9041    1.2135    3.2336 O.2     1  UNL1       -0.1530
     19 N           4.0347    1.2197    0.8527 N.3     1  UNL1       -0.1877
     20 C           3.7704    1.1871   -0.5624 C.3     1  UNL1        0.0406
     21 C           5.0783    1.1545   -1.3367 C.3     1  UNL1        0.0583
     22 O           5.8034    2.3021   -1.0184 O.3     1  UNL1       -0.3937
     23 C           0.4469   -0.1043    0.8371 C.ar    1  UNL1       -0.0256
     24 S          -2.1669    0.5290   -0.6321 S.2     1  UNL1       -0.0520
     25 H          -6.5067    2.5576   -1.3292 H       1  UNL1        0.0323
     26 H          -5.6003    3.8970   -2.1470 H       1  UNL1        0.0323
     27 H          -5.2746    3.4875   -0.4147 H       1  UNL1        0.0323
     28 H          -4.7006   -1.8954   -0.9109 H       1  UNL1        0.1673
     29 H          -3.7715   -3.6325    0.2581 H       1  UNL1        0.0292
     30 H          -2.3726   -3.3987    1.2797 H       1  UNL1        0.0292
     31 H          -2.1820   -3.9362   -0.4834 H       1  UNL1        0.0292
     32 H          -0.2716   -3.3985    0.6049 H       1  UNL1        0.0624
     33 H           1.9308   -3.5558    1.6432 H       1  UNL1        0.0633
     34 H           4.6994    0.5119    1.1938 H       1  UNL1        0.1481
     35 H           3.2075    0.2481   -0.7720 H       1  UNL1        0.0464
     36 H           3.2374    2.0842   -0.8712 H       1  UNL1        0.0464
     37 H           5.6536    0.2624   -1.0351 H       1  UNL1        0.0570
     38 H           4.9272    1.1178   -2.4145 H       1  UNL1        0.0570
     39 H           6.4239    2.1589   -0.2586 H       1  UNL1        0.2095
     40 H           0.0369    0.8727    0.6149 H       1  UNL1        0.0644
@<TRIPOS>BOND
     1     1     2    1
     2     2     3    2
     3     2     4    1
     4     4     5    2
     5     5     6   ar
     6     6     7   ar
     7     7     8    1
     8     7     9   ar
     9     9    10    1
    10    10    11   ar
    11    11    12   ar
    12    12    13   ar
    13    13    14    1
    14    13    15   ar
    15    15    16    1
    16    16    17    2
    17    16    18    2
    18    16    19    1
    19    19    20    1
    20    20    21    1
    21    21    22    1
    22    15    23   ar
    23     9    24   ar
    24    24     5   ar
    25    23    10   ar
    26     1    25    1
    27     1    26    1
    28     1    27    1
    29     6    28    1
    30     8    29    1
    31     8    30    1
    32     8    31    1
    33    11    32    1
    34    12    33    1
    35    19    34    1
    36    20    35    1
    37    20    36    1
    38    21    37    1
    39    21    38    1
    40    22    39    1
    41    23    40    1
