@<TRIPOS>MOLECULE
*****
 39 41 0 0 0
SMALL
GASTEIGER

@<TRIPOS>ATOM
      1 C           7.3696    0.4597    0.4009 C.3     1  UNL1       -0.0305
      2 C           6.4823    1.2635    1.3049 C.3     1  UNL1        0.0915
      3 O           5.1910    1.4442    0.7928 O.3     1  UNL1       -0.4485
      4 C           4.3321    0.3978    0.4988 C.ar    1  UNL1        0.4173
      5 N           3.0936    0.5005    0.0104 N.ar    1  UNL1       -0.0868
      6 N           2.5510   -0.6879   -0.1543 N.ar    1  UNL1       -0.1590
      7 C           1.2655   -1.0440   -0.6427 C.ar    1  UNL1        0.0759
      8 C           1.1295   -2.0621   -1.5716 C.ar    1  UNL1       -0.0358
      9 C          -0.1307   -2.3720   -2.0154 C.ar    1  UNL1       -0.0563
     10 C          -1.2322   -1.6893   -1.5501 C.ar    1  UNL1       -0.0198
     11 C          -1.1319   -0.6699   -0.6249 C.ar    1  UNL1        0.1230
     12 O          -2.2354    0.0244   -0.1495 O.3     1  UNL1       -0.4873
     13 C          -3.5235   -0.3307   -0.6375 C.3     1  UNL1        0.1146
     14 C          -4.5902    0.4785   -0.0544 C.ar    1  UNL1       -0.0104
     15 C          -5.2454    0.1219    1.0998 C.ar    1  UNL1       -0.0554
     16 C          -6.2583    0.8805    1.6627 C.ar    1  UNL1       -0.0614
     17 C          -6.6246    2.0510    1.0305 C.ar    1  UNL1       -0.0617
     18 C          -5.9930    2.4431   -0.1272 C.ar    1  UNL1       -0.0614
     19 C          -4.9899    1.6605   -0.6554 C.ar    1  UNL1       -0.0554
     20 C           0.1369   -0.3612   -0.1810 C.ar    1  UNL1        0.0057
     21 C           3.4848   -1.5676    0.2460 C.ar    1  UNL1        0.4451
     22 O           3.4525   -2.8122    0.2831 O.2     1  UNL1       -0.2206
     23 O           4.5561   -0.8790    0.6374 O.2     1  UNL1       -0.3584
     24 H           8.1255    1.0976   -0.0935 H       1  UNL1        0.0262
     25 H           6.8102   -0.0454   -0.4149 H       1  UNL1        0.0262
     26 H           7.9330   -0.2929    0.9878 H       1  UNL1        0.0262
     27 H           6.9321    2.2909    1.4016 H       1  UNL1        0.0695
     28 H           6.4338    0.7669    2.2964 H       1  UNL1        0.0695
     29 H           2.0209   -2.5704   -1.9086 H       1  UNL1        0.0639
     30 H          -0.2220   -3.1695   -2.7410 H       1  UNL1        0.0619
     31 H          -2.2395   -1.9319   -1.9003 H       1  UNL1        0.0654
     32 H          -3.4936   -0.1566   -1.7389 H       1  UNL1        0.0748
     33 H          -3.6791   -1.4295   -0.4969 H       1  UNL1        0.0748
     34 H          -4.9662   -0.7972    1.6067 H       1  UNL1        0.0621
     35 H          -6.7656    0.5889    2.5708 H       1  UNL1        0.0618
     36 H          -7.4239    2.6391    1.4845 H       1  UNL1        0.0618
     37 H          -6.3080    3.3623   -0.5894 H       1  UNL1        0.0618
     38 H          -4.4852    1.9559   -1.5638 H       1  UNL1        0.0621
     39 H           0.2374    0.4423    0.5511 H       1  UNL1        0.0675
@<TRIPOS>BOND
     1     1     2    1
     2     2     3    1
     3     3     4    1
     4     4     5   ar
     5     5     6   ar
     6     6     7    1
     7     7     8   ar
     8     8     9   ar
     9     9    10   ar
    10    10    11   ar
    11    11    12    1
    12    12    13    1
    13    13    14    1
    14    14    15   ar
    15    15    16   ar
    16    16    17   ar
    17    17    18   ar
    18    18    19   ar
    19    11    20   ar
    20     6    21   ar
    21    21    22    2
    22    21    23   ar
    23    23     4   ar
    24    20     7   ar
    25    19    14   ar
    26     1    24    1
    27     1    25    1
    28     1    26    1
    29     2    27    1
    30     2    28    1
    31     8    29    1
    32     9    30    1
    33    10    31    1
    34    13    32    1
    35    13    33    1
    36    15    34    1
    37    16    35    1
    38    17    36    1
    39    18    37    1
    40    19    38    1
    41    20    39    1
