
     RDKit          3D

 51 51  0  0  0  0  0  0  0  0999 V2000
    6.4231    1.5558    0.4098 C   0  0  0  0  0  0  0  0  0  0  0  0
    6.4972    0.0710    0.2183 C   0  0  0  0  0  0  0  0  0  0  0  0
    5.1237   -0.5471    0.3749 C   0  0  0  0  0  0  0  0  0  0  0  0
    4.2005    0.0614   -0.6593 C   0  0  0  0  0  0  0  0  0  0  0  0
    2.8330   -0.5648   -0.5369 C   0  0  0  0  0  0  0  0  0  0  0  0
    2.2350   -0.3529    0.8198 C   0  0  0  0  0  0  0  0  0  0  0  0
    0.8554   -0.9763    0.9342 C   0  0  0  0  0  0  0  0  0  0  0  0
   -0.0997   -0.3610   -0.0736 C   0  0  0  0  0  0  0  0  0  0  0  0
   -1.4264   -1.0113    0.0735 C   0  0  0  0  0  0  0  0  0  0  0  0
   -2.4584   -0.5222   -0.8198 N   0  0  0  0  0  0  0  0  0  0  0  0
   -3.6727   -1.3053   -0.6996 C   0  0  0  0  0  0  0  0  0  0  0  0
   -4.2765   -1.2878    0.6543 C   0  0  0  0  0  0  0  0  0  0  0  0
   -3.6424   -2.2460    1.4701 O   0  0  0  0  0  0  0  0  0  0  0  0
   -4.3814    0.0580    1.2901 C   0  0  0  0  0  0  0  0  0  0  0  0
   -4.2164   -0.1127    2.6638 O   0  0  0  0  0  0  0  0  0  0  0  0
   -3.3603    1.0474    0.8392 C   0  0  0  0  0  0  0  0  0  0  0  0
   -3.9686    2.3286    0.8515 O   0  0  0  0  0  0  0  0  0  0  0  0
   -2.7972    0.8583   -0.5192 C   0  0  0  0  0  0  0  0  0  0  0  0
   -3.6354    1.4781   -1.6172 C   0  0  0  0  0  0  0  0  0  0  0  0
   -2.8499    1.4155   -2.7775 O   0  0  0  0  0  0  0  0  0  0  0  0
    6.0444    2.0037   -0.5418 H   0  0  0  0  0  0  0  0  0  0  0  0
    5.6882    1.8352    1.1893 H   0  0  0  0  0  0  0  0  0  0  0  0
    7.4381    1.9229    0.6591 H   0  0  0  0  0  0  0  0  0  0  0  0
    7.1637   -0.4392    0.9611 H   0  0  0  0  0  0  0  0  0  0  0  0
    6.8779   -0.1766   -0.8163 H   0  0  0  0  0  0  0  0  0  0  0  0
    5.2125   -1.6317    0.2810 H   0  0  0  0  0  0  0  0  0  0  0  0
    4.7875   -0.2681    1.3950 H   0  0  0  0  0  0  0  0  0  0  0  0
    4.1820    1.1529   -0.5213 H   0  0  0  0  0  0  0  0  0  0  0  0
    4.6174   -0.0887   -1.6930 H   0  0  0  0  0  0  0  0  0  0  0  0
    2.8440   -1.6312   -0.8329 H   0  0  0  0  0  0  0  0  0  0  0  0
    2.2066   -0.0529   -1.3170 H   0  0  0  0  0  0  0  0  0  0  0  0
    2.1835    0.7125    1.1111 H   0  0  0  0  0  0  0  0  0  0  0  0
    2.8673   -0.8722    1.5676 H   0  0  0  0  0  0  0  0  0  0  0  0
    0.9053   -2.0550    0.7858 H   0  0  0  0  0  0  0  0  0  0  0  0
    0.4584   -0.7178    1.9397 H   0  0  0  0  0  0  0  0  0  0  0  0
    0.2980   -0.6830   -1.0873 H   0  0  0  0  0  0  0  0  0  0  0  0
   -0.0662    0.7226   -0.0792 H   0  0  0  0  0  0  0  0  0  0  0  0
   -1.3903   -2.1078   -0.0186 H   0  0  0  0  0  0  0  0  0  0  0  0
   -1.8344   -0.8163    1.1101 H   0  0  0  0  0  0  0  0  0  0  0  0
   -3.4676   -2.3609   -0.9771 H   0  0  0  0  0  0  0  0  0  0  0  0
   -4.3969   -0.9289   -1.4348 H   0  0  0  0  0  0  0  0  0  0  0  0
   -5.3358   -1.6779    0.5424 H   0  0  0  0  0  0  0  0  0  0  0  0
   -4.2803   -2.8663    1.9002 H   0  0  0  0  0  0  0  0  0  0  0  0
   -5.4097    0.4824    1.1493 H   0  0  0  0  0  0  0  0  0  0  0  0
   -4.9588    0.3116    3.1579 H   0  0  0  0  0  0  0  0  0  0  0  0
   -2.5051    1.0987    1.5726 H   0  0  0  0  0  0  0  0  0  0  0  0
   -4.8190    2.2073    0.3466 H   0  0  0  0  0  0  0  0  0  0  0  0
   -1.8306    1.4294   -0.5463 H   0  0  0  0  0  0  0  0  0  0  0  0
   -4.6313    1.0417   -1.7311 H   0  0  0  0  0  0  0  0  0  0  0  0
   -3.7131    2.5711   -1.3485 H   0  0  0  0  0  0  0  0  0  0  0  0
   -2.5180    2.2959   -3.0390 H   0  0  0  0  0  0  0  0  0  0  0  0
  1  2  1  0
  2  3  1  0
  3  4  1  0
  4  5  1  0
  5  6  1  0
  6  7  1  0
  7  8  1  0
  8  9  1  0
  9 10  1  0
 10 11  1  0
 11 12  1  0
 12 13  1  0
 12 14  1  0
 14 15  1  0
 14 16  1  0
 16 17  1  0
 16 18  1  0
 18 19  1  0
 19 20  1  0
 18 10  1  0
  1 21  1  0
  1 22  1  0
  1 23  1  0
  2 24  1  0
  2 25  1  0
  3 26  1  0
  3 27  1  0
  4 28  1  0
  4 29  1  0
  5 30  1  0
  5 31  1  0
  6 32  1  0
  6 33  1  0
  7 34  1  0
  7 35  1  0
  8 36  1  0
  8 37  1  0
  9 38  1  0
  9 39  1  0
 11 40  1  0
 11 41  1  0
 12 42  1  0
 13 43  1  0
 14 44  1  0
 15 45  1  0
 16 46  1  0
 17 47  1  0
 18 48  1  0
 19 49  1  0
 19 50  1  0
 20 51  1  0
M  END
$$$$
