@<TRIPOS>MOLECULE
*****
 51 51 0 0 0
SMALL
GASTEIGER

@<TRIPOS>ATOM
      1 C           6.4231    1.5558    0.4098 C.3     1  UNL1       -0.0653
      2 C           6.4972    0.0710    0.2183 C.3     1  UNL1       -0.0559
      3 C           5.1237   -0.5471    0.3749 C.3     1  UNL1       -0.0533
      4 C           4.2005    0.0614   -0.6593 C.3     1  UNL1       -0.0531
      5 C           2.8330   -0.5648   -0.5369 C.3     1  UNL1       -0.0531
      6 C           2.2350   -0.3529    0.8198 C.3     1  UNL1       -0.0530
      7 C           0.8554   -0.9763    0.9342 C.3     1  UNL1       -0.0519
      8 C          -0.0997   -0.3610   -0.0736 C.3     1  UNL1       -0.0402
      9 C          -1.4264   -1.0113    0.0735 C.3     1  UNL1       -0.0006
     10 N          -2.4584   -0.5222   -0.8198 N.3     1  UNL1       -0.2923
     11 C          -3.6727   -1.3053   -0.6996 C.3     1  UNL1        0.0279
     12 C          -4.2765   -1.2878    0.6543 C.3     1  UNL1        0.0962
     13 O          -3.6424   -2.2460    1.4701 O.3     1  UNL1       -0.3879
     14 C          -4.3814    0.0580    1.2901 C.3     1  UNL1        0.1095
     15 O          -4.2164   -0.1127    2.6638 O.3     1  UNL1       -0.3866
     16 C          -3.3603    1.0474    0.8392 C.3     1  UNL1        0.1011
     17 O          -3.9686    2.3286    0.8515 O.3     1  UNL1       -0.3875
     18 C          -2.7972    0.8583   -0.5192 C.3     1  UNL1        0.0621
     19 C          -3.6354    1.4781   -1.6172 C.3     1  UNL1        0.0622
     20 O          -2.8499    1.4155   -2.7775 O.3     1  UNL1       -0.3934
     21 H           6.0444    2.0037   -0.5418 H       1  UNL1        0.0230
     22 H           5.6882    1.8352    1.1893 H       1  UNL1        0.0230
     23 H           7.4381    1.9229    0.6591 H       1  UNL1        0.0230
     24 H           7.1637   -0.4392    0.9611 H       1  UNL1        0.0263
     25 H           6.8779   -0.1766   -0.8163 H       1  UNL1        0.0263
     26 H           5.2125   -1.6317    0.2810 H       1  UNL1        0.0265
     27 H           4.7875   -0.2681    1.3950 H       1  UNL1        0.0265
     28 H           4.1820    1.1529   -0.5213 H       1  UNL1        0.0265
     29 H           4.6174   -0.0887   -1.6930 H       1  UNL1        0.0265
     30 H           2.8440   -1.6312   -0.8329 H       1  UNL1        0.0265
     31 H           2.2066   -0.0529   -1.3170 H       1  UNL1        0.0265
     32 H           2.1835    0.7125    1.1111 H       1  UNL1        0.0265
     33 H           2.8673   -0.8722    1.5676 H       1  UNL1        0.0265
     34 H           0.9053   -2.0550    0.7858 H       1  UNL1        0.0266
     35 H           0.4584   -0.7178    1.9397 H       1  UNL1        0.0266
     36 H           0.2980   -0.6830   -1.0873 H       1  UNL1        0.0278
     37 H          -0.0662    0.7226   -0.0792 H       1  UNL1        0.0278
     38 H          -1.3903   -2.1078   -0.0186 H       1  UNL1        0.0427
     39 H          -1.8344   -0.8163    1.1101 H       1  UNL1        0.0427
     40 H          -3.4676   -2.3609   -0.9771 H       1  UNL1        0.0453
     41 H          -4.3969   -0.9289   -1.4348 H       1  UNL1        0.0453
     42 H          -5.3358   -1.6779    0.5424 H       1  UNL1        0.0633
     43 H          -4.2803   -2.8663    1.9002 H       1  UNL1        0.2099
     44 H          -5.4097    0.4824    1.1493 H       1  UNL1        0.0646
     45 H          -4.9588    0.3116    3.1579 H       1  UNL1        0.2100
     46 H          -2.5051    1.0987    1.5726 H       1  UNL1        0.0636
     47 H          -4.8190    2.2073    0.3466 H       1  UNL1        0.2100
     48 H          -1.8306    1.4294   -0.5463 H       1  UNL1        0.0511
     49 H          -4.6313    1.0417   -1.7311 H       1  UNL1        0.0573
     50 H          -3.7131    2.5711   -1.3485 H       1  UNL1        0.0573
     51 H          -2.5180    2.2959   -3.0390 H       1  UNL1        0.2095
@<TRIPOS>BOND
     1     1     2    1
     2     2     3    1
     3     3     4    1
     4     4     5    1
     5     5     6    1
     6     6     7    1
     7     7     8    1
     8     8     9    1
     9     9    10    1
    10    10    11    1
    11    11    12    1
    12    12    13    1
    13    12    14    1
    14    14    15    1
    15    14    16    1
    16    16    17    1
    17    16    18    1
    18    18    19    1
    19    19    20    1
    20    18    10    1
    21     1    21    1
    22     1    22    1
    23     1    23    1
    24     2    24    1
    25     2    25    1
    26     3    26    1
    27     3    27    1
    28     4    28    1
    29     4    29    1
    30     5    30    1
    31     5    31    1
    32     6    32    1
    33     6    33    1
    34     7    34    1
    35     7    35    1
    36     8    36    1
    37     8    37    1
    38     9    38    1
    39     9    39    1
    40    11    40    1
    41    11    41    1
    42    12    42    1
    43    13    43    1
    44    14    44    1
    45    15    45    1
    46    16    46    1
    47    17    47    1
    48    18    48    1
    49    19    49    1
    50    19    50    1
    51    20    51    1
