@<TRIPOS>MOLECULE
*****
 40 43 0 0 0
SMALL
GASTEIGER

@<TRIPOS>ATOM
      1 O          -0.1660   -0.2968   -1.1402 O.2     1  UNL1       -0.2737
      2 C           0.3235   -0.4553    0.0032 C.2     1  UNL1        0.2354
      3 C          -0.5700   -0.8551    1.1158 C.3     1  UNL1        0.0964
      4 N          -1.9330   -1.0032    0.6689 N.am    1  UNL1       -0.2623
      5 C          -2.4377   -2.2566    0.1834 C.2     1  UNL1        0.2205
      6 O          -1.9243   -3.3244    0.6040 O.2     1  UNL1       -0.2752
      7 C          -3.5479   -2.1846   -0.7964 C.3     1  UNL1        0.0285
      8 C          -4.6690   -1.3734   -0.1963 C.3     1  UNL1       -0.0177
      9 C          -4.1708   -0.0648    0.2652 C.ar    1  UNL1       -0.0255
     10 C          -4.9858    1.0533    0.3075 C.ar    1  UNL1       -0.0568
     11 C          -4.5345    2.2671    0.7468 C.ar    1  UNL1       -0.0614
     12 C          -3.2304    2.4140    1.1680 C.ar    1  UNL1       -0.0600
     13 C          -2.4171    1.3013    1.1263 C.ar    1  UNL1       -0.0400
     14 C          -2.8687    0.0666    0.6813 C.ar    1  UNL1        0.0400
     15 N           1.7330   -0.2538    0.2412 N.am    1  UNL1       -0.2781
     16 C           2.5700    0.1334   -0.8597 C.ar    1  UNL1        0.0836
     17 S           1.9897    0.3851   -2.5123 S.2     1  UNL1       -0.0801
     18 C           3.5456    0.8189   -3.2304 C.ar    1  UNL1       -0.0078
     19 C           4.4103    0.7390   -2.1391 C.ar    1  UNL1        0.0374
     20 BR          6.2823    1.1575   -2.5232 Br      1  UNL1       -0.0490
     21 C           3.9216    0.3951   -0.9493 C.ar    1  UNL1        0.0614
     22 C           4.7350    0.2713    0.3029 C.ar    1  UNL1        0.1648
     23 N           4.2651   -0.0730    1.5106 N.ar    1  UNL1       -0.1295
     24 N           5.2549   -0.0820    2.3766 N.ar    1  UNL1       -0.1377
     25 C           6.3970    0.2529    1.7728 C.ar    1  UNL1        0.1175
     26 N           6.0420    0.4717    0.4611 N.ar    1  UNL1       -0.3276
     27 H          -0.2546   -1.8930    1.4428 H       1  UNL1        0.0564
     28 H          -0.4514   -0.2428    2.0234 H       1  UNL1        0.0564
     29 H          -3.8940   -3.2006   -1.0963 H       1  UNL1        0.0362
     30 H          -3.1674   -1.6460   -1.6991 H       1  UNL1        0.0362
     31 H          -5.0737   -1.8945    0.7143 H       1  UNL1        0.0318
     32 H          -5.5223   -1.2591   -0.9085 H       1  UNL1        0.0318
     33 H          -6.0168    0.9251   -0.0286 H       1  UNL1        0.0621
     34 H          -5.2392    3.0959    0.7485 H       1  UNL1        0.0618
     35 H          -2.9241    3.3927    1.5055 H       1  UNL1        0.0618
     36 H          -1.3993    1.4600    1.4651 H       1  UNL1        0.0636
     37 H           2.0311   -0.4073    1.2017 H       1  UNL1        0.1554
     38 H           3.7336    1.0724   -4.2509 H       1  UNL1        0.0705
     39 H           7.3916    0.3423    2.1861 H       1  UNL1        0.1046
     40 H           6.7716    0.7509   -0.2276 H       1  UNL1        0.1683
@<TRIPOS>BOND
     1     1     2    2
     2     2     3    1
     3     3     4    1
     4     4     5   am
     5     5     6    2
     6     5     7    1
     7     7     8    1
     8     8     9    1
     9     9    10   ar
    10    10    11   ar
    11    11    12   ar
    12    12    13   ar
    13    13    14   ar
    14     2    15   am
    15    15    16    1
    16    16    17   ar
    17    17    18   ar
    18    18    19   ar
    19    19    20    1
    20    19    21   ar
    21    21    22    1
    22    22    23   ar
    23    23    24   ar
    24    24    25   ar
    25    25    26   ar
    26    14     4    1
    27    21    16   ar
    28    26    22   ar
    29    14     9   ar
    30     3    27    1
    31     3    28    1
    32     7    29    1
    33     7    30    1
    34     8    31    1
    35     8    32    1
    36    10    33    1
    37    11    34    1
    38    12    35    1
    39    13    36    1
    40    15    37    1
    41    18    38    1
    42    25    39    1
    43    26    40    1
