
     RDKit          3D

 40 43  0  0  0  0  0  0  0  0999 V2000
   -0.1660   -0.2968   -1.1402 O   0  0  0  0  0  0  0  0  0  0  0  0
    0.3235   -0.4553    0.0032 C   0  0  0  0  0  0  0  0  0  0  0  0
   -0.5700   -0.8551    1.1158 C   0  0  0  0  0  0  0  0  0  0  0  0
   -1.9330   -1.0032    0.6689 N   0  0  0  0  0  0  0  0  0  0  0  0
   -2.4377   -2.2566    0.1834 C   0  0  0  0  0  0  0  0  0  0  0  0
   -1.9243   -3.3244    0.6040 O   0  0  0  0  0  0  0  0  0  0  0  0
   -3.5479   -2.1846   -0.7964 C   0  0  0  0  0  0  0  0  0  0  0  0
   -4.6690   -1.3734   -0.1963 C   0  0  0  0  0  0  0  0  0  0  0  0
   -4.1708   -0.0648    0.2652 C   0  0  0  0  0  0  0  0  0  0  0  0
   -4.9858    1.0533    0.3075 C   0  0  0  0  0  0  0  0  0  0  0  0
   -4.5345    2.2671    0.7468 C   0  0  0  0  0  0  0  0  0  0  0  0
   -3.2304    2.4140    1.1680 C   0  0  0  0  0  0  0  0  0  0  0  0
   -2.4171    1.3013    1.1263 C   0  0  0  0  0  0  0  0  0  0  0  0
   -2.8687    0.0666    0.6813 C   0  0  0  0  0  0  0  0  0  0  0  0
    1.7330   -0.2538    0.2412 N   0  0  0  0  0  0  0  0  0  0  0  0
    2.5700    0.1334   -0.8597 C   0  0  0  0  0  0  0  0  0  0  0  0
    1.9897    0.3851   -2.5123 S   0  0  0  0  0  0  0  0  0  0  0  0
    3.5456    0.8189   -3.2304 C   0  0  0  0  0  0  0  0  0  0  0  0
    4.4103    0.7390   -2.1391 C   0  0  0  0  0  0  0  0  0  0  0  0
    6.2823    1.1575   -2.5232 Br  0  0  0  0  0  0  0  0  0  0  0  0
    3.9216    0.3951   -0.9493 C   0  0  0  0  0  0  0  0  0  0  0  0
    4.7350    0.2713    0.3029 C   0  0  0  0  0  0  0  0  0  0  0  0
    4.2651   -0.0730    1.5106 N   0  0  0  0  0  0  0  0  0  0  0  0
    5.2549   -0.0820    2.3766 N   0  0  0  0  0  0  0  0  0  0  0  0
    6.3970    0.2529    1.7728 C   0  0  0  0  0  0  0  0  0  0  0  0
    6.0420    0.4717    0.4611 N   0  0  0  0  0  0  0  0  0  0  0  0
   -0.2546   -1.8930    1.4428 H   0  0  0  0  0  0  0  0  0  0  0  0
   -0.4514   -0.2428    2.0234 H   0  0  0  0  0  0  0  0  0  0  0  0
   -3.8940   -3.2006   -1.0963 H   0  0  0  0  0  0  0  0  0  0  0  0
   -3.1674   -1.6460   -1.6991 H   0  0  0  0  0  0  0  0  0  0  0  0
   -5.0737   -1.8945    0.7143 H   0  0  0  0  0  0  0  0  0  0  0  0
   -5.5223   -1.2591   -0.9085 H   0  0  0  0  0  0  0  0  0  0  0  0
   -6.0168    0.9251   -0.0286 H   0  0  0  0  0  0  0  0  0  0  0  0
   -5.2392    3.0959    0.7485 H   0  0  0  0  0  0  0  0  0  0  0  0
   -2.9241    3.3927    1.5055 H   0  0  0  0  0  0  0  0  0  0  0  0
   -1.3993    1.4600    1.4651 H   0  0  0  0  0  0  0  0  0  0  0  0
    2.0311   -0.4073    1.2017 H   0  0  0  0  0  0  0  0  0  0  0  0
    3.7336    1.0724   -4.2509 H   0  0  0  0  0  0  0  0  0  0  0  0
    7.3916    0.3423    2.1861 H   0  0  0  0  0  0  0  0  0  0  0  0
    6.7716    0.7509   -0.2276 H   0  0  0  0  0  0  0  0  0  0  0  0
  1  2  2  0
  2  3  1  0
  3  4  1  0
  4  5  1  0
  5  6  2  0
  5  7  1  0
  7  8  1  0
  8  9  1  0
  9 10  2  0
 10 11  1  0
 11 12  2  0
 12 13  1  0
 13 14  2  0
  2 15  1  0
 15 16  1  0
 16 17  1  0
 17 18  1  0
 18 19  2  0
 19 20  1  0
 19 21  1  0
 21 22  1  0
 22 23  2  0
 23 24  1  0
 24 25  2  0
 25 26  1  0
 14  4  1  0
 21 16  2  0
 26 22  1  0
 14  9  1  0
  3 27  1  0
  3 28  1  0
  7 29  1  0
  7 30  1  0
  8 31  1  0
  8 32  1  0
 10 33  1  0
 11 34  1  0
 12 35  1  0
 13 36  1  0
 15 37  1  0
 18 38  1  0
 25 39  1  0
 26 40  1  0
M  END
$$$$
