@<TRIPOS>MOLECULE
*****
 66 70 0 0 0
SMALL
GASTEIGER

@<TRIPOS>ATOM
      1 C           4.9726    0.2022   -1.1815 C.3     1  UNL1       -0.0275
      2 C           4.2745    0.1316    0.1608 C.3     1  UNL1        0.1021
      3 O           3.9209   -1.2024    0.3658 O.3     1  UNL1       -0.4879
      4 C           2.6468   -1.7280    0.4332 C.ar    1  UNL1        0.1350
      5 C           1.4796   -1.0149    0.3058 C.ar    1  UNL1       -0.0113
      6 C           0.2350   -1.6199    0.3862 C.ar    1  UNL1       -0.0094
      7 C          -0.9970   -0.8296    0.2453 C.ar    1  UNL1        0.0198
      8 C          -2.1756   -1.1154    0.8610 C.ar    1  UNL1        0.0571
      9 N          -3.0569   -0.1565    0.4768 N.ar    1  UNL1       -0.1787
     10 N          -2.4873    0.7061   -0.3424 N.ar    1  UNL1       -0.2650
     11 C          -3.1293    1.8484   -0.9416 C.3     1  UNL1        0.0836
     12 C          -4.1403    2.5029   -0.0280 C.3     1  UNL1        0.0009
     13 C          -5.4384    2.0728   -0.6218 C.3     1  UNL1        0.0668
     14 C          -6.4280    3.2115   -0.5189 C.3     1  UNL1       -0.0360
     15 C          -6.0058    0.9303    0.2271 C.3     1  UNL1       -0.0360
     16 O          -5.2432    1.6340   -1.8982 O.3     1  UNL1       -0.3659
     17 C          -3.9126    1.5260   -2.1719 C.3     1  UNL1        0.0869
     18 C          -3.6441    0.1157   -2.6653 C.3     1  UNL1       -0.0340
     19 C          -3.6036    2.4815   -3.3275 C.3     1  UNL1       -0.0340
     20 C          -1.2037    0.3091   -0.5029 C.ar    1  UNL1        0.0336
     21 C           0.2003   -2.9799    0.6013 C.ar    1  UNL1       -0.0258
     22 C           1.3674   -3.7033    0.7304 C.ar    1  UNL1        0.0998
     23 N           1.6223   -5.0295    0.9440 N.ar    1  UNL1       -0.1689
     24 N           2.9243   -5.2359    0.9929 N.ar    1  UNL1       -0.2408
     25 C           3.5856   -6.5219    1.2054 C.3     1  UNL1        0.0331
     26 C           3.5898   -4.0799    0.8178 C.ar    1  UNL1        0.2228
     27 F           4.9425   -3.8676    0.8006 F       1  UNL1       -0.1834
     28 C           2.6077   -3.1157    0.6526 C.ar    1  UNL1        0.0975
     29 C           5.1378    0.6820    1.2744 C.3     1  UNL1        0.0195
     30 C           5.5079    2.1172    1.0587 C.3     1  UNL1        0.0182
     31 N           4.2484    2.8008    1.2223 N.am    1  UNL1       -0.3149
     32 C           3.4462    2.0236    2.1180 C.2     1  UNL1        0.2135
     33 O           2.2950    2.3574    2.4720 O.2     1  UNL1       -0.2758
     34 C           4.2360    0.8024    2.5127 C.3     1  UNL1        0.0315
     35 H           5.9524   -0.3271   -1.1653 H       1  UNL1        0.0265
     36 H           5.0500    1.2311   -1.5678 H       1  UNL1        0.0265
     37 H           4.3336   -0.3556   -1.8989 H       1  UNL1        0.0265
     38 H           3.3654    0.7439    0.0568 H       1  UNL1        0.0733
     39 H           1.5208    0.0564    0.1363 H       1  UNL1        0.0660
     40 H          -2.3616   -1.9447    1.5226 H       1  UNL1        0.0854
     41 H          -2.3695    2.6266   -1.2515 H       1  UNL1        0.0574
     42 H          -3.9950    3.6033   -0.0138 H       1  UNL1        0.0314
     43 H          -3.9847    2.0643    0.9909 H       1  UNL1        0.0314
     44 H          -6.5680    3.4633    0.5410 H       1  UNL1        0.0257
     45 H          -7.3773    2.8737   -0.9384 H       1  UNL1        0.0257
     46 H          -6.0513    4.0907   -1.0778 H       1  UNL1        0.0257
     47 H          -5.7606   -0.0338   -0.2369 H       1  UNL1        0.0257
     48 H          -5.5952    1.0020    1.2387 H       1  UNL1        0.0257
     49 H          -7.1266    1.0349    0.2855 H       1  UNL1        0.0257
     50 H          -3.5428   -0.5774   -1.8138 H       1  UNL1        0.0258
     51 H          -4.4991   -0.2732   -3.2768 H       1  UNL1        0.0258
     52 H          -2.7512    0.0676   -3.3215 H       1  UNL1        0.0258
     53 H          -3.3007    3.4413   -2.8600 H       1  UNL1        0.0258
     54 H          -4.5208    2.6438   -3.9339 H       1  UNL1        0.0258
     55 H          -2.7883    2.0368   -3.9400 H       1  UNL1        0.0258
     56 H          -0.4880    0.8273   -1.1251 H       1  UNL1        0.0832
     57 H          -0.7526   -3.4690    0.6672 H       1  UNL1        0.0646
     58 H           2.9123   -7.1965    1.7531 H       1  UNL1        0.0474
     59 H           3.8155   -6.9136    0.1889 H       1  UNL1        0.0474
     60 H           4.5239   -6.4277    1.7599 H       1  UNL1        0.0474
     61 H           5.9692    0.0192    1.5435 H       1  UNL1        0.0356
     62 H           5.9954    2.3223    0.0915 H       1  UNL1        0.0466
     63 H           6.1505    2.4177    1.9238 H       1  UNL1        0.0466
     64 H           3.9881    3.7133    0.7527 H       1  UNL1        0.1487
     65 H           3.6063   -0.0745    2.6450 H       1  UNL1        0.0363
     66 H           4.8750    1.0583    3.3582 H       1  UNL1        0.0363
@<TRIPOS>BOND
     1     1     2    1
     2     2     3    1
     3     3     4    1
     4     4     5   ar
     5     5     6   ar
     6     6     7    1
     7     7     8   ar
     8     8     9   ar
     9     9    10   ar
    10    10    11    1
    11    11    12    1
    12    12    13    1
    13    13    14    1
    14    13    15    1
    15    13    16    1
    16    16    17    1
    17    17    18    1
    18    17    19    1
    19    10    20   ar
    20     6    21   ar
    21    21    22   ar
    22    22    23   ar
    23    23    24   ar
    24    24    25    1
    25    24    26   ar
    26    26    27    1
    27    26    28   ar
    28     2    29    1
    29    29    30    1
    30    30    31    1
    31    31    32   am
    32    32    33    2
    33    32    34    1
    34    28     4   ar
    35    34    29    1
    36    20     7   ar
    37    28    22   ar
    38    17    11    1
    39     1    35    1
    40     1    36    1
    41     1    37    1
    42     2    38    1
    43     5    39    1
    44     8    40    1
    45    11    41    1
    46    12    42    1
    47    12    43    1
    48    14    44    1
    49    14    45    1
    50    14    46    1
    51    15    47    1
    52    15    48    1
    53    15    49    1
    54    18    50    1
    55    18    51    1
    56    18    52    1
    57    19    53    1
    58    19    54    1
    59    19    55    1
    60    20    56    1
    61    21    57    1
    62    25    58    1
    63    25    59    1
    64    25    60    1
    65    29    61    1
    66    30    62    1
    67    30    63    1
    68    31    64    1
    69    34    65    1
    70    34    66    1
