@<TRIPOS>MOLECULE
*****
 75 80 0 0 0
SMALL
GASTEIGER

@<TRIPOS>ATOM
      1 C           6.6573   -0.3747   -1.1733 C.3     1  UNL1       -0.0391
      2 C           6.8061    0.8735   -0.3896 C.ar    1  UNL1       -0.0420
      3 C           8.0511    1.4656   -0.3004 C.ar    1  UNL1       -0.0443
      4 C           8.2759    2.6142    0.3897 C.ar    1  UNL1        0.0591
      5 C           9.6409    3.1682    0.4269 C.2     1  UNL1        0.3368
      6 O           9.8473    4.2243    1.0607 O.2     1  UNL1       -0.2451
      7 O          10.6713    2.5400   -0.2210 O.3     1  UNL1       -0.4771
      8 C           7.2292    3.2172    1.0269 C.ar    1  UNL1       -0.0472
      9 C           5.9776    2.6809    0.9756 C.ar    1  UNL1       -0.0530
     10 C           5.7692    1.4966    0.2588 C.ar    1  UNL1       -0.0149
     11 C           4.4392    0.9183    0.2151 C.ar    1  UNL1       -0.0175
     12 C           3.3268    1.6628   -0.1012 C.ar    1  UNL1       -0.0523
     13 C           2.0648    1.0710   -0.1166 C.ar    1  UNL1       -0.0392
     14 C           1.8832   -0.2536    0.1776 C.ar    1  UNL1        0.0455
     15 N           0.6019   -0.8748    0.1695 N.am    1  UNL1       -0.1920
     16 C          -0.0898   -1.5334   -0.8986 C.2     1  UNL1        0.3219
     17 O           0.3511   -1.6721   -2.0659 O.2     1  UNL1       -0.2512
     18 N          -1.3601   -1.9967   -0.3908 N.am    1  UNL1       -0.2227
     19 C          -2.0686   -3.0669   -0.9564 C.ar    1  UNL1        0.1508
     20 N          -3.0010   -2.8264   -1.9019 N.ar    1  UNL1       -0.2365
     21 C          -3.6951   -3.8240   -2.4702 C.ar    1  UNL1        0.0478
     22 C          -3.4758   -5.1373   -2.1031 C.ar    1  UNL1        0.0461
     23 N          -2.5657   -5.3997   -1.1773 N.ar    1  UNL1       -0.2552
     24 C          -1.8807   -4.3940   -0.6191 C.ar    1  UNL1        0.0784
     25 C          -0.8674   -4.7505    0.4054 C.3     1  UNL1       -0.0190
     26 C          -1.6341   -1.1166    0.7260 C.3     1  UNL1        0.1241
     27 C          -2.5210   -1.6635    1.7705 C.3     1  UNL1       -0.0095
     28 C          -3.9700   -1.3095    1.6456 C.3     1  UNL1        0.0017
     29 N          -4.2387   -0.0320    1.0996 N.3     1  UNL1       -0.2965
     30 C          -5.1367   -0.0339   -0.0201 C.3     1  UNL1        0.0415
     31 C          -5.3511    1.3309   -0.5193 C.ar    1  UNL1        0.0581
     32 N          -4.7110    1.6995   -1.6658 N.ar    1  UNL1       -0.2583
     33 C          -4.8393    2.9152   -2.1981 C.ar    1  UNL1        0.0279
     34 C          -5.6372    3.8397   -1.5866 C.ar    1  UNL1       -0.0433
     35 C          -6.3039    3.4828   -0.4084 C.ar    1  UNL1       -0.0557
     36 C          -6.1656    2.2278    0.1325 C.ar    1  UNL1       -0.0279
     37 C          -6.8608    1.8618    1.3558 C.3     1  UNL1       -0.0380
     38 C          -3.1434    0.8709    1.0158 C.3     1  UNL1        0.0017
     39 C          -2.0403    0.2454    0.2164 C.3     1  UNL1       -0.0095
     40 C          -0.2670   -0.9578    1.2882 C.2     1  UNL1        0.2516
     41 O           0.0344   -0.9096    2.4807 O.2     1  UNL1       -0.2724
     42 C           3.0062   -1.0026    0.4961 C.ar    1  UNL1       -0.0392
     43 C           4.2635   -0.4120    0.5113 C.ar    1  UNL1       -0.0523
     44 H           7.2972   -0.2937   -2.0866 H       1  UNL1        0.0278
     45 H           7.0076   -1.2816   -0.6359 H       1  UNL1        0.0278
     46 H           5.6181   -0.4580   -1.5192 H       1  UNL1        0.0278
     47 H           8.8735    0.9831   -0.8070 H       1  UNL1        0.0628
     48 H          11.6570    2.7363   -0.0503 H       1  UNL1        0.2954
     49 H           7.4360    4.1343    1.5713 H       1  UNL1        0.0626
     50 H           5.1666    3.1755    1.4868 H       1  UNL1        0.0624
     51 H           3.4688    2.7119   -0.3349 H       1  UNL1        0.0624
     52 H           1.2106    1.6664   -0.3651 H       1  UNL1        0.0636
     53 H          -4.4502   -3.6538   -3.2330 H       1  UNL1        0.0846
     54 H          -4.0414   -5.9416   -2.5674 H       1  UNL1        0.0845
     55 H          -0.4457   -5.7470    0.1536 H       1  UNL1        0.0294
     56 H          -1.3277   -4.8434    1.3982 H       1  UNL1        0.0294
     57 H          -0.0945   -3.9652    0.4517 H       1  UNL1        0.0294
     58 H          -2.1469   -1.3480    2.7894 H       1  UNL1        0.0303
     59 H          -2.4537   -2.7687    1.7756 H       1  UNL1        0.0303
     60 H          -4.4026   -1.3493    2.6862 H       1  UNL1        0.0427
     61 H          -4.5508   -2.0862    1.0748 H       1  UNL1        0.0427
     62 H          -6.0752   -0.5186    0.3305 H       1  UNL1        0.0491
     63 H          -4.7891   -0.6668   -0.8599 H       1  UNL1        0.0491
     64 H          -4.3394    3.2272   -3.1082 H       1  UNL1        0.0829
     65 H          -5.7494    4.8247   -2.0059 H       1  UNL1        0.0633
     66 H          -6.9229    4.2450    0.0398 H       1  UNL1        0.0621
     67 H          -7.8205    2.4475    1.3897 H       1  UNL1        0.0278
     68 H          -6.2869    2.2118    2.2529 H       1  UNL1        0.0278
     69 H          -7.1565    0.8086    1.4430 H       1  UNL1        0.0278
     70 H          -3.4691    1.7876    0.5092 H       1  UNL1        0.0427
     71 H          -2.7653    1.0820    2.0343 H       1  UNL1        0.0427
     72 H          -2.3528    0.1191   -0.8506 H       1  UNL1        0.0303
     73 H          -1.1985    0.9694    0.1928 H       1  UNL1        0.0303
     74 H           2.9335   -2.0503    0.7376 H       1  UNL1        0.0636
     75 H           5.0973   -1.0229    0.7639 H       1  UNL1        0.0624
@<TRIPOS>BOND
     1     1     2    1
     2     2     3   ar
     3     3     4   ar
     4     4     5    1
     5     5     6    2
     6     5     7    1
     7     4     8   ar
     8     8     9   ar
     9     9    10   ar
    10    10    11    1
    11    11    12   ar
    12    12    13   ar
    13    13    14   ar
    14    14    15    1
    15    15    16   am
    16    16    17    2
    17    16    18   am
    18    18    19    1
    19    19    20   ar
    20    20    21   ar
    21    21    22   ar
    22    22    23   ar
    23    23    24   ar
    24    24    25    1
    25    18    26    1
    26    26    27    1
    27    27    28    1
    28    28    29    1
    29    29    30    1
    30    30    31    1
    31    31    32   ar
    32    32    33   ar
    33    33    34   ar
    34    34    35   ar
    35    35    36   ar
    36    36    37    1
    37    29    38    1
    38    38    39    1
    39    26    40    1
    40    40    41    2
    41    14    42   ar
    42    42    43   ar
    43    10     2   ar
    44    43    11   ar
    45    40    15   am
    46    24    19   ar
    47    39    26    1
    48    36    31   ar
    49     1    44    1
    50     1    45    1
    51     1    46    1
    52     3    47    1
    53     7    48    1
    54     8    49    1
    55     9    50    1
    56    12    51    1
    57    13    52    1
    58    21    53    1
    59    22    54    1
    60    25    55    1
    61    25    56    1
    62    25    57    1
    63    27    58    1
    64    27    59    1
    65    28    60    1
    66    28    61    1
    67    30    62    1
    68    30    63    1
    69    33    64    1
    70    34    65    1
    71    35    66    1
    72    37    67    1
    73    37    68    1
    74    37    69    1
    75    38    70    1
    76    38    71    1
    77    39    72    1
    78    39    73    1
    79    42    74    1
    80    43    75    1
