
     RDKit          3D

 75 80  0  0  0  0  0  0  0  0999 V2000
    6.6573   -0.3747   -1.1733 C   0  0  0  0  0  0  0  0  0  0  0  0
    6.8061    0.8735   -0.3896 C   0  0  0  0  0  0  0  0  0  0  0  0
    8.0511    1.4656   -0.3004 C   0  0  0  0  0  0  0  0  0  0  0  0
    8.2759    2.6142    0.3897 C   0  0  0  0  0  0  0  0  0  0  0  0
    9.6409    3.1682    0.4269 C   0  0  0  0  0  0  0  0  0  0  0  0
    9.8473    4.2243    1.0607 O   0  0  0  0  0  0  0  0  0  0  0  0
   10.6713    2.5400   -0.2210 O   0  0  0  0  0  0  0  0  0  0  0  0
    7.2292    3.2172    1.0269 C   0  0  0  0  0  0  0  0  0  0  0  0
    5.9776    2.6809    0.9756 C   0  0  0  0  0  0  0  0  0  0  0  0
    5.7692    1.4966    0.2588 C   0  0  0  0  0  0  0  0  0  0  0  0
    4.4392    0.9183    0.2151 C   0  0  0  0  0  0  0  0  0  0  0  0
    3.3268    1.6628   -0.1012 C   0  0  0  0  0  0  0  0  0  0  0  0
    2.0648    1.0710   -0.1166 C   0  0  0  0  0  0  0  0  0  0  0  0
    1.8832   -0.2536    0.1776 C   0  0  0  0  0  0  0  0  0  0  0  0
    0.6019   -0.8748    0.1695 N   0  0  0  0  0  0  0  0  0  0  0  0
   -0.0898   -1.5334   -0.8986 C   0  0  0  0  0  0  0  0  0  0  0  0
    0.3511   -1.6721   -2.0659 O   0  0  0  0  0  0  0  0  0  0  0  0
   -1.3601   -1.9967   -0.3908 N   0  0  0  0  0  0  0  0  0  0  0  0
   -2.0686   -3.0669   -0.9564 C   0  0  0  0  0  0  0  0  0  0  0  0
   -3.0010   -2.8264   -1.9019 N   0  0  0  0  0  0  0  0  0  0  0  0
   -3.6951   -3.8240   -2.4702 C   0  0  0  0  0  0  0  0  0  0  0  0
   -3.4758   -5.1373   -2.1031 C   0  0  0  0  0  0  0  0  0  0  0  0
   -2.5657   -5.3997   -1.1773 N   0  0  0  0  0  0  0  0  0  0  0  0
   -1.8807   -4.3940   -0.6191 C   0  0  0  0  0  0  0  0  0  0  0  0
   -0.8674   -4.7505    0.4054 C   0  0  0  0  0  0  0  0  0  0  0  0
   -1.6341   -1.1166    0.7260 C   0  0  0  0  0  0  0  0  0  0  0  0
   -2.5210   -1.6635    1.7705 C   0  0  0  0  0  0  0  0  0  0  0  0
   -3.9700   -1.3095    1.6456 C   0  0  0  0  0  0  0  0  0  0  0  0
   -4.2387   -0.0320    1.0996 N   0  0  0  0  0  0  0  0  0  0  0  0
   -5.1367   -0.0339   -0.0201 C   0  0  0  0  0  0  0  0  0  0  0  0
   -5.3511    1.3309   -0.5193 C   0  0  0  0  0  0  0  0  0  0  0  0
   -4.7110    1.6995   -1.6658 N   0  0  0  0  0  0  0  0  0  0  0  0
   -4.8393    2.9152   -2.1981 C   0  0  0  0  0  0  0  0  0  0  0  0
   -5.6372    3.8397   -1.5866 C   0  0  0  0  0  0  0  0  0  0  0  0
   -6.3039    3.4828   -0.4084 C   0  0  0  0  0  0  0  0  0  0  0  0
   -6.1656    2.2278    0.1325 C   0  0  0  0  0  0  0  0  0  0  0  0
   -6.8608    1.8618    1.3558 C   0  0  0  0  0  0  0  0  0  0  0  0
   -3.1434    0.8709    1.0158 C   0  0  0  0  0  0  0  0  0  0  0  0
   -2.0403    0.2454    0.2164 C   0  0  0  0  0  0  0  0  0  0  0  0
   -0.2670   -0.9578    1.2882 C   0  0  0  0  0  0  0  0  0  0  0  0
    0.0344   -0.9096    2.4807 O   0  0  0  0  0  0  0  0  0  0  0  0
    3.0062   -1.0026    0.4961 C   0  0  0  0  0  0  0  0  0  0  0  0
    4.2635   -0.4120    0.5113 C   0  0  0  0  0  0  0  0  0  0  0  0
    7.2972   -0.2937   -2.0866 H   0  0  0  0  0  0  0  0  0  0  0  0
    7.0076   -1.2816   -0.6359 H   0  0  0  0  0  0  0  0  0  0  0  0
    5.6181   -0.4580   -1.5192 H   0  0  0  0  0  0  0  0  0  0  0  0
    8.8735    0.9831   -0.8070 H   0  0  0  0  0  0  0  0  0  0  0  0
   11.6570    2.7363   -0.0503 H   0  0  0  0  0  0  0  0  0  0  0  0
    7.4360    4.1343    1.5713 H   0  0  0  0  0  0  0  0  0  0  0  0
    5.1666    3.1755    1.4868 H   0  0  0  0  0  0  0  0  0  0  0  0
    3.4688    2.7119   -0.3349 H   0  0  0  0  0  0  0  0  0  0  0  0
    1.2106    1.6664   -0.3651 H   0  0  0  0  0  0  0  0  0  0  0  0
   -4.4502   -3.6538   -3.2330 H   0  0  0  0  0  0  0  0  0  0  0  0
   -4.0414   -5.9416   -2.5674 H   0  0  0  0  0  0  0  0  0  0  0  0
   -0.4457   -5.7470    0.1536 H   0  0  0  0  0  0  0  0  0  0  0  0
   -1.3277   -4.8434    1.3982 H   0  0  0  0  0  0  0  0  0  0  0  0
   -0.0945   -3.9652    0.4517 H   0  0  0  0  0  0  0  0  0  0  0  0
   -2.1469   -1.3480    2.7894 H   0  0  0  0  0  0  0  0  0  0  0  0
   -2.4537   -2.7687    1.7756 H   0  0  0  0  0  0  0  0  0  0  0  0
   -4.4026   -1.3493    2.6862 H   0  0  0  0  0  0  0  0  0  0  0  0
   -4.5508   -2.0862    1.0748 H   0  0  0  0  0  0  0  0  0  0  0  0
   -6.0752   -0.5186    0.3305 H   0  0  0  0  0  0  0  0  0  0  0  0
   -4.7891   -0.6668   -0.8599 H   0  0  0  0  0  0  0  0  0  0  0  0
   -4.3394    3.2272   -3.1082 H   0  0  0  0  0  0  0  0  0  0  0  0
   -5.7494    4.8247   -2.0059 H   0  0  0  0  0  0  0  0  0  0  0  0
   -6.9229    4.2450    0.0398 H   0  0  0  0  0  0  0  0  0  0  0  0
   -7.8205    2.4475    1.3897 H   0  0  0  0  0  0  0  0  0  0  0  0
   -6.2869    2.2118    2.2529 H   0  0  0  0  0  0  0  0  0  0  0  0
   -7.1565    0.8086    1.4430 H   0  0  0  0  0  0  0  0  0  0  0  0
   -3.4691    1.7876    0.5092 H   0  0  0  0  0  0  0  0  0  0  0  0
   -2.7653    1.0820    2.0343 H   0  0  0  0  0  0  0  0  0  0  0  0
   -2.3528    0.1191   -0.8506 H   0  0  0  0  0  0  0  0  0  0  0  0
   -1.1985    0.9694    0.1928 H   0  0  0  0  0  0  0  0  0  0  0  0
    2.9335   -2.0503    0.7376 H   0  0  0  0  0  0  0  0  0  0  0  0
    5.0973   -1.0229    0.7639 H   0  0  0  0  0  0  0  0  0  0  0  0
  1  2  1  0
  2  3  2  0
  3  4  1  0
  4  5  1  0
  5  6  2  0
  5  7  1  0
  4  8  2  0
  8  9  1  0
  9 10  2  0
 10 11  1  0
 11 12  2  0
 12 13  1  0
 13 14  2  0
 14 15  1  0
 15 16  1  0
 16 17  2  0
 16 18  1  0
 18 19  1  0
 19 20  2  0
 20 21  1  0
 21 22  2  0
 22 23  1  0
 23 24  2  0
 24 25  1  0
 18 26  1  0
 26 27  1  0
 27 28  1  0
 28 29  1  0
 29 30  1  0
 30 31  1  0
 31 32  2  0
 32 33  1  0
 33 34  2  0
 34 35  1  0
 35 36  2  0
 36 37  1  0
 29 38  1  0
 38 39  1  0
 26 40  1  0
 40 41  2  0
 14 42  1  0
 42 43  2  0
 10  2  1  0
 43 11  1  0
 40 15  1  0
 24 19  1  0
 39 26  1  0
 36 31  1  0
  1 44  1  0
  1 45  1  0
  1 46  1  0
  3 47  1  0
  7 48  1  0
  8 49  1  0
  9 50  1  0
 12 51  1  0
 13 52  1  0
 21 53  1  0
 22 54  1  0
 25 55  1  0
 25 56  1  0
 25 57  1  0
 27 58  1  0
 27 59  1  0
 28 60  1  0
 28 61  1  0
 30 62  1  0
 30 63  1  0
 33 64  1  0
 34 65  1  0
 35 66  1  0
 37 67  1  0
 37 68  1  0
 37 69  1  0
 38 70  1  0
 38 71  1  0
 39 72  1  0
 39 73  1  0
 42 74  1  0
 43 75  1  0
M  END
$$$$
