@<TRIPOS>MOLECULE
*****
 50 53 0 0 0
SMALL
GASTEIGER

@<TRIPOS>ATOM
      1 O          -3.8721   -1.6305    1.6068 O.2     1  UNL1       -0.2739
      2 C          -3.5216   -1.0278    0.5287 C.2     1  UNL1        0.2328
      3 C          -2.3228   -1.5594   -0.1107 C.3     1  UNL1        0.0865
      4 C          -1.0813   -1.5119    0.7693 C.3     1  UNL1       -0.0122
      5 C           0.0042   -1.7721   -0.2221 C.3     1  UNL1        0.0249
      6 N           1.1818   -0.9944   -0.0850 N.3     1  UNL1       -0.2952
      7 C           1.0485    0.4150   -0.2090 C.3     1  UNL1        0.0151
      8 C           2.2588    1.1094    0.4019 C.3     1  UNL1        0.0277
      9 N           3.4536    0.3975   -0.0048 N.pl3   1  UNL1       -0.2972
     10 C           4.6947    0.6061    0.6818 C.ar    1  UNL1        0.2178
     11 N           4.7332    1.4622    1.6966 N.ar    1  UNL1       -0.2228
     12 C           5.8289    1.7440    2.4167 C.ar    1  UNL1        0.0326
     13 C           7.0060    1.0853    2.0661 C.ar    1  UNL1       -0.0253
     14 C           6.9550    0.2024    1.0155 C.ar    1  UNL1        0.0326
     15 N           5.8160   -0.0262    0.3421 N.ar    1  UNL1       -0.2228
     16 C           3.3264   -0.5176   -1.1205 C.3     1  UNL1        0.0277
     17 C           2.3069   -1.5623   -0.7543 C.3     1  UNL1        0.0151
     18 C          -0.6464   -1.6669   -1.5812 C.3     1  UNL1        0.0123
     19 N          -1.8885   -0.9143   -1.3019 N.3     1  UNL1       -0.3041
     20 N          -4.3224    0.0473    0.1085 N.am    1  UNL1       -0.2943
     21 C          -4.0723    0.8495   -1.0932 C.3     1  UNL1        0.0204
     22 C          -5.4318    1.5189   -1.3670 C.3     1  UNL1        0.0281
     23 C          -5.8471    1.8229    0.0619 C.3     1  UNL1        0.2657
     24 F          -7.1728    2.1415    0.1047 F       1  UNL1       -0.2039
     25 F          -5.0467    2.8553    0.5150 F       1  UNL1       -0.2039
     26 C          -5.5139    0.5397    0.7706 C.3     1  UNL1        0.0781
     27 H          -2.4522   -2.6468   -0.3588 H       1  UNL1        0.0557
     28 H          -1.1602   -2.3462    1.5194 H       1  UNL1        0.0300
     29 H          -0.9970   -0.5868    1.3351 H       1  UNL1        0.0300
     30 H           0.3085   -2.8493   -0.1135 H       1  UNL1        0.0476
     31 H           0.1760    0.7555    0.3688 H       1  UNL1        0.0442
     32 H           0.9530    0.7638   -1.2584 H       1  UNL1        0.0442
     33 H           2.2002    1.1770    1.4892 H       1  UNL1        0.0477
     34 H           2.3442    2.1335   -0.0345 H       1  UNL1        0.0477
     35 H           5.8390    2.4454    3.2406 H       1  UNL1        0.0831
     36 H           7.8982    1.2925    2.6266 H       1  UNL1        0.0648
     37 H           7.8437   -0.3153    0.7269 H       1  UNL1        0.0831
     38 H           2.8907    0.0702   -1.9722 H       1  UNL1        0.0477
     39 H           4.2781   -0.9303   -1.4515 H       1  UNL1        0.0477
     40 H           2.0057   -2.1753   -1.6480 H       1  UNL1        0.0442
     41 H           2.7951   -2.2782   -0.0614 H       1  UNL1        0.0442
     42 H          -0.0541   -1.1170   -2.3111 H       1  UNL1        0.0440
     43 H          -0.9888   -2.6518   -1.9607 H       1  UNL1        0.0440
     44 H          -1.5452    0.0631   -1.1524 H       1  UNL1        0.1227
     45 H          -3.8365    0.2570   -1.9750 H       1  UNL1        0.0466
     46 H          -3.3150    1.6278   -0.9316 H       1  UNL1        0.0466
     47 H          -6.1227    0.7887   -1.7907 H       1  UNL1        0.0338
     48 H          -5.2604    2.4175   -1.9593 H       1  UNL1        0.0338
     49 H          -5.3539    0.6913    1.8571 H       1  UNL1        0.0523
     50 H          -6.3210   -0.2002    0.5789 H       1  UNL1        0.0523
@<TRIPOS>BOND
     1     1     2    2
     2     2     3    1
     3     3     4    1
     4     4     5    1
     5     5     6    1
     6     6     7    1
     7     7     8    1
     8     8     9    1
     9     9    10    1
    10    10    11   ar
    11    11    12   ar
    12    12    13   ar
    13    13    14   ar
    14    14    15   ar
    15     9    16    1
    16    16    17    1
    17     5    18    1
    18    18    19    1
    19     2    20   am
    20    20    21    1
    21    21    22    1
    22    22    23    1
    23    23    24    1
    24    23    25    1
    25    23    26    1
    26    19     3    1
    27    26    20    1
    28    17     6    1
    29    15    10   ar
    30     3    27    1
    31     4    28    1
    32     4    29    1
    33     5    30    1
    34     7    31    1
    35     7    32    1
    36     8    33    1
    37     8    34    1
    38    12    35    1
    39    13    36    1
    40    14    37    1
    41    16    38    1
    42    16    39    1
    43    17    40    1
    44    17    41    1
    45    18    42    1
    46    18    43    1
    47    19    44    1
    48    21    45    1
    49    21    46    1
    50    22    47    1
    51    22    48    1
    52    26    49    1
    53    26    50    1
