@<TRIPOS>MOLECULE
*****
 50 52 0 0 0
SMALL
GASTEIGER

@<TRIPOS>ATOM
      1 O          -5.2369    1.9296    1.6279 O.2     1  UNL1       -0.2719
      2 C          -4.8169    1.6440    0.4829 C.2     1  UNL1        0.2544
      3 N          -5.3751    2.2787   -0.6581 N.am    1  UNL1       -0.1961
      4 O          -6.3681    3.2058   -0.5649 O.3     1  UNL1       -0.2951
      5 C          -3.7337    0.6392    0.3235 C.3     1  UNL1        0.1120
      6 C          -4.2395   -0.6782    0.9196 C.3     1  UNL1       -0.0010
      7 C          -3.2385   -1.7807    0.8027 C.3     1  UNL1        0.0584
      8 O          -3.8428   -3.0451    0.8667 O.3     1  UNL1       -0.3917
      9 C          -2.4779   -1.7144   -0.4844 C.3     1  UNL1       -0.0123
     10 C          -3.2105   -0.8812   -1.4890 C.3     1  UNL1        0.0237
     11 N          -3.3204    0.4537   -1.0167 N.3     1  UNL1       -0.1645
     12 S          -2.2306    1.5689   -1.6656 S.O2    1  UNL1        0.0615
     13 O          -2.4640    2.9705   -1.2542 O.2     1  UNL1       -0.1528
     14 O          -2.3067    1.5198   -3.1863 O.2     1  UNL1       -0.1528
     15 C          -0.5982    1.0677   -1.2571 C.ar    1  UNL1        0.1057
     16 C           0.1488    0.2431   -2.1003 C.ar    1  UNL1       -0.0319
     17 C           1.4181   -0.1351   -1.7627 C.ar    1  UNL1       -0.0181
     18 C           1.9596    0.3059   -0.5765 C.ar    1  UNL1        0.1211
     19 O           3.2465   -0.0850   -0.2473 O.3     1  UNL1       -0.4874
     20 C           3.8269    0.3498    0.9586 C.3     1  UNL1        0.1147
     21 C           5.2035   -0.2374    1.0182 C.ar    1  UNL1       -0.0077
     22 C           6.2695    0.4585    0.4877 C.ar    1  UNL1       -0.0552
     23 C           7.5517   -0.0477    0.5228 C.ar    1  UNL1       -0.0587
     24 C           7.7518   -1.2809    1.1065 C.ar    1  UNL1       -0.0264
     25 C           6.6976   -1.9978    1.6454 C.ar    1  UNL1        0.1238
     26 F           6.8907   -3.2214    2.2256 F       1  UNL1       -0.2055
     27 C           5.4319   -1.4635    1.5935 C.ar    1  UNL1       -0.0201
     28 C           1.2419    1.1148    0.2622 C.ar    1  UNL1       -0.0181
     29 C          -0.0387    1.4915   -0.0866 C.ar    1  UNL1       -0.0319
     30 H          -5.0078    2.0188   -1.5978 H       1  UNL1        0.1822
     31 H          -7.1233    2.7645   -0.0882 H       1  UNL1        0.2414
     32 H          -2.8577    0.9309    0.9392 H       1  UNL1        0.0577
     33 H          -4.4603   -0.5201    1.9965 H       1  UNL1        0.0310
     34 H          -5.1489   -0.9683    0.3861 H       1  UNL1        0.0310
     35 H          -2.5424   -1.7401    1.6714 H       1  UNL1        0.0594
     36 H          -4.1064   -3.3576   -0.0216 H       1  UNL1        0.2098
     37 H          -2.3460   -2.7262   -0.9333 H       1  UNL1        0.0303
     38 H          -1.4658   -1.2839   -0.2559 H       1  UNL1        0.0303
     39 H          -4.1953   -1.3649   -1.6707 H       1  UNL1        0.0445
     40 H          -2.6178   -0.8563   -2.4434 H       1  UNL1        0.0445
     41 H          -0.3314   -0.0731   -3.0226 H       1  UNL1        0.0638
     42 H           1.9857   -0.7780   -2.4318 H       1  UNL1        0.0655
     43 H           3.9152    1.4601    0.9861 H       1  UNL1        0.0748
     44 H           3.2528   -0.0068    1.8296 H       1  UNL1        0.0748
     45 H           6.1165    1.4406    0.0218 H       1  UNL1        0.0621
     46 H           8.3779    0.5164    0.0993 H       1  UNL1        0.0619
     47 H           8.7544   -1.7111    1.1511 H       1  UNL1        0.0646
     48 H           4.5901   -2.0099    2.0108 H       1  UNL1        0.0650
     49 H           1.6782    1.4583    1.1976 H       1  UNL1        0.0655
     50 H          -0.6076    2.1337    0.5800 H       1  UNL1        0.0638
@<TRIPOS>BOND
     1     1     2    2
     2     2     3   am
     3     3     4    1
     4     2     5    1
     5     5     6    1
     6     6     7    1
     7     7     8    1
     8     7     9    1
     9     9    10    1
    10    10    11    1
    11    11    12    1
    12    12    13    2
    13    12    14    2
    14    12    15    1
    15    15    16   ar
    16    16    17   ar
    17    17    18   ar
    18    18    19    1
    19    19    20    1
    20    20    21    1
    21    21    22   ar
    22    22    23   ar
    23    23    24   ar
    24    24    25   ar
    25    25    26    1
    26    25    27   ar
    27    18    28   ar
    28    28    29   ar
    29    11     5    1
    30    29    15   ar
    31    27    21   ar
    32     3    30    1
    33     4    31    1
    34     5    32    1
    35     6    33    1
    36     6    34    1
    37     7    35    1
    38     8    36    1
    39     9    37    1
    40     9    38    1
    41    10    39    1
    42    10    40    1
    43    16    41    1
    44    17    42    1
    45    20    43    1
    46    20    44    1
    47    22    45    1
    48    23    46    1
    49    24    47    1
    50    27    48    1
    51    28    49    1
    52    29    50    1
