@<TRIPOS>MOLECULE
*****
 61 68 0 0 0
SMALL
GASTEIGER

@<TRIPOS>ATOM
      1 C          -5.1339   -0.9566    0.6988 C.3     1  UNL1       -0.0155
      2 N          -3.9308   -1.7010    0.9340 N.3     1  UNL1       -0.3136
      3 C          -2.9636   -1.3431   -0.0636 C.3     1  UNL1        0.0423
      4 C          -1.6524   -2.1159    0.1390 C.3     1  UNL1        0.0107
      5 C          -0.8348   -1.8340   -1.1166 C.3     1  UNL1        0.1402
      6 O          -1.2261   -0.7365   -1.7870 O.3     1  UNL1       -0.3282
      7 C          -1.5893    0.3957   -1.0653 C.3     1  UNL1        0.1741
      8 C          -2.2820    1.2703   -2.1253 C.3     1  UNL1       -0.0136
      9 C          -2.5568    0.1305    0.0527 C.3     1  UNL1        0.1214
     10 O          -1.8446    0.2261    1.2500 O.3     1  UNL1       -0.3735
     11 C          -2.4479    1.0759    2.1556 C.3     1  UNL1        0.0371
     12 N          -0.3980    1.1020   -0.5901 N.ar    1  UNL1       -0.3070
     13 C          -0.3002    2.4312   -0.3363 C.ar    1  UNL1        0.0527
     14 C          -1.2161    3.4510   -0.3753 C.ar    1  UNL1       -0.0375
     15 C          -0.8348    4.7535   -0.0446 C.ar    1  UNL1       -0.0598
     16 C           0.4405    5.0960    0.3319 C.ar    1  UNL1       -0.0611
     17 C           1.3589    4.0742    0.3727 C.ar    1  UNL1       -0.0520
     18 C           0.9798    2.7747    0.0428 C.ar    1  UNL1        0.0081
     19 C           1.7059    1.6011    0.0271 C.ar    1  UNL1        0.0151
     20 C           3.0168    1.2597    0.3060 C.ar    1  UNL1       -0.0078
     21 C           3.4739   -0.0435    0.2104 C.ar    1  UNL1        0.0518
     22 C           2.5840   -1.0373   -0.1772 C.ar    1  UNL1        0.0221
     23 C           2.7026   -2.3846   -0.3432 C.ar    1  UNL1        0.0085
     24 C           3.7079   -3.3046   -0.2259 C.ar    1  UNL1       -0.0520
     25 C           3.4194   -4.6354   -0.4902 C.ar    1  UNL1       -0.0611
     26 C           2.1876   -5.0903   -0.8626 C.ar    1  UNL1       -0.0598
     27 C           1.1607   -4.1618   -0.9841 C.ar    1  UNL1       -0.0375
     28 C           1.4336   -2.8341   -0.7242 C.ar    1  UNL1        0.0524
     29 N           0.6016   -1.8021   -0.7823 N.ar    1  UNL1       -0.3115
     30 C           1.2656   -0.6830   -0.4569 C.ar    1  UNL1        0.0774
     31 C           0.8444    0.6085   -0.3573 C.ar    1  UNL1        0.0772
     32 C           4.8799   -0.0629    0.5638 C.2     1  UNL1        0.2453
     33 O           5.7025   -1.0191    0.6170 O.2     1  UNL1       -0.2702
     34 N           5.2376    1.2956    0.8752 N.am    1  UNL1       -0.3072
     35 C           4.1158    2.1754    0.7357 C.3     1  UNL1        0.0385
     36 H          -5.1166   -0.4062   -0.2777 H       1  UNL1        0.0388
     37 H          -6.0034   -1.6556    0.6207 H       1  UNL1        0.0388
     38 H          -5.3512   -0.2998    1.5554 H       1  UNL1        0.0388
     39 H          -4.0750   -2.7275    0.8773 H       1  UNL1        0.1220
     40 H          -3.3261   -1.5856   -1.0780 H       1  UNL1        0.0489
     41 H          -1.1388   -1.6126    0.9867 H       1  UNL1        0.0325
     42 H          -1.8332   -3.1839    0.2970 H       1  UNL1        0.0325
     43 H          -0.9587   -2.7234   -1.7672 H       1  UNL1        0.0839
     44 H          -2.5005    0.6480   -3.0638 H       1  UNL1        0.0277
     45 H          -1.6182    2.0566   -2.5215 H       1  UNL1        0.0277
     46 H          -3.2894    1.5851   -1.8217 H       1  UNL1        0.0277
     47 H          -3.4583    0.7384    0.0375 H       1  UNL1        0.0660
     48 H          -2.5639    2.1089    1.8117 H       1  UNL1        0.0524
     49 H          -1.7473    1.1282    3.0396 H       1  UNL1        0.0524
     50 H          -3.4037    0.6781    2.5593 H       1  UNL1        0.0524
     51 H          -2.2297    3.2300   -0.6421 H       1  UNL1        0.0638
     52 H          -1.5731    5.5480   -0.0820 H       1  UNL1        0.0618
     53 H           0.7287    6.1095    0.5868 H       1  UNL1        0.0618
     54 H           2.3832    4.2669    0.6606 H       1  UNL1        0.0624
     55 H           4.6810   -3.0436    0.0540 H       1  UNL1        0.0624
     56 H           4.2161   -5.3640   -0.3971 H       1  UNL1        0.0618
     57 H           1.9599   -6.1251   -1.0689 H       1  UNL1        0.0618
     58 H           0.1741   -4.4895   -1.2771 H       1  UNL1        0.0638
     59 H           6.2146    1.5666    1.1655 H       1  UNL1        0.1493
     60 H           4.3432    2.9073   -0.0702 H       1  UNL1        0.0512
     61 H           3.8789    2.6697    1.6919 H       1  UNL1        0.0512
@<TRIPOS>BOND
     1     1     2    1
     2     2     3    1
     3     3     4    1
     4     4     5    1
     5     5     6    1
     6     6     7    1
     7     7     8    1
     8     7     9    1
     9     9    10    1
    10    10    11    1
    11     7    12    1
    12    12    13   ar
    13    13    14   ar
    14    14    15   ar
    15    15    16   ar
    16    16    17   ar
    17    17    18   ar
    18    18    19   ar
    19    19    20   ar
    20    20    21   ar
    21    21    22   ar
    22    22    23   ar
    23    23    24   ar
    24    24    25   ar
    25    25    26   ar
    26    26    27   ar
    27    27    28   ar
    28    28    29   ar
    29    29    30   ar
    30    30    31   ar
    31    21    32    1
    32    32    33    2
    33    32    34   am
    34    34    35    1
    35     9     3    1
    36    31    12   ar
    37    29     5    1
    38    18    13   ar
    39    31    19   ar
    40    35    20    1
    41    30    22   ar
    42    28    23   ar
    43     1    36    1
    44     1    37    1
    45     1    38    1
    46     2    39    1
    47     3    40    1
    48     4    41    1
    49     4    42    1
    50     5    43    1
    51     8    44    1
    52     8    45    1
    53     8    46    1
    54     9    47    1
    55    11    48    1
    56    11    49    1
    57    11    50    1
    58    14    51    1
    59    15    52    1
    60    16    53    1
    61    17    54    1
    62    24    55    1
    63    25    56    1
    64    26    57    1
    65    27    58    1
    66    34    59    1
    67    35    60    1
    68    35    61    1
