
     RDKit          3D

 61 68  0  0  0  0  0  0  0  0999 V2000
   -5.1339   -0.9566    0.6988 C   0  0  0  0  0  0  0  0  0  0  0  0
   -3.9308   -1.7010    0.9340 N   0  0  0  0  0  0  0  0  0  0  0  0
   -2.9636   -1.3431   -0.0636 C   0  0  2  0  0  0  0  0  0  0  0  0
   -1.6524   -2.1159    0.1390 C   0  0  0  0  0  0  0  0  0  0  0  0
   -0.8348   -1.8340   -1.1166 C   0  0  1  0  0  0  0  0  0  0  0  0
   -1.2261   -0.7365   -1.7870 O   0  0  0  0  0  0  0  0  0  0  0  0
   -1.5893    0.3957   -1.0653 C   0  0  1  0  0  0  0  0  0  0  0  0
   -2.2820    1.2703   -2.1253 C   0  0  0  0  0  0  0  0  0  0  0  0
   -2.5568    0.1305    0.0527 C   0  0  2  0  0  0  0  0  0  0  0  0
   -1.8446    0.2261    1.2500 O   0  0  0  0  0  0  0  0  0  0  0  0
   -2.4479    1.0759    2.1556 C   0  0  0  0  0  0  0  0  0  0  0  0
   -0.3980    1.1020   -0.5901 N   0  0  0  0  0  0  0  0  0  0  0  0
   -0.3002    2.4312   -0.3363 C   0  0  0  0  0  0  0  0  0  0  0  0
   -1.2161    3.4510   -0.3753 C   0  0  0  0  0  0  0  0  0  0  0  0
   -0.8348    4.7535   -0.0446 C   0  0  0  0  0  0  0  0  0  0  0  0
    0.4405    5.0960    0.3319 C   0  0  0  0  0  0  0  0  0  0  0  0
    1.3589    4.0742    0.3727 C   0  0  0  0  0  0  0  0  0  0  0  0
    0.9798    2.7747    0.0428 C   0  0  0  0  0  0  0  0  0  0  0  0
    1.7059    1.6011    0.0271 C   0  0  0  0  0  0  0  0  0  0  0  0
    3.0168    1.2597    0.3060 C   0  0  0  0  0  0  0  0  0  0  0  0
    3.4739   -0.0435    0.2104 C   0  0  0  0  0  0  0  0  0  0  0  0
    2.5840   -1.0373   -0.1772 C   0  0  0  0  0  0  0  0  0  0  0  0
    2.7026   -2.3846   -0.3432 C   0  0  0  0  0  0  0  0  0  0  0  0
    3.7079   -3.3046   -0.2259 C   0  0  0  0  0  0  0  0  0  0  0  0
    3.4194   -4.6354   -0.4902 C   0  0  0  0  0  0  0  0  0  0  0  0
    2.1876   -5.0903   -0.8626 C   0  0  0  0  0  0  0  0  0  0  0  0
    1.1607   -4.1618   -0.9841 C   0  0  0  0  0  0  0  0  0  0  0  0
    1.4336   -2.8341   -0.7242 C   0  0  0  0  0  0  0  0  0  0  0  0
    0.6016   -1.8021   -0.7823 N   0  0  0  0  0  0  0  0  0  0  0  0
    1.2656   -0.6830   -0.4569 C   0  0  0  0  0  0  0  0  0  0  0  0
    0.8444    0.6085   -0.3573 C   0  0  0  0  0  0  0  0  0  0  0  0
    4.8799   -0.0629    0.5638 C   0  0  0  0  0  0  0  0  0  0  0  0
    5.7025   -1.0191    0.6170 O   0  0  0  0  0  0  0  0  0  0  0  0
    5.2376    1.2956    0.8752 N   0  0  0  0  0  0  0  0  0  0  0  0
    4.1158    2.1754    0.7357 C   0  0  0  0  0  0  0  0  0  0  0  0
   -5.1166   -0.4062   -0.2777 H   0  0  0  0  0  0  0  0  0  0  0  0
   -6.0034   -1.6556    0.6207 H   0  0  0  0  0  0  0  0  0  0  0  0
   -5.3512   -0.2998    1.5554 H   0  0  0  0  0  0  0  0  0  0  0  0
   -4.0750   -2.7275    0.8773 H   0  0  0  0  0  0  0  0  0  0  0  0
   -3.3261   -1.5856   -1.0780 H   0  0  0  0  0  0  0  0  0  0  0  0
   -1.1388   -1.6126    0.9867 H   0  0  0  0  0  0  0  0  0  0  0  0
   -1.8332   -3.1839    0.2970 H   0  0  0  0  0  0  0  0  0  0  0  0
   -0.9587   -2.7234   -1.7672 H   0  0  0  0  0  0  0  0  0  0  0  0
   -2.5005    0.6480   -3.0638 H   0  0  0  0  0  0  0  0  0  0  0  0
   -1.6182    2.0566   -2.5215 H   0  0  0  0  0  0  0  0  0  0  0  0
   -3.2894    1.5851   -1.8217 H   0  0  0  0  0  0  0  0  0  0  0  0
   -3.4583    0.7384    0.0375 H   0  0  0  0  0  0  0  0  0  0  0  0
   -2.5639    2.1089    1.8117 H   0  0  0  0  0  0  0  0  0  0  0  0
   -1.7473    1.1282    3.0396 H   0  0  0  0  0  0  0  0  0  0  0  0
   -3.4037    0.6781    2.5593 H   0  0  0  0  0  0  0  0  0  0  0  0
   -2.2297    3.2300   -0.6421 H   0  0  0  0  0  0  0  0  0  0  0  0
   -1.5731    5.5480   -0.0820 H   0  0  0  0  0  0  0  0  0  0  0  0
    0.7287    6.1095    0.5868 H   0  0  0  0  0  0  0  0  0  0  0  0
    2.3832    4.2669    0.6606 H   0  0  0  0  0  0  0  0  0  0  0  0
    4.6810   -3.0436    0.0540 H   0  0  0  0  0  0  0  0  0  0  0  0
    4.2161   -5.3640   -0.3971 H   0  0  0  0  0  0  0  0  0  0  0  0
    1.9599   -6.1251   -1.0689 H   0  0  0  0  0  0  0  0  0  0  0  0
    0.1741   -4.4895   -1.2771 H   0  0  0  0  0  0  0  0  0  0  0  0
    6.2146    1.5666    1.1655 H   0  0  0  0  0  0  0  0  0  0  0  0
    4.3432    2.9073   -0.0702 H   0  0  0  0  0  0  0  0  0  0  0  0
    3.8789    2.6697    1.6919 H   0  0  0  0  0  0  0  0  0  0  0  0
  1  2  1  0
  2  3  1  0
  3  4  1  0
  4  5  1  0
  5  6  1  0
  6  7  1  0
  7  8  1  6
  7  9  1  0
  9 10  1  0
 10 11  1  0
  7 12  1  0
 12 13  1  0
 13 14  2  0
 14 15  1  0
 15 16  2  0
 16 17  1  0
 17 18  2  0
 18 19  1  0
 19 20  2  0
 20 21  1  0
 21 22  2  0
 22 23  1  0
 23 24  2  0
 24 25  1  0
 25 26  2  0
 26 27  1  0
 27 28  2  0
 28 29  1  0
 29 30  1  0
 30 31  2  0
 21 32  1  0
 32 33  2  0
 32 34  1  0
 34 35  1  0
  9  3  1  0
 31 12  1  0
 29  5  1  0
 18 13  1  0
 31 19  1  0
 35 20  1  0
 30 22  1  0
 28 23  1  0
  1 36  1  0
  1 37  1  0
  1 38  1  0
  2 39  1  0
  3 40  1  6
  4 41  1  0
  4 42  1  0
  5 43  1  6
  8 44  1  0
  8 45  1  0
  8 46  1  0
  9 47  1  1
 11 48  1  0
 11 49  1  0
 11 50  1  0
 14 51  1  0
 15 52  1  0
 16 53  1  0
 17 54  1  0
 24 55  1  0
 25 56  1  0
 26 57  1  0
 27 58  1  0
 34 59  1  0
 35 60  1  0
 35 61  1  0
M  END
$$$$
