@<TRIPOS>MOLECULE
*****
 47 49 0 0 0
SMALL
GASTEIGER

@<TRIPOS>ATOM
      1 O           7.4498    0.3586   -0.6943 O.2     1  UNL1       -0.2687
      2 C           6.8336   -0.5088   -0.0286 C.2     1  UNL1        0.2593
      3 C           5.4051   -0.4208    0.2371 C.2     1  UNL1        0.0027
      4 C           4.6950    0.5878   -0.2183 C.2     1  UNL1       -0.0496
      5 C           3.2636    0.7706   -0.0095 C.ar    1  UNL1       -0.0248
      6 C           2.4550   -0.0874    0.6928 C.ar    1  UNL1       -0.0540
      7 C           1.0966    0.1040    0.8803 C.ar    1  UNL1       -0.0540
      8 C           0.5327    1.2375    0.3176 C.ar    1  UNL1       -0.0247
      9 C          -0.8738    1.5158    0.4799 C.2     1  UNL1       -0.0496
     10 C          -1.8054    0.6593    0.2009 C.2     1  UNL1       -0.0259
     11 C          -3.2504    1.0770    0.4365 C.3     1  UNL1        0.0221
     12 N          -3.9290    0.9856   -0.8202 N.3     1  UNL1       -0.3093
     13 C          -5.3135    1.3473   -0.7825 C.3     1  UNL1        0.0080
     14 C          -6.2660    0.5755    0.0882 C.3     1  UNL1       -0.0361
     15 C          -5.8608    2.0009    0.4721 C.3     1  UNL1       -0.0361
     16 C          -1.6018   -0.5977   -0.4824 C.ar    1  UNL1       -0.0204
     17 C          -0.5456   -0.9440   -1.2708 C.ar    1  UNL1       -0.0516
     18 C          -0.4718   -2.2495   -1.7709 C.ar    1  UNL1       -0.0259
     19 C          -1.4100   -3.1962   -1.5095 C.ar    1  UNL1        0.1234
     20 F          -1.3595   -4.4622   -1.9810 F       1  UNL1       -0.2055
     21 C          -2.4660   -2.8254   -0.7163 C.ar    1  UNL1       -0.0259
     22 C          -2.5875   -1.5718   -0.2026 C.ar    1  UNL1       -0.0516
     23 C           1.3274    2.1071   -0.3888 C.ar    1  UNL1       -0.0540
     24 C           2.6755    1.9101   -0.5706 C.ar    1  UNL1       -0.0540
     25 N           7.5847   -1.6086    0.4729 N.am    1  UNL1       -0.1940
     26 O           8.9173   -1.7523    0.2625 O.3     1  UNL1       -0.2949
     27 H           4.9122   -1.1821    0.8108 H       1  UNL1        0.0670
     28 H           5.2711    1.3266   -0.7973 H       1  UNL1        0.0625
     29 H           2.9429   -0.9751    1.1234 H       1  UNL1        0.0624
     30 H           0.5201   -0.6170    1.4476 H       1  UNL1        0.0624
     31 H          -1.1644    2.5417    0.8733 H       1  UNL1        0.0627
     32 H          -3.7460    0.4623    1.1882 H       1  UNL1        0.0474
     33 H          -3.2413    2.1446    0.7360 H       1  UNL1        0.0474
     34 H          -3.4139    1.4240   -1.6022 H       1  UNL1        0.1225
     35 H          -5.7610    1.7568   -1.7315 H       1  UNL1        0.0460
     36 H          -5.8970   -0.2648    0.7127 H       1  UNL1        0.0281
     37 H          -7.3221    0.4518   -0.2930 H       1  UNL1        0.0281
     38 H          -5.1871    2.1293    1.3297 H       1  UNL1        0.0281
     39 H          -6.6728    2.7607    0.3674 H       1  UNL1        0.0281
     40 H           0.1870   -0.2304   -1.5542 H       1  UNL1        0.0624
     41 H           0.3821   -2.4975   -2.3945 H       1  UNL1        0.0646
     42 H          -3.2398   -3.5612   -0.4863 H       1  UNL1        0.0646
     43 H          -3.4427   -1.3288    0.4199 H       1  UNL1        0.0624
     44 H           0.8741    2.9718   -0.8126 H       1  UNL1        0.0624
     45 H           3.2897    2.6229   -1.1412 H       1  UNL1        0.0624
     46 H           7.0660   -2.3176    1.0199 H       1  UNL1        0.1825
     47 H           9.1477   -2.6303   -0.1307 H       1  UNL1        0.2414
@<TRIPOS>BOND
     1     1     2    2
     2     2     3    1
     3     3     4    2
     4     4     5    1
     5     5     6   ar
     6     6     7   ar
     7     7     8   ar
     8     8     9    1
     9     9    10    2
    10    10    11    1
    11    11    12    1
    12    12    13    1
    13    13    14    1
    14    14    15    1
    15    10    16    1
    16    16    17   ar
    17    17    18   ar
    18    18    19   ar
    19    19    20    1
    20    19    21   ar
    21    21    22   ar
    22     8    23   ar
    23    23    24   ar
    24     2    25   am
    25    25    26    1
    26    24     5   ar
    27    15    13    1
    28    22    16   ar
    29     3    27    1
    30     4    28    1
    31     6    29    1
    32     7    30    1
    33     9    31    1
    34    11    32    1
    35    11    33    1
    36    12    34    1
    37    13    35    1
    38    14    36    1
    39    14    37    1
    40    15    38    1
    41    15    39    1
    42    17    40    1
    43    18    41    1
    44    21    42    1
    45    22    43    1
    46    23    44    1
    47    24    45    1
    48    25    46    1
    49    26    47    1
