@<TRIPOS>MOLECULE
*****
 44 47 0 0 0
SMALL
GASTEIGER

@<TRIPOS>ATOM
      1 C          -5.0338   -2.7437    0.2930 C.3     1  UNL1       -0.0124
      2 N          -4.1295   -1.6809    0.5918 N.3     1  UNL1       -0.3014
      3 C          -4.7740   -0.3844    0.6592 C.3     1  UNL1        0.0174
      4 C          -3.7665    0.7132    0.6075 C.2     1  UNL1       -0.0662
      5 C          -2.4826    0.5646    0.4056 C.2     1  UNL1       -0.0397
      6 C          -1.6053    1.7551    0.3836 C.ar    1  UNL1        0.0031
      7 C          -2.0417    3.0823    0.3612 C.ar    1  UNL1        0.0101
      8 N          -0.9887    3.8864    0.3842 N.ar    1  UNL1       -0.3601
      9 C           0.1558    3.1839    0.4223 C.ar    1  UNL1        0.0473
     10 C           1.4812    3.5521    0.4679 C.ar    1  UNL1       -0.0337
     11 C           2.4680    2.6028    0.5174 C.ar    1  UNL1       -0.0089
     12 C           2.0873    1.2850    0.5202 C.ar    1  UNL1        0.1772
     13 N           3.0903    0.2762    0.5721 N.2     1  UNL1       -0.0385
     14 C           3.4943   -0.2912   -0.5387 C.2     1  UNL1        0.3522
     15 N           2.9614    0.0681   -1.8076 N.pl3   1  UNL1       -0.2436
     16 C           4.5194   -1.3260   -0.5087 C.ar    1  UNL1        0.2174
     17 C           5.5491   -1.4163    0.4335 C.ar    1  UNL1       -0.0084
     18 C           6.2918   -2.5245    0.1107 C.ar    1  UNL1       -0.0230
     19 C           5.7099   -3.0775   -1.0023 C.ar    1  UNL1        0.0929
     20 O           4.6802   -2.3387   -1.3214 O.2     1  UNL1       -0.4554
     21 C           0.7581    0.8990    0.4743 C.ar    1  UNL1       -0.0011
     22 C          -0.2311    1.8370    0.4229 C.ar    1  UNL1        0.0111
     23 C          -1.9056   -0.7464    0.1427 C.3     1  UNL1       -0.0145
     24 C          -3.0369   -1.6776   -0.3227 C.3     1  UNL1        0.0029
     25 H          -4.5808   -3.7159    0.5744 H       1  UNL1        0.0391
     26 H          -5.2378   -2.8075   -0.8059 H       1  UNL1        0.0391
     27 H          -6.0180   -2.6470    0.7937 H       1  UNL1        0.0391
     28 H          -5.3990   -0.2831   -0.2519 H       1  UNL1        0.0470
     29 H          -5.3818   -0.3393    1.5860 H       1  UNL1        0.0470
     30 H          -4.1066    1.7515    0.7539 H       1  UNL1        0.0588
     31 H          -3.0943    3.3560    0.3263 H       1  UNL1        0.0813
     32 H          -0.9880    4.9365    0.3755 H       1  UNL1        0.1654
     33 H           1.7679    4.6003    0.4654 H       1  UNL1        0.0640
     34 H           3.5356    2.8595    0.5542 H       1  UNL1        0.0661
     35 H           2.7854    1.0896   -1.9686 H       1  UNL1        0.2885
     36 H           2.7553   -0.6564   -2.5455 H       1  UNL1        0.2885
     37 H           5.6769   -0.7092    1.2408 H       1  UNL1        0.0658
     38 H           7.1586   -2.8971    0.6189 H       1  UNL1        0.0649
     39 H           6.0505   -3.9827   -1.5320 H       1  UNL1        0.1029
     40 H           0.5248   -0.1639    0.5009 H       1  UNL1        0.0668
     41 H          -1.1896   -0.7214   -0.7349 H       1  UNL1        0.0326
     42 H          -1.4874   -1.2418    1.0312 H       1  UNL1        0.0326
     43 H          -3.3676   -1.2504   -1.3109 H       1  UNL1        0.0430
     44 H          -2.6552   -2.6765   -0.5256 H       1  UNL1        0.0430
@<TRIPOS>BOND
     1     1     2    1
     2     2     3    1
     3     3     4    1
     4     4     5    2
     5     5     6    1
     6     6     7   ar
     7     7     8   ar
     8     8     9   ar
     9     9    10   ar
    10    10    11   ar
    11    11    12   ar
    12    12    13    1
    13    13    14    2
    14    14    15    1
    15    14    16    1
    16    16    17   ar
    17    17    18   ar
    18    18    19   ar
    19    19    20   ar
    20    12    21   ar
    21    21    22   ar
    22     5    23    1
    23    23    24    1
    24    24     2    1
    25    22     6   ar
    26    22     9   ar
    27    20    16   ar
    28     1    25    1
    29     1    26    1
    30     1    27    1
    31     3    28    1
    32     3    29    1
    33     4    30    1
    34     7    31    1
    35     8    32    1
    36    10    33    1
    37    11    34    1
    38    15    35    1
    39    15    36    1
    40    17    37    1
    41    18    38    1
    42    19    39    1
    43    21    40    1
    44    23    41    1
    45    23    42    1
    46    24    43    1
    47    24    44    1
