
     RDKit          3D

 44 47  0  0  0  0  0  0  0  0999 V2000
   -5.0338   -2.7437    0.2930 C   0  0  0  0  0  0  0  0  0  0  0  0
   -4.1295   -1.6809    0.5918 N   0  0  0  0  0  0  0  0  0  0  0  0
   -4.7740   -0.3844    0.6592 C   0  0  0  0  0  0  0  0  0  0  0  0
   -3.7665    0.7132    0.6075 C   0  0  0  0  0  0  0  0  0  0  0  0
   -2.4826    0.5646    0.4056 C   0  0  0  0  0  0  0  0  0  0  0  0
   -1.6053    1.7551    0.3836 C   0  0  0  0  0  0  0  0  0  0  0  0
   -2.0417    3.0823    0.3612 C   0  0  0  0  0  0  0  0  0  0  0  0
   -0.9887    3.8864    0.3842 N   0  0  0  0  0  0  0  0  0  0  0  0
    0.1558    3.1839    0.4223 C   0  0  0  0  0  0  0  0  0  0  0  0
    1.4812    3.5521    0.4679 C   0  0  0  0  0  0  0  0  0  0  0  0
    2.4680    2.6028    0.5174 C   0  0  0  0  0  0  0  0  0  0  0  0
    2.0873    1.2850    0.5202 C   0  0  0  0  0  0  0  0  0  0  0  0
    3.0903    0.2762    0.5721 N   0  0  0  0  0  0  0  0  0  0  0  0
    3.4943   -0.2912   -0.5387 C   0  0  0  0  0  0  0  0  0  0  0  0
    2.9614    0.0681   -1.8076 N   0  0  0  0  0  0  0  0  0  0  0  0
    4.5194   -1.3260   -0.5087 C   0  0  0  0  0  0  0  0  0  0  0  0
    5.5491   -1.4163    0.4335 C   0  0  0  0  0  0  0  0  0  0  0  0
    6.2918   -2.5245    0.1107 C   0  0  0  0  0  0  0  0  0  0  0  0
    5.7099   -3.0775   -1.0023 C   0  0  0  0  0  0  0  0  0  0  0  0
    4.6802   -2.3387   -1.3214 O   0  0  0  0  0  0  0  0  0  0  0  0
    0.7581    0.8990    0.4743 C   0  0  0  0  0  0  0  0  0  0  0  0
   -0.2311    1.8370    0.4229 C   0  0  0  0  0  0  0  0  0  0  0  0
   -1.9056   -0.7464    0.1427 C   0  0  0  0  0  0  0  0  0  0  0  0
   -3.0369   -1.6776   -0.3227 C   0  0  0  0  0  0  0  0  0  0  0  0
   -4.5808   -3.7159    0.5744 H   0  0  0  0  0  0  0  0  0  0  0  0
   -5.2378   -2.8075   -0.8059 H   0  0  0  0  0  0  0  0  0  0  0  0
   -6.0180   -2.6470    0.7937 H   0  0  0  0  0  0  0  0  0  0  0  0
   -5.3990   -0.2831   -0.2519 H   0  0  0  0  0  0  0  0  0  0  0  0
   -5.3818   -0.3393    1.5860 H   0  0  0  0  0  0  0  0  0  0  0  0
   -4.1066    1.7515    0.7539 H   0  0  0  0  0  0  0  0  0  0  0  0
   -3.0943    3.3560    0.3263 H   0  0  0  0  0  0  0  0  0  0  0  0
   -0.9880    4.9365    0.3755 H   0  0  0  0  0  0  0  0  0  0  0  0
    1.7679    4.6003    0.4654 H   0  0  0  0  0  0  0  0  0  0  0  0
    3.5356    2.8595    0.5542 H   0  0  0  0  0  0  0  0  0  0  0  0
    2.7854    1.0896   -1.9686 H   0  0  0  0  0  0  0  0  0  0  0  0
    2.7553   -0.6564   -2.5455 H   0  0  0  0  0  0  0  0  0  0  0  0
    5.6769   -0.7092    1.2408 H   0  0  0  0  0  0  0  0  0  0  0  0
    7.1586   -2.8971    0.6189 H   0  0  0  0  0  0  0  0  0  0  0  0
    6.0505   -3.9827   -1.5320 H   0  0  0  0  0  0  0  0  0  0  0  0
    0.5248   -0.1639    0.5009 H   0  0  0  0  0  0  0  0  0  0  0  0
   -1.1896   -0.7214   -0.7349 H   0  0  0  0  0  0  0  0  0  0  0  0
   -1.4874   -1.2418    1.0312 H   0  0  0  0  0  0  0  0  0  0  0  0
   -3.3676   -1.2504   -1.3109 H   0  0  0  0  0  0  0  0  0  0  0  0
   -2.6552   -2.6765   -0.5256 H   0  0  0  0  0  0  0  0  0  0  0  0
  1  2  1  0
  2  3  1  0
  3  4  1  0
  4  5  2  0
  5  6  1  0
  6  7  2  0
  7  8  1  0
  8  9  1  0
  9 10  2  0
 10 11  1  0
 11 12  2  0
 12 13  1  0
 13 14  2  3
 14 15  1  0
 14 16  1  0
 16 17  2  0
 17 18  1  0
 18 19  2  0
 19 20  1  0
 12 21  1  0
 21 22  2  0
  5 23  1  0
 23 24  1  0
 24  2  1  0
 22  6  1  0
 22  9  1  0
 20 16  1  0
  1 25  1  0
  1 26  1  0
  1 27  1  0
  3 28  1  0
  3 29  1  0
  4 30  1  0
  7 31  1  0
  8 32  1  0
 10 33  1  0
 11 34  1  0
 15 35  1  0
 15 36  1  0
 17 37  1  0
 18 38  1  0
 19 39  1  0
 21 40  1  0
 23 41  1  0
 23 42  1  0
 24 43  1  0
 24 44  1  0
M  END
$$$$
