@<TRIPOS>MOLECULE
*****
 44 44 0 0 0
SMALL
GASTEIGER

@<TRIPOS>ATOM
      1 C          -3.5838    1.2518    0.6309 C.3     1  UNL1       -0.0629
      2 C          -3.1081    0.0252   -0.0971 C.3     1  UNL1       -0.0294
      3 C          -1.7120    0.2447   -0.6966 C.3     1  UNL1        0.0590
      4 C          -1.8481    1.4055   -1.6520 C.3     1  UNL1       -0.0294
      5 C          -2.8606    1.0375   -2.7167 C.3     1  UNL1       -0.0629
      6 O          -0.8570    0.4673    0.3409 O.3     1  UNL1       -0.3675
      7 C           0.1443   -0.4573    0.5028 C.3     1  UNL1        0.0976
      8 C           0.0759   -1.1710    1.8110 C.2     1  UNL1       -0.0438
      9 C           1.0209   -2.0806    2.0048 C.2     1  UNL1        0.0365
     10 C           1.0627   -2.8437    3.2392 C.2     1  UNL1        0.3326
     11 O           2.0076   -3.6985    3.3403 O.2     1  UNL1       -0.2455
     12 O           0.1390   -2.6514    4.2315 O.3     1  UNL1       -0.4773
     13 C           2.0044   -2.2551    0.9003 C.3     1  UNL1       -0.0041
     14 C           2.6167   -0.8852    0.6741 C.3     1  UNL1        0.0304
     15 N           3.3278   -0.4892    1.8779 N.3     1  UNL1       -0.3254
     16 C           1.5255    0.0994    0.3291 C.3     1  UNL1        0.0682
     17 N           1.7657    0.5023   -1.0588 N.am    1  UNL1       -0.3084
     18 C           2.0731    1.8504   -1.3847 C.2     1  UNL1        0.2103
     19 C           2.3229    2.2918   -2.7895 C.3     1  UNL1        0.0122
     20 O           2.1245    2.6654   -0.4099 O.2     1  UNL1       -0.2761
     21 H          -4.1530    1.9447   -0.0200 H       1  UNL1        0.0231
     22 H          -4.2920    0.9189    1.4185 H       1  UNL1        0.0231
     23 H          -2.7553    1.7794    1.1694 H       1  UNL1        0.0231
     24 H          -3.0322   -0.7939    0.6686 H       1  UNL1        0.0287
     25 H          -3.8356   -0.2214   -0.8818 H       1  UNL1        0.0287
     26 H          -1.4992   -0.6570   -1.2889 H       1  UNL1        0.0596
     27 H          -0.9018    1.6503   -2.1683 H       1  UNL1        0.0287
     28 H          -2.1475    2.3446   -1.1167 H       1  UNL1        0.0287
     29 H          -3.8881    1.3653   -2.4619 H       1  UNL1        0.0231
     30 H          -2.8892   -0.0445   -2.9023 H       1  UNL1        0.0231
     31 H          -2.5703    1.5228   -3.6823 H       1  UNL1        0.0231
     32 H           0.0075   -1.2199   -0.3092 H       1  UNL1        0.0660
     33 H          -0.6901   -0.9621    2.5504 H       1  UNL1        0.0603
     34 H          -0.0792   -3.4232    4.8540 H       1  UNL1        0.2954
     35 H           2.7704   -2.9947    1.2191 H       1  UNL1        0.0331
     36 H           1.4923   -2.5798   -0.0211 H       1  UNL1        0.0331
     37 H           3.3564   -1.0114   -0.1520 H       1  UNL1        0.0481
     38 H           2.9703    0.3977    2.2848 H       1  UNL1        0.1185
     39 H           3.4101   -1.2640    2.5634 H       1  UNL1        0.1185
     40 H           1.6213    0.9689    1.0128 H       1  UNL1        0.0542
     41 H           1.7150   -0.1934   -1.8309 H       1  UNL1        0.1491
     42 H           2.1059    3.3666   -2.8429 H       1  UNL1        0.0322
     43 H           3.3655    2.0834   -3.1107 H       1  UNL1        0.0322
     44 H           1.6773    1.7132   -3.5063 H       1  UNL1        0.0322
@<TRIPOS>BOND
     1     1     2    1
     2     2     3    1
     3     3     4    1
     4     4     5    1
     5     3     6    1
     6     6     7    1
     7     7     8    1
     8     8     9    2
     9     9    10    1
    10    10    11    2
    11    10    12    1
    12     9    13    1
    13    13    14    1
    14    14    15    1
    15    14    16    1
    16    16    17    1
    17    17    18   am
    18    18    19    1
    19    18    20    2
    20    16     7    1
    21     1    21    1
    22     1    22    1
    23     1    23    1
    24     2    24    1
    25     2    25    1
    26     3    26    1
    27     4    27    1
    28     4    28    1
    29     5    29    1
    30     5    30    1
    31     5    31    1
    32     7    32    1
    33     8    33    1
    34    12    34    1
    35    13    35    1
    36    13    36    1
    37    14    37    1
    38    15    38    1
    39    15    39    1
    40    16    40    1
    41    17    41    1
    42    19    42    1
    43    19    43    1
    44    19    44    1
