@<TRIPOS>MOLECULE
*****
 52 54 0 0 0
SMALL
GASTEIGER

@<TRIPOS>ATOM
      1 C          -2.9724   -3.7316    1.2927 C.3     1  UNL1       -0.0635
      2 C          -2.0866   -2.5593    1.6015 C.3     1  UNL1       -0.0352
      3 CA         -2.8819   -1.3478    2.0225 C.3     1  UNL1        0.0461
      4 C          -3.8195   -0.9465    0.9165 C.3     1  UNL1        0.0626
      5 O          -4.5494    0.1782    1.2496 O.3     1  UNL1       -0.3932
      6 N          -1.9560   -0.2621    2.2866 N.pl3   1  UNL1       -0.3083
      7 C          -1.0822    0.2510    1.2924 C.ar    1  UNL1        0.2191
      8 N           0.1378   -0.2330    1.0841 N.ar    1  UNL1       -0.1974
      9 C           0.9726    0.2573    0.1347 C.ar    1  UNL1        0.1519
     10 N           2.2664   -0.2891   -0.0550 N.pl3   1  UNL1       -0.3231
     11 C           2.7297   -1.3865    0.7641 C.3     1  UNL1        0.0357
     12 C           4.0936   -1.7930    0.3922 C.ar    1  UNL1       -0.0304
     13 C           5.1839   -1.2117    1.0024 C.ar    1  UNL1       -0.0571
     14 C           6.4710   -1.6036    0.6445 C.ar    1  UNL1       -0.0615
     15 C           6.6646   -2.5702   -0.3169 C.ar    1  UNL1       -0.0617
     16 C           5.5610   -3.1318   -0.9078 C.ar    1  UNL1       -0.0615
     17 C           4.2626   -2.7726   -0.5829 C.ar    1  UNL1       -0.0571
     18 C           0.4977    1.3028   -0.6260 C.ar    1  UNL1        0.1476
     19 N           1.0255    2.0202   -1.6259 N.ar    1  UNL1       -0.2306
     20 C           0.1198    2.9409   -2.0226 C.ar    1  UNL1        0.0985
     21 N          -1.0085    2.8371   -1.2886 N.ar    1  UNL1       -0.3123
     22 C          -2.1964    3.6594   -1.4305 C.3     1  UNL1        0.0317
     23 C          -2.0630    4.9916   -0.7665 C.3     1  UNL1       -0.0444
     24 C          -2.4954    3.8151   -2.9213 C.3     1  UNL1       -0.0444
     25 C          -0.7750    1.8308   -0.4315 C.ar    1  UNL1        0.1674
     26 N          -1.5315    1.2799    0.5334 N.ar    1  UNL1       -0.1947
     27 H          -3.2208   -3.7738    0.1987 H       1  UNL1        0.0230
     28 H          -3.8997   -3.7147    1.9013 H       1  UNL1        0.0230
     29 H          -2.4236   -4.6629    1.5737 H       1  UNL1        0.0230
     30 H          -1.4324   -2.8408    2.4584 H       1  UNL1        0.0281
     31 H          -1.4343   -2.3632    0.7277 H       1  UNL1        0.0281
     32 HA         -3.4452   -1.6211    2.9333 H       1  UNL1        0.0521
     33 H1         -3.2218   -0.7252    0.0169 H       1  UNL1        0.0575
     34 H2         -4.4480   -1.8265    0.6703 H       1  UNL1        0.0575
     35 H          -5.2548    0.3360    0.5816 H       1  UNL1        0.2095
     36 H          -1.9347    0.1490    3.2316 H       1  UNL1        0.1493
     37 H           2.8895    0.0904   -0.7786 H       1  UNL1        0.1479
     38 H           2.7020   -1.0273    1.8168 H       1  UNL1        0.0511
     39 H           2.0008   -2.2398    0.6867 H       1  UNL1        0.0511
     40 H           5.0117   -0.4542    1.7551 H       1  UNL1        0.0621
     41 H           7.3177   -1.1571    1.1133 H       1  UNL1        0.0618
     42 H           7.6562   -2.9097   -0.6304 H       1  UNL1        0.0618
     43 H           5.7313   -3.8994   -1.6709 H       1  UNL1        0.0618
     44 H           3.4059   -3.2215   -1.0547 H       1  UNL1        0.0621
     45 H           0.2697    3.6640   -2.8165 H       1  UNL1        0.1029
     46 H          -3.0768    3.1359   -0.9710 H       1  UNL1        0.0523
     47 H          -1.6738    5.7465   -1.4941 H       1  UNL1        0.0249
     48 H          -3.0796    5.3247   -0.4161 H       1  UNL1        0.0249
     49 H          -1.3744    4.9227    0.1088 H       1  UNL1        0.0249
     50 H          -2.5414    2.7889   -3.3365 H       1  UNL1        0.0249
     51 H          -1.6475    4.3928   -3.3475 H       1  UNL1        0.0249
     52 H          -3.4448    4.3609   -2.9981 H       1  UNL1        0.0249
@<TRIPOS>BOND
     1     1     2    1
     2     2     3    1
     3     3     4    1
     4     4     5    1
     5     3     6    1
     6     6     7    1
     7     7     8   ar
     8     8     9   ar
     9     9    10    1
    10    10    11    1
    11    11    12    1
    12    12    13   ar
    13    13    14   ar
    14    14    15   ar
    15    15    16   ar
    16    16    17   ar
    17     9    18   ar
    18    18    19   ar
    19    19    20   ar
    20    20    21   ar
    21    21    22    1
    22    22    23    1
    23    22    24    1
    24    21    25   ar
    25    25    26   ar
    26    26     7   ar
    27    17    12   ar
    28    25    18   ar
    29     1    27    1
    30     1    28    1
    31     1    29    1
    32     2    30    1
    33     2    31    1
    34     3    32    1
    35     4    33    1
    36     4    34    1
    37     5    35    1
    38     6    36    1
    39    10    37    1
    40    11    38    1
    41    11    39    1
    42    13    40    1
    43    14    41    1
    44    15    42    1
    45    16    43    1
    46    17    44    1
    47    20    45    1
    48    22    46    1
    49    23    47    1
    50    23    48    1
    51    23    49    1
    52    24    50    1
    53    24    51    1
    54    24    52    1
