@<TRIPOS>MOLECULE
*****
 69 72 0 0 0
SMALL
GASTEIGER

@<TRIPOS>ATOM
      1 C          -4.9737   -3.5491   -0.3416 C.3     1  UNL1       -0.0307
      2 C          -3.6095   -3.3002    0.2063 C.3     1  UNL1        0.0868
      3 O          -3.2457   -1.9173    0.2230 O.3     1  UNL1       -0.4915
      4 C          -1.9723   -1.6250    0.7276 C.ar    1  UNL1        0.1311
      5 C          -1.1341   -2.6197    1.1760 C.ar    1  UNL1       -0.0190
      6 C           0.1079   -2.2913    1.6634 C.ar    1  UNL1       -0.0551
      7 C           0.5412   -0.9660    1.7148 C.ar    1  UNL1       -0.0462
      8 C           1.8904   -0.7617    2.2691 C.3     1  UNL1       -0.0247
      9 C           2.8967   -0.8913    1.1573 C.3     1  UNL1       -0.0347
     10 C           2.6479    0.1399    0.1168 C.3     1  UNL1       -0.0370
     11 C           4.0346    0.5091   -0.4943 C.3     1  UNL1       -0.0008
     12 N           4.7298   -0.6896   -0.7425 N.3     1  UNL1       -0.3018
     13 C           5.7225   -0.7620   -1.7415 C.3     1  UNL1        0.0072
     14 C           7.0212   -0.0989   -1.5554 C.3     1  UNL1        0.0387
     15 C           7.0480    1.3455   -1.4420 C.2     1  UNL1        0.2367
     16 O           6.0997    2.1029   -1.6590 O.2     1  UNL1       -0.2737
     17 N           8.2926    1.9626   -1.0386 N.am    1  UNL1       -0.1975
     18 O           8.3562    3.2964   -0.9217 O.3     1  UNL1       -0.2952
     19 C           5.1869   -1.3127    0.5067 C.3     1  UNL1       -0.0008
     20 C           4.3293   -0.8846    1.6526 C.3     1  UNL1       -0.0370
     21 C          -0.3153   -0.0111    1.2632 C.ar    1  UNL1       -0.0444
     22 C          -1.5529   -0.3050    0.7739 C.ar    1  UNL1        0.0592
     23 C          -2.4591    0.7623    0.2894 C.ar    1  UNL1        0.1451
     24 N          -3.6777    0.4215   -0.1669 N.ar    1  UNL1       -0.2254
     25 C          -4.5996    1.2805   -0.6373 C.ar    1  UNL1        0.1192
     26 C          -5.8747    1.1693   -1.1459 C.ar    1  UNL1        0.0889
     27 C          -6.6569   -0.0693   -1.3134 C.3     1  UNL1       -0.0094
     28 C          -7.2096   -0.4893    0.0423 C.3     1  UNL1       -0.0597
     29 N          -6.2713    2.4131   -1.4489 N.ar    1  UNL1       -0.1736
     30 N          -5.3095    3.2748   -1.1530 N.ar    1  UNL1       -0.2598
     31 C          -5.3592    4.7142   -1.3350 C.3     1  UNL1        0.0311
     32 C          -4.2482    2.6351   -0.6465 C.ar    1  UNL1        0.1513
     33 C          -3.0048    2.9720   -0.1794 C.ar    1  UNL1        0.2775
     34 O          -2.6482    4.1722   -0.1687 O.2     1  UNL1       -0.2655
     35 N          -2.1262    2.0479    0.2808 N.ar    1  UNL1       -0.3051
     36 H          -5.0667   -3.4395   -1.4312 H       1  UNL1        0.0262
     37 H          -5.7257   -2.9560    0.2309 H       1  UNL1        0.0262
     38 H          -5.2090   -4.6239   -0.1265 H       1  UNL1        0.0262
     39 H          -2.8455   -3.8355   -0.4001 H       1  UNL1        0.0694
     40 H          -3.6038   -3.7083    1.2547 H       1  UNL1        0.0694
     41 H          -1.4992   -3.6367    1.1233 H       1  UNL1        0.0654
     42 H           0.7290   -3.1165    2.0038 H       1  UNL1        0.0621
     43 H           2.1037   -1.5313    3.0580 H       1  UNL1        0.0316
     44 H           1.9125    0.2448    2.7299 H       1  UNL1        0.0316
     45 H           2.7844   -1.9141    0.6711 H       1  UNL1        0.0305
     46 H           2.2311    1.0973    0.4925 H       1  UNL1        0.0280
     47 H           2.0733   -0.2859   -0.7268 H       1  UNL1        0.0280
     48 H           4.4627    1.2002    0.2273 H       1  UNL1        0.0427
     49 H           3.7547    0.9856   -1.4664 H       1  UNL1        0.0427
     50 H           5.2572   -0.3712   -2.7085 H       1  UNL1        0.0431
     51 H           5.8650   -1.8518   -1.9842 H       1  UNL1        0.0431
     52 H           7.6599   -0.3590   -2.4719 H       1  UNL1        0.0372
     53 H           7.6363   -0.5750   -0.7305 H       1  UNL1        0.0372
     54 H           9.1287    1.3989   -0.8399 H       1  UNL1        0.1822
     55 H           8.1984    3.7521   -1.7994 H       1  UNL1        0.2414
     56 H           5.1529   -2.4102    0.3823 H       1  UNL1        0.0427
     57 H           6.2214   -1.0088    0.7045 H       1  UNL1        0.0427
     58 H           4.3847   -1.6695    2.4294 H       1  UNL1        0.0280
     59 H           4.5514    0.1044    2.0466 H       1  UNL1        0.0280
     60 H           0.0474    1.0176    1.3246 H       1  UNL1        0.0628
     61 H          -5.9337   -0.8808   -1.6130 H       1  UNL1        0.0327
     62 H          -7.4652    0.0561   -2.0561 H       1  UNL1        0.0327
     63 H          -8.0789    0.1280    0.3474 H       1  UNL1        0.0233
     64 H          -7.6036   -1.5203   -0.1003 H       1  UNL1        0.0233
     65 H          -6.4237   -0.5371    0.8012 H       1  UNL1        0.0233
     66 H          -5.1804    5.1674   -0.3362 H       1  UNL1        0.0473
     67 H          -4.6171    5.0718   -2.0784 H       1  UNL1        0.0473
     68 H          -6.3577    4.9756   -1.6940 H       1  UNL1        0.0473
     69 H          -1.2007    2.3563    0.6214 H       1  UNL1        0.1704
@<TRIPOS>BOND
     1     1     2    1
     2     2     3    1
     3     3     4    1
     4     4     5   ar
     5     5     6   ar
     6     6     7   ar
     7     7     8    1
     8     8     9    1
     9     9    10    1
    10    10    11    1
    11    11    12    1
    12    12    13    1
    13    13    14    1
    14    14    15    1
    15    15    16    2
    16    15    17   am
    17    17    18    1
    18    12    19    1
    19    19    20    1
    20     7    21   ar
    21    21    22   ar
    22    22    23    1
    23    23    24   ar
    24    24    25   ar
    25    25    26   ar
    26    26    27    1
    27    27    28    1
    28    26    29   ar
    29    29    30   ar
    30    30    31    1
    31    30    32   ar
    32    32    33   ar
    33    33    34    2
    34    33    35   ar
    35    22     4   ar
    36    35    23   ar
    37    20     9    1
    38    32    25   ar
    39     1    36    1
    40     1    37    1
    41     1    38    1
    42     2    39    1
    43     2    40    1
    44     5    41    1
    45     6    42    1
    46     8    43    1
    47     8    44    1
    48     9    45    1
    49    10    46    1
    50    10    47    1
    51    11    48    1
    52    11    49    1
    53    13    50    1
    54    13    51    1
    55    14    52    1
    56    14    53    1
    57    17    54    1
    58    18    55    1
    59    19    56    1
    60    19    57    1
    61    20    58    1
    62    20    59    1
    63    21    60    1
    64    27    61    1
    65    27    62    1
    66    28    63    1
    67    28    64    1
    68    28    65    1
    69    31    66    1
    70    31    67    1
    71    31    68    1
    72    35    69    1
