
     RDKit          3D

 69 72  0  0  0  0  0  0  0  0999 V2000
   -4.9737   -3.5491   -0.3416 C   0  0  0  0  0  0  0  0  0  0  0  0
   -3.6095   -3.3002    0.2063 C   0  0  0  0  0  0  0  0  0  0  0  0
   -3.2457   -1.9173    0.2230 O   0  0  0  0  0  0  0  0  0  0  0  0
   -1.9723   -1.6250    0.7276 C   0  0  0  0  0  0  0  0  0  0  0  0
   -1.1341   -2.6197    1.1760 C   0  0  0  0  0  0  0  0  0  0  0  0
    0.1079   -2.2913    1.6634 C   0  0  0  0  0  0  0  0  0  0  0  0
    0.5412   -0.9660    1.7148 C   0  0  0  0  0  0  0  0  0  0  0  0
    1.8904   -0.7617    2.2691 C   0  0  0  0  0  0  0  0  0  0  0  0
    2.8967   -0.8913    1.1573 C   0  0  0  0  0  0  0  0  0  0  0  0
    2.6479    0.1399    0.1168 C   0  0  0  0  0  0  0  0  0  0  0  0
    4.0346    0.5091   -0.4943 C   0  0  0  0  0  0  0  0  0  0  0  0
    4.7298   -0.6896   -0.7425 N   0  0  0  0  0  0  0  0  0  0  0  0
    5.7225   -0.7620   -1.7415 C   0  0  0  0  0  0  0  0  0  0  0  0
    7.0212   -0.0989   -1.5554 C   0  0  0  0  0  0  0  0  0  0  0  0
    7.0480    1.3455   -1.4420 C   0  0  0  0  0  0  0  0  0  0  0  0
    6.0997    2.1029   -1.6590 O   0  0  0  0  0  0  0  0  0  0  0  0
    8.2926    1.9626   -1.0386 N   0  0  0  0  0  0  0  0  0  0  0  0
    8.3562    3.2964   -0.9217 O   0  0  0  0  0  0  0  0  0  0  0  0
    5.1869   -1.3127    0.5067 C   0  0  0  0  0  0  0  0  0  0  0  0
    4.3293   -0.8846    1.6526 C   0  0  0  0  0  0  0  0  0  0  0  0
   -0.3153   -0.0111    1.2632 C   0  0  0  0  0  0  0  0  0  0  0  0
   -1.5529   -0.3050    0.7739 C   0  0  0  0  0  0  0  0  0  0  0  0
   -2.4591    0.7623    0.2894 C   0  0  0  0  0  0  0  0  0  0  0  0
   -3.6777    0.4215   -0.1669 N   0  0  0  0  0  0  0  0  0  0  0  0
   -4.5996    1.2805   -0.6373 C   0  0  0  0  0  0  0  0  0  0  0  0
   -5.8747    1.1693   -1.1459 C   0  0  0  0  0  0  0  0  0  0  0  0
   -6.6569   -0.0693   -1.3134 C   0  0  0  0  0  0  0  0  0  0  0  0
   -7.2096   -0.4893    0.0423 C   0  0  0  0  0  0  0  0  0  0  0  0
   -6.2713    2.4131   -1.4489 N   0  0  0  0  0  0  0  0  0  0  0  0
   -5.3095    3.2748   -1.1530 N   0  0  0  0  0  0  0  0  0  0  0  0
   -5.3592    4.7142   -1.3350 C   0  0  0  0  0  0  0  0  0  0  0  0
   -4.2482    2.6351   -0.6465 C   0  0  0  0  0  0  0  0  0  0  0  0
   -3.0048    2.9720   -0.1794 C   0  0  0  0  0  0  0  0  0  0  0  0
   -2.6482    4.1722   -0.1687 O   0  0  0  0  0  0  0  0  0  0  0  0
   -2.1262    2.0479    0.2808 N   0  0  0  0  0  0  0  0  0  0  0  0
   -5.0667   -3.4395   -1.4312 H   0  0  0  0  0  0  0  0  0  0  0  0
   -5.7257   -2.9560    0.2309 H   0  0  0  0  0  0  0  0  0  0  0  0
   -5.2090   -4.6239   -0.1265 H   0  0  0  0  0  0  0  0  0  0  0  0
   -2.8455   -3.8355   -0.4001 H   0  0  0  0  0  0  0  0  0  0  0  0
   -3.6038   -3.7083    1.2547 H   0  0  0  0  0  0  0  0  0  0  0  0
   -1.4992   -3.6367    1.1233 H   0  0  0  0  0  0  0  0  0  0  0  0
    0.7290   -3.1165    2.0038 H   0  0  0  0  0  0  0  0  0  0  0  0
    2.1037   -1.5313    3.0580 H   0  0  0  0  0  0  0  0  0  0  0  0
    1.9125    0.2448    2.7299 H   0  0  0  0  0  0  0  0  0  0  0  0
    2.7844   -1.9141    0.6711 H   0  0  0  0  0  0  0  0  0  0  0  0
    2.2311    1.0973    0.4925 H   0  0  0  0  0  0  0  0  0  0  0  0
    2.0733   -0.2859   -0.7268 H   0  0  0  0  0  0  0  0  0  0  0  0
    4.4627    1.2002    0.2273 H   0  0  0  0  0  0  0  0  0  0  0  0
    3.7547    0.9856   -1.4664 H   0  0  0  0  0  0  0  0  0  0  0  0
    5.2572   -0.3712   -2.7085 H   0  0  0  0  0  0  0  0  0  0  0  0
    5.8650   -1.8518   -1.9842 H   0  0  0  0  0  0  0  0  0  0  0  0
    7.6599   -0.3590   -2.4719 H   0  0  0  0  0  0  0  0  0  0  0  0
    7.6363   -0.5750   -0.7305 H   0  0  0  0  0  0  0  0  0  0  0  0
    9.1287    1.3989   -0.8399 H   0  0  0  0  0  0  0  0  0  0  0  0
    8.1984    3.7521   -1.7994 H   0  0  0  0  0  0  0  0  0  0  0  0
    5.1529   -2.4102    0.3823 H   0  0  0  0  0  0  0  0  0  0  0  0
    6.2214   -1.0088    0.7045 H   0  0  0  0  0  0  0  0  0  0  0  0
    4.3847   -1.6695    2.4294 H   0  0  0  0  0  0  0  0  0  0  0  0
    4.5514    0.1044    2.0466 H   0  0  0  0  0  0  0  0  0  0  0  0
    0.0474    1.0176    1.3246 H   0  0  0  0  0  0  0  0  0  0  0  0
   -5.9337   -0.8808   -1.6130 H   0  0  0  0  0  0  0  0  0  0  0  0
   -7.4652    0.0561   -2.0561 H   0  0  0  0  0  0  0  0  0  0  0  0
   -8.0789    0.1280    0.3474 H   0  0  0  0  0  0  0  0  0  0  0  0
   -7.6036   -1.5203   -0.1003 H   0  0  0  0  0  0  0  0  0  0  0  0
   -6.4237   -0.5371    0.8012 H   0  0  0  0  0  0  0  0  0  0  0  0
   -5.1804    5.1674   -0.3362 H   0  0  0  0  0  0  0  0  0  0  0  0
   -4.6171    5.0718   -2.0784 H   0  0  0  0  0  0  0  0  0  0  0  0
   -6.3577    4.9756   -1.6940 H   0  0  0  0  0  0  0  0  0  0  0  0
   -1.2007    2.3563    0.6214 H   0  0  0  0  0  0  0  0  0  0  0  0
  1  2  1  0
  2  3  1  0
  3  4  1  0
  4  5  2  0
  5  6  1  0
  6  7  2  0
  7  8  1  0
  8  9  1  0
  9 10  1  0
 10 11  1  0
 11 12  1  0
 12 13  1  0
 13 14  1  0
 14 15  1  0
 15 16  2  0
 15 17  1  0
 17 18  1  0
 12 19  1  0
 19 20  1  0
  7 21  1  0
 21 22  2  0
 22 23  1  0
 23 24  2  0
 24 25  1  0
 25 26  1  0
 26 27  1  0
 27 28  1  0
 26 29  2  0
 29 30  1  0
 30 31  1  0
 30 32  1  0
 32 33  1  0
 33 34  2  0
 33 35  1  0
 22  4  1  0
 35 23  1  0
 20  9  1  0
 32 25  2  0
  1 36  1  0
  1 37  1  0
  1 38  1  0
  2 39  1  0
  2 40  1  0
  5 41  1  0
  6 42  1  0
  8 43  1  0
  8 44  1  0
  9 45  1  0
 10 46  1  0
 10 47  1  0
 11 48  1  0
 11 49  1  0
 13 50  1  0
 13 51  1  0
 14 52  1  0
 14 53  1  0
 17 54  1  0
 18 55  1  0
 19 56  1  0
 19 57  1  0
 20 58  1  0
 20 59  1  0
 21 60  1  0
 27 61  1  0
 27 62  1  0
 28 63  1  0
 28 64  1  0
 28 65  1  0
 31 66  1  0
 31 67  1  0
 31 68  1  0
 35 69  1  0
M  END
$$$$
