
     RDKit          3D

 62 65  0  0  0  0  0  0  0  0999 V2000
    5.2177    0.2547   -2.9578 C   0  0  0  0  0  0  0  0  0  0  0  0
    4.6774   -0.4013   -1.7149 C   0  0  0  0  0  0  0  0  0  0  0  0
    5.3175   -1.3465   -1.1871 O   0  0  0  0  0  0  0  0  0  0  0  0
    3.5042    0.0017   -1.1384 O   0  0  0  0  0  0  0  0  0  0  0  0
    2.9283   -0.5561    0.0251 C   0  0  2  0  0  0  0  0  0  0  0  0
    3.8184   -0.4301    1.2052 C   0  0  0  0  0  0  0  0  0  0  0  0
    5.1445    0.2337    1.1885 C   0  0  0  0  0  0  0  0  0  0  0  0
    3.4468   -0.8978    2.2622 O   0  0  0  0  0  0  0  0  0  0  0  0
    2.7014   -2.0685   -0.1408 C   0  0  0  0  0  0  0  0  0  0  0  0
    1.3187   -2.2273    0.5204 C   0  0  0  0  0  0  0  0  0  0  0  0
    0.6414   -1.0695   -0.0698 C   0  0  1  0  0  0  0  0  0  0  0  0
   -0.6711   -0.6501    0.4161 C   0  0  2  0  0  0  0  0  0  0  0  0
   -1.6895   -1.7533    0.5563 C   0  0  0  0  0  0  0  0  0  0  0  0
   -2.8074   -1.1147    1.3840 C   0  0  2  0  0  0  0  0  0  0  0  0
   -3.8183   -2.0965    1.8316 C   0  0  0  0  0  0  0  0  0  0  0  0
   -3.3559   -0.0278    0.5366 C   0  0  0  0  0  0  0  0  0  0  0  0
   -4.6781    0.1121    0.5369 C   0  0  0  0  0  0  0  0  0  0  0  0
   -5.3201    1.1469   -0.2600 C   0  0  0  0  0  0  0  0  0  0  0  0
   -6.4578    1.5513    0.0437 O   0  0  0  0  0  0  0  0  0  0  0  0
   -4.6222    1.7102   -1.4201 C   0  0  0  0  0  0  0  0  0  0  0  0
   -3.2343    1.1317   -1.5882 C   0  0  0  0  0  0  0  0  0  0  0  0
   -2.5522    0.8775   -0.2755 C   0  0  1  0  0  0  0  0  0  0  0  0
   -2.5008    2.2178    0.4672 C   0  0  0  0  0  0  0  0  0  0  0  0
   -1.1629    0.4055   -0.5563 C   0  0  1  0  0  0  0  0  0  0  0  0
   -0.1881    1.5358   -0.6478 C   0  0  0  0  0  0  0  0  0  0  0  0
    1.2420    1.1503   -0.7359 C   0  0  0  0  0  0  0  0  0  0  0  0
    1.6110    0.0764    0.2566 C   0  0  2  0  0  0  0  0  0  0  0  0
    1.4367    0.6012    1.6394 C   0  0  0  0  0  0  0  0  0  0  0  0
    5.2566    1.3634   -2.8048 H   0  0  0  0  0  0  0  0  0  0  0  0
    4.6261   -0.0245   -3.8438 H   0  0  0  0  0  0  0  0  0  0  0  0
    6.2629   -0.0723   -3.1237 H   0  0  0  0  0  0  0  0  0  0  0  0
    5.9731   -0.4728    1.3302 H   0  0  0  0  0  0  0  0  0  0  0  0
    5.2764    0.9337    0.3391 H   0  0  0  0  0  0  0  0  0  0  0  0
    5.1613    0.8853    2.1127 H   0  0  0  0  0  0  0  0  0  0  0  0
    2.5528   -2.3297   -1.1965 H   0  0  0  0  0  0  0  0  0  0  0  0
    3.4637   -2.6582    0.3644 H   0  0  0  0  0  0  0  0  0  0  0  0
    0.8795   -3.1686    0.1702 H   0  0  0  0  0  0  0  0  0  0  0  0
    1.4026   -2.1855    1.6239 H   0  0  0  0  0  0  0  0  0  0  0  0
    0.6518   -1.1600   -1.1761 H   0  0  0  0  0  0  0  0  0  0  0  0
   -0.5809   -0.1701    1.4127 H   0  0  0  0  0  0  0  0  0  0  0  0
   -2.1260   -1.9288   -0.4502 H   0  0  0  0  0  0  0  0  0  0  0  0
   -1.2805   -2.6446    1.0242 H   0  0  0  0  0  0  0  0  0  0  0  0
   -2.3284   -0.6491    2.2542 H   0  0  0  0  0  0  0  0  0  0  0  0
   -4.4990   -2.4536    1.0358 H   0  0  0  0  0  0  0  0  0  0  0  0
   -4.3814   -1.6570    2.6934 H   0  0  0  0  0  0  0  0  0  0  0  0
   -3.2957   -2.9905    2.2306 H   0  0  0  0  0  0  0  0  0  0  0  0
   -5.3097   -0.5540    1.1412 H   0  0  0  0  0  0  0  0  0  0  0  0
   -5.1966    1.4390   -2.3345 H   0  0  0  0  0  0  0  0  0  0  0  0
   -4.5782    2.8180   -1.4043 H   0  0  0  0  0  0  0  0  0  0  0  0
   -3.2546    0.2091   -2.2194 H   0  0  0  0  0  0  0  0  0  0  0  0
   -2.6368    1.8812   -2.1457 H   0  0  0  0  0  0  0  0  0  0  0  0
   -3.5463    2.4774    0.8089 H   0  0  0  0  0  0  0  0  0  0  0  0
   -1.9198    2.1398    1.4073 H   0  0  0  0  0  0  0  0  0  0  0  0
   -2.2033    3.0451   -0.1896 H   0  0  0  0  0  0  0  0  0  0  0  0
   -1.1486   -0.1033   -1.5666 H   0  0  0  0  0  0  0  0  0  0  0  0
   -0.3328    2.3178    0.1474 H   0  0  0  0  0  0  0  0  0  0  0  0
   -0.4364    2.0826   -1.6070 H   0  0  0  0  0  0  0  0  0  0  0  0
    1.8559    2.0499   -0.4682 H   0  0  0  0  0  0  0  0  0  0  0  0
    1.4588    0.8009   -1.7542 H   0  0  0  0  0  0  0  0  0  0  0  0
    1.2473   -0.1503    2.4122 H   0  0  0  0  0  0  0  0  0  0  0  0
    2.3795    1.1396    1.9182 H   0  0  0  0  0  0  0  0  0  0  0  0
    0.6596    1.4229    1.6812 H   0  0  0  0  0  0  0  0  0  0  0  0
  1  2  1  0
  2  3  2  0
  2  4  1  0
  5  4  1  6
  5  6  1  0
  6  7  1  0
  6  8  2  0
  5  9  1  0
  9 10  1  0
 10 11  1  0
 11 12  1  0
 12 13  1  0
 13 14  1  0
 14 15  1  0
 14 16  1  0
 16 17  2  0
 17 18  1  0
 18 19  2  0
 18 20  1  0
 20 21  1  0
 21 22  1  0
 22 23  1  1
 22 24  1  0
 24 25  1  0
 25 26  1  0
 26 27  1  0
 27 28  1  1
 27  5  1  0
 27 11  1  0
 24 12  1  0
 22 16  1  0
  1 29  1  0
  1 30  1  0
  1 31  1  0
  7 32  1  0
  7 33  1  0
  7 34  1  0
  9 35  1  0
  9 36  1  0
 10 37  1  0
 10 38  1  0
 11 39  1  6
 12 40  1  1
 13 41  1  0
 13 42  1  0
 14 43  1  1
 15 44  1  0
 15 45  1  0
 15 46  1  0
 17 47  1  0
 20 48  1  0
 20 49  1  0
 21 50  1  0
 21 51  1  0
 23 52  1  0
 23 53  1  0
 23 54  1  0
 24 55  1  6
 25 56  1  0
 25 57  1  0
 26 58  1  0
 26 59  1  0
 28 60  1  0
 28 61  1  0
 28 62  1  0
M  END
$$$$
