@<TRIPOS>MOLECULE
*****
 62 65 0 0 0
SMALL
GASTEIGER

@<TRIPOS>ATOM
      1 C           5.2177    0.2547   -2.9578 C.3     1  UNL1        0.0333
      2 C           4.6774   -0.4013   -1.7149 C.2     1  UNL1        0.3049
      3 O           5.3175   -1.3465   -1.1871 O.2     1  UNL1       -0.2511
      4 O           3.5042    0.0017   -1.1384 O.3     1  UNL1       -0.4500
      5 C           2.9283   -0.5561    0.0251 C.3     1  UNL1        0.1758
      6 C           3.8184   -0.4301    1.2052 C.2     1  UNL1        0.1741
      7 C           5.1445    0.2337    1.1885 C.3     1  UNL1       -0.0020
      8 O           3.4468   -0.8978    2.2622 O.2     1  UNL1       -0.2934
      9 C           2.7014   -2.0685   -0.1408 C.3     1  UNL1       -0.0050
     10 C           1.3187   -2.2273    0.5204 C.3     1  UNL1       -0.0453
     11 C           0.6414   -1.0695   -0.0698 C.3     1  UNL1       -0.0283
     12 C          -0.6711   -0.6501    0.4161 C.3     1  UNL1       -0.0334
     13 C          -1.6895   -1.7533    0.5563 C.3     1  UNL1       -0.0433
     14 C          -2.8074   -1.1147    1.3840 C.3     1  UNL1       -0.0215
     15 C          -3.8183   -2.0965    1.8316 C.3     1  UNL1       -0.0587
     16 C          -3.3559   -0.0278    0.5366 C.2     1  UNL1       -0.0572
     17 C          -4.6781    0.1121    0.5369 C.2     1  UNL1       -0.0192
     18 C          -5.3201    1.1469   -0.2600 C.2     1  UNL1        0.1561
     19 O          -6.4578    1.5513    0.0437 O.2     1  UNL1       -0.2927
     20 C          -4.6222    1.7102   -1.4201 C.3     1  UNL1        0.0107
     21 C          -3.2343    1.1317   -1.5882 C.3     1  UNL1       -0.0366
     22 C          -2.5522    0.8775   -0.2755 C.3     1  UNL1       -0.0069
     23 C          -2.5008    2.2178    0.4672 C.3     1  UNL1       -0.0555
     24 C          -1.1629    0.4055   -0.5563 C.3     1  UNL1       -0.0288
     25 C          -0.1881    1.5358   -0.6478 C.3     1  UNL1       -0.0485
     26 C           1.2420    1.1503   -0.7359 C.3     1  UNL1       -0.0430
     27 C           1.6110    0.0764    0.2566 C.3     1  UNL1        0.0179
     28 C           1.4367    0.6012    1.6394 C.3     1  UNL1       -0.0552
     29 H           5.2566    1.3634   -2.8048 H       1  UNL1        0.0342
     30 H           4.6261   -0.0245   -3.8438 H       1  UNL1        0.0342
     31 H           6.2629   -0.0723   -3.1237 H       1  UNL1        0.0342
     32 H           5.9731   -0.4728    1.3302 H       1  UNL1        0.0307
     33 H           5.2764    0.9337    0.3391 H       1  UNL1        0.0307
     34 H           5.1613    0.8853    2.1127 H       1  UNL1        0.0307
     35 H           2.5528   -2.3297   -1.1965 H       1  UNL1        0.0308
     36 H           3.4637   -2.6582    0.3644 H       1  UNL1        0.0308
     37 H           0.8795   -3.1686    0.1702 H       1  UNL1        0.0270
     38 H           1.4026   -2.1855    1.6239 H       1  UNL1        0.0270
     39 H           0.6518   -1.1600   -1.1761 H       1  UNL1        0.0310
     40 H          -0.5809   -0.1701    1.4127 H       1  UNL1        0.0307
     41 H          -2.1260   -1.9288   -0.4502 H       1  UNL1        0.0274
     42 H          -1.2805   -2.6446    1.0242 H       1  UNL1        0.0274
     43 H          -2.3284   -0.6491    2.2542 H       1  UNL1        0.0343
     44 H          -4.4990   -2.4536    1.0358 H       1  UNL1        0.0235
     45 H          -4.3814   -1.6570    2.6934 H       1  UNL1        0.0235
     46 H          -3.2957   -2.9905    2.2306 H       1  UNL1        0.0235
     47 H          -5.3097   -0.5540    1.1412 H       1  UNL1        0.0652
     48 H          -5.1966    1.4390   -2.3345 H       1  UNL1        0.0345
     49 H          -4.5782    2.8180   -1.4043 H       1  UNL1        0.0345
     50 H          -3.2546    0.2091   -2.2194 H       1  UNL1        0.0278
     51 H          -2.6368    1.8812   -2.1457 H       1  UNL1        0.0278
     52 H          -3.5463    2.4774    0.8089 H       1  UNL1        0.0238
     53 H          -1.9198    2.1398    1.4073 H       1  UNL1        0.0238
     54 H          -2.2033    3.0451   -0.1896 H       1  UNL1        0.0238
     55 H          -1.1486   -0.1033   -1.5666 H       1  UNL1        0.0312
     56 H          -0.3328    2.3178    0.1474 H       1  UNL1        0.0268
     57 H          -0.4364    2.0826   -1.6070 H       1  UNL1        0.0268
     58 H           1.8559    2.0499   -0.4682 H       1  UNL1        0.0272
     59 H           1.4588    0.8009   -1.7542 H       1  UNL1        0.0272
     60 H           1.2473   -0.1503    2.4122 H       1  UNL1        0.0237
     61 H           2.3795    1.1396    1.9182 H       1  UNL1        0.0237
     62 H           0.6596    1.4229    1.6812 H       1  UNL1        0.0237
@<TRIPOS>BOND
     1     1     2    1
     2     2     3    2
     3     2     4    1
     4     5     4    1
     5     5     6    1
     6     6     7    1
     7     6     8    2
     8     5     9    1
     9     9    10    1
    10    10    11    1
    11    11    12    1
    12    12    13    1
    13    13    14    1
    14    14    15    1
    15    14    16    1
    16    16    17    2
    17    17    18    1
    18    18    19    2
    19    18    20    1
    20    20    21    1
    21    21    22    1
    22    22    23    1
    23    22    24    1
    24    24    25    1
    25    25    26    1
    26    26    27    1
    27    27    28    1
    28    27     5    1
    29    27    11    1
    30    24    12    1
    31    22    16    1
    32     1    29    1
    33     1    30    1
    34     1    31    1
    35     7    32    1
    36     7    33    1
    37     7    34    1
    38     9    35    1
    39     9    36    1
    40    10    37    1
    41    10    38    1
    42    11    39    1
    43    12    40    1
    44    13    41    1
    45    13    42    1
    46    14    43    1
    47    15    44    1
    48    15    45    1
    49    15    46    1
    50    17    47    1
    51    20    48    1
    52    20    49    1
    53    21    50    1
    54    21    51    1
    55    23    52    1
    56    23    53    1
    57    23    54    1
    58    24    55    1
    59    25    56    1
    60    25    57    1
    61    26    58    1
    62    26    59    1
    63    28    60    1
    64    28    61    1
    65    28    62    1
