
     RDKit          3D

 55 54  0  0  0  0  0  0  0  0999 V2000
   -4.0181    4.1509   -1.1404 C   0  0  0  0  0  0  0  0  0  0  0  0
   -3.0252    3.0274   -1.5702 C   0  0  0  0  0  0  0  0  0  0  0  0
   -1.7930    3.8306   -1.9955 C   0  0  0  0  0  0  0  0  0  0  0  0
   -2.7243    2.2640   -0.3421 C   0  0  0  0  0  0  0  0  0  0  0  0
   -1.8282    1.0649   -0.4188 C   0  0  2  0  0  0  0  0  0  0  0  0
   -1.7837    0.6255    1.0144 N   0  0  0  0  0  0  0  0  0  0  0  0
   -2.3783   -0.6062    1.3603 C   0  0  0  0  0  0  0  0  0  0  0  0
   -3.0012   -1.5999    0.9048 O   0  0  0  0  0  0  0  0  0  0  0  0
   -2.4679   -1.2467    2.6705 C   0  0  1  0  0  0  0  0  0  0  0  0
   -3.1717   -2.4610    2.4872 O   0  0  0  0  0  0  0  0  0  0  0  0
   -1.1519   -1.6381    3.2841 C   0  0  0  0  0  0  0  0  0  0  0  0
   -0.4218   -2.6105    2.4056 C   0  0  0  0  0  0  0  0  0  0  0  0
    0.8130   -3.0651    2.8472 O   0  0  0  0  0  0  0  0  0  0  0  0
   -0.8291   -3.0587    1.2915 O   0  0  0  0  0  0  0  0  0  0  0  0
   -0.4869    1.2881   -0.9061 C   0  0  0  0  0  0  0  0  0  0  0  0
    0.0114    1.2329    0.2728 O   0  0  0  0  0  0  0  0  0  0  0  0
    0.2720    1.5020   -2.0695 N   0  0  0  0  0  0  0  0  0  0  0  0
    1.6829    1.6936   -2.0322 C   0  0  0  0  0  0  0  0  0  0  0  0
    2.4957    0.5883   -1.4627 C   0  0  0  0  0  0  0  0  0  0  0  0
    2.3905   -0.7298   -2.1492 C   0  0  0  0  0  0  0  0  0  0  0  0
    3.2703   -1.7677   -1.4847 C   0  0  0  0  0  0  0  0  0  0  0  0
    2.9210   -1.9831   -0.1006 N   0  0  0  0  0  0  0  0  0  0  0  0
    3.8037   -2.9754    0.4523 C   0  0  0  0  0  0  0  0  0  0  0  0
    3.7551   -3.4385    1.7921 N   0  0  0  0  0  0  0  0  0  0  0  0
    4.7241   -3.5332   -0.2282 N   0  0  0  0  0  4  0  0  0  0  0  0
   -3.9124    5.0193   -1.8117 H   0  0  0  0  0  0  0  0  0  0  0  0
   -5.0308    3.7528   -1.0393 H   0  0  0  0  0  0  0  0  0  0  0  0
   -3.6642    4.4884   -0.1488 H   0  0  0  0  0  0  0  0  0  0  0  0
   -3.4868    2.4715   -2.3773 H   0  0  0  0  0  0  0  0  0  0  0  0
   -1.4176    3.5435   -2.9909 H   0  0  0  0  0  0  0  0  0  0  0  0
   -1.0487    3.7456   -1.1824 H   0  0  0  0  0  0  0  0  0  0  0  0
   -2.0923    4.9142   -2.0849 H   0  0  0  0  0  0  0  0  0  0  0  0
   -3.7077    1.8634    0.0675 H   0  0  0  0  0  0  0  0  0  0  0  0
   -2.3656    2.9126    0.5000 H   0  0  0  0  0  0  0  0  0  0  0  0
   -2.3406    0.2569   -0.9802 H   0  0  0  0  0  0  0  0  0  0  0  0
   -1.3513    1.1427    1.8008 H   0  0  0  0  0  0  0  0  0  0  0  0
   -3.0295   -0.6880    3.4389 H   0  0  0  0  0  0  0  0  0  0  0  0
   -4.1459   -2.2423    2.3424 H   0  0  0  0  0  0  0  0  0  0  0  0
   -1.4130   -2.2397    4.1982 H   0  0  0  0  0  0  0  0  0  0  0  0
   -0.5285   -0.8078    3.6235 H   0  0  0  0  0  0  0  0  0  0  0  0
    1.1048   -3.9872    2.5206 H   0  0  0  0  0  0  0  0  0  0  0  0
   -0.4279    1.4574   -2.8411 H   0  0  0  0  0  0  0  0  0  0  0  0
    2.0270    1.8812   -3.0753 H   0  0  0  0  0  0  0  0  0  0  0  0
    1.9868    2.6247   -1.4812 H   0  0  0  0  0  0  0  0  0  0  0  0
    3.5741    0.9070   -1.5621 H   0  0  0  0  0  0  0  0  0  0  0  0
    2.3652    0.4654   -0.3600 H   0  0  0  0  0  0  0  0  0  0  0  0
    2.6450   -0.6561   -3.2049 H   0  0  0  0  0  0  0  0  0  0  0  0
    1.3258   -1.0765   -1.9988 H   0  0  0  0  0  0  0  0  0  0  0  0
    3.1470   -2.7391   -2.0414 H   0  0  0  0  0  0  0  0  0  0  0  0
    4.3414   -1.4861   -1.5519 H   0  0  0  0  0  0  0  0  0  0  0  0
    2.2200   -1.6190    0.5777 H   0  0  0  0  0  0  0  0  0  0  0  0
    4.1199   -2.8231    2.5739 H   0  0  0  0  0  0  0  0  0  0  0  0
    3.4898   -4.2036    2.4285 H   0  0  0  0  0  0  0  0  0  0  0  0
    5.1133   -3.5095   -1.2009 H   0  0  0  0  0  0  0  0  0  0  0  0
    5.4444   -3.9227   -0.8851 H   0  0  0  0  0  0  0  0  0  0  0  0
  1  2  1  0
  2  3  1  0
  2  4  1  0
  4  5  1  0
  5  6  1  0
  6  7  1  0
  7  8  2  0
  7  9  1  0
  9 10  1  0
  9 11  1  0
 11 12  1  0
 12 13  1  0
 12 14  2  0
  5 15  1  0
 15 16  2  0
 15 17  1  0
 17 18  1  0
 18 19  1  0
 19 20  1  0
 20 21  1  0
 21 22  1  0
 22 23  1  0
 23 24  1  0
 23 25  2  0
  1 26  1  0
  1 27  1  0
  1 28  1  0
  2 29  1  0
  3 30  1  0
  3 31  1  0
  3 32  1  0
  4 33  1  0
  4 34  1  0
  5 35  1  6
  6 36  1  0
  9 37  1  1
 10 38  1  0
 11 39  1  0
 11 40  1  0
 13 41  1  0
 17 42  1  0
 18 43  1  0
 18 44  1  0
 19 45  1  0
 19 46  1  0
 20 47  1  0
 20 48  1  0
 21 49  1  0
 21 50  1  0
 22 51  1  0
 24 52  1  0
 24 53  1  0
 25 54  1  0
 25 55  1  0
M  CHG  1  25   1
M  END
$$$$
