@<TRIPOS>MOLECULE
*****
 55 54 0 0 0
SMALL
GASTEIGER

@<TRIPOS>ATOM
      1 C          -4.0181    4.1509   -1.1404 C.3     1  UNL1       -0.0626
      2 C          -3.0252    3.0274   -1.5702 C.3     1  UNL1       -0.0446
      3 C          -1.7930    3.8306   -1.9955 C.3     1  UNL1       -0.0626
      4 C          -2.7243    2.2640   -0.3421 C.3     1  UNL1       -0.0236
      5 C          -1.8282    1.0649   -0.4188 C.3     1  UNL1        0.0997
      6 N          -1.7837    0.6255    1.0144 N.am    1  UNL1       -0.3019
      7 C          -2.3783   -0.6062    1.3603 C.2     1  UNL1        0.2428
      8 O          -3.0012   -1.5999    0.9048 O.2     1  UNL1       -0.2729
      9 C          -2.4679   -1.2467    2.6705 C.3     1  UNL1        0.1409
     10 O          -3.1717   -2.4610    2.4872 O.3     1  UNL1       -0.3820
     11 C          -1.1519   -1.6381    3.2841 C.3     1  UNL1        0.0792
     12 C          -0.4218   -2.6105    2.4056 C.2     1  UNL1        0.3077
     13 O           0.8130   -3.0651    2.8472 O.3     1  UNL1       -0.4805
     14 O          -0.8291   -3.0587    1.2915 O.2     1  UNL1       -0.2509
     15 C          -0.4869    1.2881   -0.9061 C.2     1  UNL1        0.2334
     16 O           0.0114    1.2329    0.2728 O.2     1  UNL1       -0.2738
     17 N           0.2720    1.5020   -2.0695 N.am    1  UNL1       -0.3138
     18 C           1.6829    1.6936   -2.0322 C.3     1  UNL1        0.0117
     19 C           2.4957    0.5883   -1.4627 C.3     1  UNL1       -0.0345
     20 C           2.3905   -0.7298   -2.1492 C.3     1  UNL1       -0.0208
     21 C           3.2703   -1.7677   -1.4847 C.3     1  UNL1        0.0646
     22 N           2.9210   -1.9831   -0.1006 N.pl3   1  UNL1       -0.2787
     23 C           3.8037   -2.9754    0.4523 C.cat   1  UNL1        0.3410
     24 N           3.7551   -3.4385    1.7921 N.pl3   1  UNL1       -0.2919
     25 N           4.7241   -3.5332   -0.2282 N.pl3   1  UNL1       -0.2919
     26 H          -3.9124    5.0193   -1.8117 H       1  UNL1        0.0232
     27 H          -5.0308    3.7528   -1.0393 H       1  UNL1        0.0232
     28 H          -3.6642    4.4884   -0.1488 H       1  UNL1        0.0232
     29 H          -3.4868    2.4715   -2.3773 H       1  UNL1        0.0296
     30 H          -1.4176    3.5435   -2.9909 H       1  UNL1        0.0232
     31 H          -1.0487    3.7456   -1.1824 H       1  UNL1        0.0232
     32 H          -2.0923    4.9142   -2.0849 H       1  UNL1        0.0232
     33 H          -3.7077    1.8634    0.0675 H       1  UNL1        0.0290
     34 H          -2.3656    2.9126    0.5000 H       1  UNL1        0.0290
     35 H          -2.3406    0.2569   -0.9802 H       1  UNL1        0.0594
     36 H          -1.3513    1.1427    1.8008 H       1  UNL1        0.1495
     37 H          -3.0295   -0.6880    3.4389 H       1  UNL1        0.0696
     38 H          -4.1459   -2.2423    2.3424 H       1  UNL1        0.2104
     39 H          -1.4130   -2.2397    4.1982 H       1  UNL1        0.0408
     40 H          -0.5285   -0.8078    3.6235 H       1  UNL1        0.0408
     41 H           1.1048   -3.9872    2.5206 H       1  UNL1        0.2951
     42 H          -0.4279    1.4574   -2.8411 H       1  UNL1        0.1487
     43 H           2.0270    1.8812   -3.0753 H       1  UNL1        0.0462
     44 H           1.9868    2.6247   -1.4812 H       1  UNL1        0.0462
     45 H           3.5741    0.9070   -1.5621 H       1  UNL1        0.0281
     46 H           2.3652    0.4654   -0.3600 H       1  UNL1        0.0281
     47 H           2.6450   -0.6561   -3.2049 H       1  UNL1        0.0296
     48 H           1.3258   -1.0765   -1.9988 H       1  UNL1        0.0296
     49 H           3.1470   -2.7391   -2.0414 H       1  UNL1        0.0655
     50 H           4.3414   -1.4861   -1.5519 H       1  UNL1        0.0655
     51 H           2.2200   -1.6190    0.5777 H       1  UNL1        0.2578
     52 H           4.1199   -2.8231    2.5739 H       1  UNL1        0.2545
     53 H           3.4898   -4.2036    2.4285 H       1  UNL1        0.2545
     54 H           5.1133   -3.5095   -1.2009 H       1  UNL1        0.2545
     55 H           5.4444   -3.9227   -0.8851 H       1  UNL1        0.2545
@<TRIPOS>UNITY_ATOM_ATTR
25 1
charge 1
@<TRIPOS>BOND
     1     1     2    1
     2     2     3    1
     3     2     4    1
     4     4     5    1
     5     5     6    1
     6     6     7   am
     7     7     8    2
     8     7     9    1
     9     9    10    1
    10     9    11    1
    11    11    12    1
    12    12    13    1
    13    12    14    2
    14     5    15    1
    15    15    16    2
    16    15    17   am
    17    17    18    1
    18    18    19    1
    19    19    20    1
    20    20    21    1
    21    21    22    1
    22    22    23    1
    23    23    24    1
    24    23    25    2
    25     1    26    1
    26     1    27    1
    27     1    28    1
    28     2    29    1
    29     3    30    1
    30     3    31    1
    31     3    32    1
    32     4    33    1
    33     4    34    1
    34     5    35    1
    35     6    36    1
    36     9    37    1
    37    10    38    1
    38    11    39    1
    39    11    40    1
    40    13    41    1
    41    17    42    1
    42    18    43    1
    43    18    44    1
    44    19    45    1
    45    19    46    1
    46    20    47    1
    47    20    48    1
    48    21    49    1
    49    21    50    1
    50    22    51    1
    51    24    52    1
    52    24    53    1
    53    25    54    1
    54    25    55    1
