
     RDKit          3D

 28 29  0  0  0  0  0  0  0  0999 V2000
    4.0358    1.1817    0.9836 C   0  0  0  0  0  0  0  0  0  0  0  0
    3.9503   -0.1403    0.3341 C   0  0  0  0  0  0  0  0  0  0  0  0
    5.0350   -0.8063   -0.0489 O   0  0  0  0  0  0  0  0  0  0  0  0
    4.7146   -1.9354   -0.5903 N   0  0  0  0  0  0  0  0  0  0  0  0
    3.3807   -2.0526   -0.5806 C   0  0  0  0  0  0  0  0  0  0  0  0
    2.8794   -0.9204    0.0028 C   0  0  0  0  0  0  0  0  0  0  0  0
    1.4783   -0.5999    0.2353 C   0  0  0  0  0  0  0  0  0  0  0  0
    1.0768   -0.5110    1.4140 O   0  0  0  0  0  0  0  0  0  0  0  0
    0.5594   -0.3887   -0.8272 N   0  0  0  0  0  0  0  0  0  0  0  0
   -0.8022   -0.0895   -0.5585 C   0  0  0  0  0  0  0  0  0  0  0  0
   -1.2808    1.1863   -0.3681 C   0  0  0  0  0  0  0  0  0  0  0  0
   -2.6206    1.4496   -0.1227 C   0  0  0  0  0  0  0  0  0  0  0  0
   -3.5463    0.4252   -0.0585 C   0  0  0  0  0  0  0  0  0  0  0  0
   -4.9884    0.6975    0.2007 C   0  0  0  0  0  0  0  0  0  0  0  0
   -5.5370   -0.0982    1.1623 F   0  0  0  0  0  0  0  0  0  0  0  0
   -5.6465    0.4419   -0.9911 F   0  0  0  0  0  0  0  0  0  0  0  0
   -5.1514    2.0327    0.4979 F   0  0  0  0  0  0  0  0  0  0  0  0
   -3.0660   -0.8506   -0.2495 C   0  0  0  0  0  0  0  0  0  0  0  0
   -1.7442   -1.1201   -0.4923 C   0  0  0  0  0  0  0  0  0  0  0  0
    5.1003    1.4206    1.2709 H   0  0  0  0  0  0  0  0  0  0  0  0
    3.7834    1.9806    0.2288 H   0  0  0  0  0  0  0  0  0  0  0  0
    3.3810    1.3271    1.8423 H   0  0  0  0  0  0  0  0  0  0  0  0
    2.8111   -2.8763   -0.9577 H   0  0  0  0  0  0  0  0  0  0  0  0
    0.9274   -0.4607   -1.8266 H   0  0  0  0  0  0  0  0  0  0  0  0
   -0.5504    2.0096   -0.4195 H   0  0  0  0  0  0  0  0  0  0  0  0
   -2.9796    2.4768    0.0276 H   0  0  0  0  0  0  0  0  0  0  0  0
   -3.7945   -1.6552   -0.1958 H   0  0  0  0  0  0  0  0  0  0  0  0
   -1.4056   -2.1245   -0.6369 H   0  0  0  0  0  0  0  0  0  0  0  0
  1  2  1  0
  2  3  1  0
  3  4  1  0
  4  5  2  0
  5  6  1  0
  6  7  1  0
  7  8  2  0
  7  9  1  0
  9 10  1  0
 10 11  2  0
 11 12  1  0
 12 13  2  0
 13 14  1  0
 14 15  1  0
 14 16  1  0
 14 17  1  0
 13 18  1  0
 18 19  2  0
  6  2  2  0
 19 10  1  0
  1 20  1  0
  1 21  1  0
  1 22  1  0
  5 23  1  0
  9 24  1  0
 11 25  1  0
 12 26  1  0
 18 27  1  0
 19 28  1  0
M  END
$$$$
