@<TRIPOS>MOLECULE
*****
 28 29 0 0 0
SMALL
GASTEIGER

@<TRIPOS>ATOM
      1 C           4.0358    1.1817    0.9836 C.3     1  UNL1       -0.0029
      2 C           3.9503   -0.1403    0.3341 C.ar    1  UNL1        0.1463
      3 O           5.0350   -0.8063   -0.0489 O.2     1  UNL1       -0.3592
      4 N           4.7146   -1.9354   -0.5903 N.ar    1  UNL1       -0.0857
      5 C           3.3807   -2.0526   -0.5806 C.ar    1  UNL1        0.0825
      6 C           2.8794   -0.9204    0.0028 C.ar    1  UNL1        0.0984
      7 C           1.4783   -0.5999    0.2353 C.2     1  UNL1        0.2531
      8 O           1.0768   -0.5110    1.4140 O.2     1  UNL1       -0.2697
      9 N           0.5594   -0.3887   -0.8272 N.am    1  UNL1       -0.2814
     10 C          -0.8022   -0.0895   -0.5585 C.ar    1  UNL1        0.0337
     11 C          -1.2808    1.1863   -0.3681 C.ar    1  UNL1       -0.0399
     12 C          -2.6206    1.4496   -0.1227 C.ar    1  UNL1       -0.0484
     13 C          -3.5463    0.4252   -0.0585 C.ar    1  UNL1        0.0549
     14 C          -4.9884    0.6975    0.2007 C.3     1  UNL1        0.4174
     15 F          -5.5370   -0.0982    1.1623 F       1  UNL1       -0.1659
     16 F          -5.6465    0.4419   -0.9911 F       1  UNL1       -0.1659
     17 F          -5.1514    2.0327    0.4979 F       1  UNL1       -0.1659
     18 C          -3.0660   -0.8506   -0.2495 C.ar    1  UNL1       -0.0484
     19 C          -1.7442   -1.1201   -0.4923 C.ar    1  UNL1       -0.0399
     20 H           5.1003    1.4206    1.2709 H       1  UNL1        0.0309
     21 H           3.7834    1.9806    0.2288 H       1  UNL1        0.0309
     22 H           3.3810    1.3271    1.8423 H       1  UNL1        0.0309
     23 H           2.8111   -2.8763   -0.9577 H       1  UNL1        0.0872
     24 H           0.9274   -0.4607   -1.8266 H       1  UNL1        0.1551
     25 H          -0.5504    2.0096   -0.4195 H       1  UNL1        0.0636
     26 H          -2.9796    2.4768    0.0276 H       1  UNL1        0.0624
     27 H          -3.7945   -1.6552   -0.1958 H       1  UNL1        0.0624
     28 H          -1.4056   -2.1245   -0.6369 H       1  UNL1        0.0636
@<TRIPOS>BOND
     1     1     2    1
     2     2     3   ar
     3     3     4   ar
     4     4     5   ar
     5     5     6   ar
     6     6     7    1
     7     7     8    2
     8     7     9   am
     9     9    10    1
    10    10    11   ar
    11    11    12   ar
    12    12    13   ar
    13    13    14    1
    14    14    15    1
    15    14    16    1
    16    14    17    1
    17    13    18   ar
    18    18    19   ar
    19     6     2   ar
    20    19    10   ar
    21     1    20    1
    22     1    21    1
    23     1    22    1
    24     5    23    1
    25     9    24    1
    26    11    25    1
    27    12    26    1
    28    18    27    1
    29    19    28    1
