@<TRIPOS>MOLECULE
*****
 43 47 0 0 0
SMALL
GASTEIGER

@<TRIPOS>ATOM
      1 O          -1.1361   -3.9615    0.8796 O.2     1  UNL1       -0.2656
      2 C          -0.6185   -2.8365    0.6467 C.ar    1  UNL1        0.2748
      3 N           0.7044   -2.6078    0.6980 N.ar    1  UNL1       -0.3203
      4 C           1.2604   -1.4027    0.4488 C.ar    1  UNL1        0.0519
      5 C           2.6272   -1.1799    0.5024 C.ar    1  UNL1       -0.0299
      6 C           3.1924    0.0720    0.2399 C.ar    1  UNL1       -0.0159
      7 C           4.6368    0.2492    0.3079 C.ar    1  UNL1       -0.0178
      8 C           5.1911    1.4538    0.6831 C.ar    1  UNL1       -0.0540
      9 C           6.5758    1.6314    0.7501 C.ar    1  UNL1       -0.0612
     10 C           7.4145    0.5901    0.4376 C.ar    1  UNL1       -0.0617
     11 C           6.8830   -0.6221    0.0599 C.ar    1  UNL1       -0.0612
     12 C           5.5107   -0.7644    0.0036 C.ar    1  UNL1       -0.0540
     13 C           2.3210    1.0874   -0.0784 C.ar    1  UNL1       -0.0533
     14 C           0.9396    0.8779   -0.1369 C.ar    1  UNL1       -0.0499
     15 C           0.4140   -0.3628    0.1259 C.ar    1  UNL1        0.0260
     16 C          -0.9599   -0.5362    0.0575 C.ar    1  UNL1        0.1039
     17 N          -1.9903    0.2593   -0.2213 N.ar    1  UNL1       -0.2266
     18 C          -3.1745   -0.4148   -0.1528 C.ar    1  UNL1        0.1474
     19 C          -4.4865    0.1196   -0.4820 C.ar    1  UNL1        0.1124
     20 C          -5.5246   -0.7012   -0.8364 C.ar    1  UNL1        0.0581
     21 CL         -5.2895   -2.4245   -0.9701 Cl      1  UNL1       -0.0826
     22 C          -6.8109   -0.2265   -1.1437 C.ar    1  UNL1       -0.0423
     23 C          -7.0654    1.1120   -1.0975 C.ar    1  UNL1       -0.0539
     24 C          -6.0556    1.9631   -0.7495 C.ar    1  UNL1        0.0164
     25 C          -4.7689    1.4633   -0.4415 C.ar    1  UNL1        0.2851
     26 N          -3.8375    2.4532   -0.0940 N.pl3   1  UNL1        0.0804
     27 O          -3.9137    3.6165   -0.6071 O.2     1  UNL1        0.0415
     28 O          -2.8059    2.2726    0.7813 O.co2   1  UNL1       -0.5760
     29 N          -2.8182   -1.6534    0.1801 N.ar    1  UNL1       -0.3334
     30 C          -1.4756   -1.7908    0.3226 C.ar    1  UNL1        0.1322
     31 H           1.3573   -3.3922    0.9457 H       1  UNL1        0.1690
     32 H           3.3003   -1.9834    0.7540 H       1  UNL1        0.0644
     33 H           4.5938    2.3105    0.9424 H       1  UNL1        0.0624
     34 H           7.0047    2.5899    1.0487 H       1  UNL1        0.0618
     35 H           8.4949    0.6577    0.4701 H       1  UNL1        0.0618
     36 H           7.5463   -1.4396   -0.1865 H       1  UNL1        0.0618
     37 H           5.1313   -1.7319   -0.2986 H       1  UNL1        0.0624
     38 H           2.7134    2.0822   -0.2914 H       1  UNL1        0.0624
     39 H           0.2621    1.6769   -0.3831 H       1  UNL1        0.0625
     40 H          -7.5757   -0.9341   -1.4144 H       1  UNL1        0.0632
     41 H          -8.0647    1.5089   -1.3382 H       1  UNL1        0.0620
     42 H          -6.2703    3.0224   -0.7178 H       1  UNL1        0.0685
     43 H          -3.4323   -2.4861    0.3554 H       1  UNL1        0.1675
@<TRIPOS>UNITY_ATOM_ATTR
26 1
charge 1
28 1
charge -1
@<TRIPOS>BOND
     1     1     2    2
     2     2     3   ar
     3     3     4   ar
     4     4     5   ar
     5     5     6   ar
     6     6     7    1
     7     7     8   ar
     8     8     9   ar
     9     9    10   ar
    10    10    11   ar
    11    11    12   ar
    12     6    13   ar
    13    13    14   ar
    14    14    15   ar
    15    15    16   ar
    16    16    17   ar
    17    17    18   ar
    18    18    19    1
    19    19    20   ar
    20    20    21    1
    21    20    22   ar
    22    22    23   ar
    23    23    24   ar
    24    24    25   ar
    25    25    26    1
    26    26    27    2
    27    26    28    1
    28    18    29   ar
    29    29    30   ar
    30    30     2   ar
    31    15     4   ar
    32    30    16   ar
    33    12     7   ar
    34    25    19   ar
    35     3    31    1
    36     5    32    1
    37     8    33    1
    38     9    34    1
    39    10    35    1
    40    11    36    1
    41    12    37    1
    42    13    38    1
    43    14    39    1
    44    22    40    1
    45    23    41    1
    46    24    42    1
    47    29    43    1
