@<TRIPOS>MOLECULE
*****
 43 47 0 0 0
SMALL
GASTEIGER

@<TRIPOS>ATOM
      1 C           0.3252    1.9021    1.0051 C.3     1  UNL1        0.1399
      2 O           1.6017    1.3781    1.4564 O.3     1  UNL1       -0.4811
      3 C           1.7968    0.1941    0.7098 C.ar    1  UNL1        0.1666
      4 C           2.8613   -0.6302    0.3278 C.ar    1  UNL1        0.1618
      5 O           4.1210   -0.2504    0.7674 O.3     1  UNL1       -0.4914
      6 C           5.2938   -0.9617    0.4760 C.3     1  UNL1        0.0790
      7 C           2.6192   -1.7655   -0.4557 C.ar    1  UNL1       -0.0160
      8 C           1.3204   -2.0925   -0.8668 C.ar    1  UNL1       -0.0546
      9 C           0.2198   -1.3102   -0.5176 C.ar    1  UNL1       -0.0383
     10 C           0.5814   -0.2464    0.2379 C.ar    1  UNL1        0.0116
     11 C          -0.4865    0.6752    0.7021 C.3     1  UNL1        0.0480
     12 C          -1.1213    0.1072    1.9185 C.3     1  UNL1       -0.0263
     13 C          -2.4737   -0.4535    1.7917 C.3     1  UNL1       -0.0001
     14 N          -2.8399   -1.0122    0.5392 N.3     1  UNL1       -0.3015
     15 C          -4.2518   -0.9520    0.3053 C.3     1  UNL1       -0.0124
     16 C          -2.0876   -0.5704   -0.5922 C.3     1  UNL1        0.0213
     17 C          -1.1382   -1.6695   -0.9778 C.3     1  UNL1       -0.0110
     18 C          -1.4911    0.7727   -0.3755 C.3     1  UNL1        0.0064
     19 C          -0.9317    1.4077   -1.5707 C.2     1  UNL1       -0.0799
     20 C          -0.0252    2.3941   -1.4072 C.2     1  UNL1       -0.0559
     21 C           0.4519    2.8885   -0.0882 C.3     1  UNL1        0.1110
     22 O           1.8027    3.2310   -0.2882 O.3     1  UNL1       -0.3841
     23 H          -0.1057    2.3895    1.9000 H       1  UNL1        0.0772
     24 H           6.1740   -0.3458    0.7132 H       1  UNL1        0.0660
     25 H           5.3286   -1.9563    0.9601 H       1  UNL1        0.0660
     26 H           5.3205   -1.1661   -0.6174 H       1  UNL1        0.0660
     27 H           3.4881   -2.3806   -0.7294 H       1  UNL1        0.0655
     28 H           1.2270   -2.9862   -1.4693 H       1  UNL1        0.0622
     29 H          -1.1376    0.9488    2.6769 H       1  UNL1        0.0287
     30 H          -0.3898   -0.6147    2.3881 H       1  UNL1        0.0287
     31 H          -3.2537    0.2864    2.0769 H       1  UNL1        0.0427
     32 H          -2.5692   -1.2715    2.5579 H       1  UNL1        0.0427
     33 H          -4.6830    0.0688    0.3032 H       1  UNL1        0.0391
     34 H          -4.7811   -1.5615    1.0655 H       1  UNL1        0.0391
     35 H          -4.4776   -1.4219   -0.6876 H       1  UNL1        0.0391
     36 H          -2.8145   -0.4528   -1.4540 H       1  UNL1        0.0472
     37 H          -1.1051   -1.7256   -2.0921 H       1  UNL1        0.0329
     38 H          -1.4867   -2.6303   -0.5389 H       1  UNL1        0.0329
     39 H          -2.3243    1.4185    0.0041 H       1  UNL1        0.0368
     40 H          -1.2445    1.0857   -2.5400 H       1  UNL1        0.0573
     41 H           0.3522    2.8250   -2.3367 H       1  UNL1        0.0596
     42 H          -0.0456    3.8489    0.1813 H       1  UNL1        0.0675
     43 H           2.3801    2.6057    0.1853 H       1  UNL1        0.2104
@<TRIPOS>BOND
     1     1     2    1
     2     2     3    1
     3     3     4   ar
     4     4     5    1
     5     5     6    1
     6     4     7   ar
     7     7     8   ar
     8     8     9   ar
     9     9    10   ar
    10    10    11    1
    11    11    12    1
    12    12    13    1
    13    13    14    1
    14    14    15    1
    15    14    16    1
    16    16    17    1
    17    16    18    1
    18    18    19    1
    19    19    20    2
    20    20    21    1
    21    21    22    1
    22    11     1    1
    23    18    11    1
    24    21     1    1
    25    10     3   ar
    26    17     9    1
    27     1    23    1
    28     6    24    1
    29     6    25    1
    30     6    26    1
    31     7    27    1
    32     8    28    1
    33    12    29    1
    34    12    30    1
    35    13    31    1
    36    13    32    1
    37    15    33    1
    38    15    34    1
    39    15    35    1
    40    16    36    1
    41    17    37    1
    42    17    38    1
    43    18    39    1
    44    19    40    1
    45    20    41    1
    46    21    42    1
    47    22    43    1
