@<TRIPOS>MOLECULE
*****
 27 28 0 0 0
SMALL
GASTEIGER

@<TRIPOS>ATOM
      1 N           4.1729   -1.4677    1.2991 N.pl3   1  UNL1       -0.3580
      2 C           3.1204   -0.6390    0.8243 C.ar    1  UNL1        0.0247
      3 C           2.0459   -0.3258    1.6206 C.ar    1  UNL1       -0.0392
      4 C           1.0217    0.4779    1.1651 C.ar    1  UNL1       -0.0333
      5 C           1.0452    0.9962   -0.1150 C.ar    1  UNL1        0.1087
      6 C           2.1275    0.6753   -0.9041 C.ar    1  UNL1       -0.0333
      7 C           3.1589   -0.1286   -0.4585 C.ar    1  UNL1       -0.0392
      8 S          -0.1256    2.0103   -0.8660 S.O2    1  UNL1        0.0746
      9 O           0.5303    2.9760   -1.8241 O.2     1  UNL1       -0.1499
     10 O          -0.7408    2.8605    0.2385 O.2     1  UNL1       -0.1499
     11 N          -1.3655    1.1966   -1.7060 N.pl3   1  UNL1       -0.1836
     12 C          -2.2475    0.3167   -1.0150 C.ar    1  UNL1        0.2347
     13 N          -2.1496    0.0876    0.3067 N.ar    1  UNL1       -0.2217
     14 C          -2.9593   -0.7338    0.9994 C.ar    1  UNL1        0.0327
     15 C          -3.9658   -1.3966    0.3264 C.ar    1  UNL1       -0.0253
     16 C          -4.0963   -1.1852   -1.0338 C.ar    1  UNL1        0.0327
     17 N          -3.2396   -0.3470   -1.6344 N.ar    1  UNL1       -0.2217
     18 H           4.1240   -1.8404    2.2758 H       1  UNL1        0.1423
     19 H           4.9737   -1.6920    0.6737 H       1  UNL1        0.1423
     20 H           1.9903   -0.7122    2.6300 H       1  UNL1        0.0636
     21 H           0.1536    0.7556    1.7498 H       1  UNL1        0.0638
     22 H           2.2743    1.0133   -1.9285 H       1  UNL1        0.0638
     23 H           4.0251   -0.4007   -1.0535 H       1  UNL1        0.0636
     24 H          -1.5215    1.3097   -2.7338 H       1  UNL1        0.1767
     25 H          -2.8506   -0.8941    2.0648 H       1  UNL1        0.0831
     26 H          -4.6640   -2.0731    0.7874 H       1  UNL1        0.0648
     27 H          -4.8377   -1.6362   -1.6886 H       1  UNL1        0.0831
@<TRIPOS>BOND
     1     1     2    1
     2     2     3   ar
     3     3     4   ar
     4     4     5   ar
     5     5     6   ar
     6     6     7   ar
     7     5     8    1
     8     8     9    2
     9     8    10    2
    10     8    11    1
    11    11    12    1
    12    12    13   ar
    13    13    14   ar
    14    14    15   ar
    15    15    16   ar
    16    16    17   ar
    17     7     2   ar
    18    17    12   ar
    19     1    18    1
    20     1    19    1
    21     3    20    1
    22     4    21    1
    23     6    22    1
    24     7    23    1
    25    11    24    1
    26    14    25    1
    27    15    26    1
    28    16    27    1
