@<TRIPOS>MOLECULE
*****
 55 57 0 0 0
SMALL
GASTEIGER

@<TRIPOS>ATOM
      1 C           2.2201   -1.3194   -1.5762 C.3     0  UNK0        0.0011
      2 N           1.8651    0.0862   -1.4712 N.pl3   0  UNK0       -0.3271
      3 C           2.8744    1.0413   -1.7998 C.3     0  UNK0        0.0555
      4 C           4.0113    0.8437   -0.8586 C.ar    0  UNK0        0.0774
      5 C           4.0386    1.5427    0.3398 C.ar    0  UNK0        0.0528
      6 N           5.0473    1.3967    1.2237 N.ar    0  UNK0       -0.2324
      7 C           6.0750    0.5618    0.9776 C.ar    0  UNK0        0.1851
      8 N           7.0950    0.3893    1.8278 N.ar    0  UNK0       -0.1932
      9 C           8.1356   -0.4514    1.5838 C.ar    0  UNK0        0.2163
     10 N           9.1987   -0.6027    2.5131 N.pl3   0  UNK0       -0.3274
     11 N           8.1054   -1.1270    0.4211 N.ar    0  UNK0       -0.1978
     12 C           7.1058   -0.9895   -0.4647 C.ar    0  UNK0        0.1491
     13 N           7.0799   -1.7120   -1.7012 N.pl3   0  UNK0       -0.3413
     14 C           6.0389   -0.1276   -0.2151 C.ar    0  UNK0        0.1477
     15 N           5.0387    0.0106   -1.1021 N.ar    0  UNK0       -0.2419
     16 C           0.5509    0.4147   -1.0517 C.ar    0  UNK0        0.0298
     17 C           0.1145    1.7107   -0.9141 C.ar    0  UNK0       -0.0399
     18 C          -1.1588    2.0027   -0.5084 C.ar    0  UNK0       -0.0479
     19 C          -2.0829    1.0184   -0.2125 C.ar    0  UNK0        0.0368
     20 C          -3.4378    1.3794    0.2203 C.2     0  UNK0        0.2447
     21 O          -3.7042    2.6073    0.3213 O.2     0  UNK0       -0.2702
     22 N          -4.4317    0.4325    0.5210 N.am    1  GLU1       -0.2983
     23 CA         -5.7513    0.8373    0.9435 C.3     1  GLU1        0.1209
     24 CB         -6.7817    0.5887   -0.1059 C.3     1  GLU1       -0.0140
     25 CG         -6.9615   -0.7738   -0.6194 C.3     1  GLU1        0.0470
     26 CD         -7.3526   -1.8587    0.2382 C.2     1  GLU1        0.3048
     27 OE1        -7.4237   -3.0288   -0.2869 O.2     1  GLU1       -0.2510
     28 OE2        -7.6627   -1.7879    1.5652 O.3     1  GLU1       -0.4806
     29 C          -6.0639    0.3883    2.3014 C.2     1  GLU1        0.3253
     30 O          -5.2946   -0.3720    2.9356 O.2     1  GLU1       -0.2489
     31 OXT        -7.2309    0.7996    2.9345 O.3     1  GLU1       -0.4793
     32 C          -1.6494   -0.2800   -0.3493 C.ar    0  UNK0       -0.0479
     33 C          -0.3780   -0.5886   -0.7545 C.ar    0  UNK0       -0.0399
     34 H           3.2752   -1.4747   -1.8615 H       0  UNK0        0.0428
     35 H           2.1419   -1.7160   -0.5223 H       0  UNK0        0.0428
     36 H           1.5500   -1.8764   -2.2617 H       0  UNK0        0.0428
     37 H           2.5684    2.0759   -1.9032 H       0  UNK0        0.0529
     38 H           3.2667    0.7481   -2.8218 H       0  UNK0        0.0529
     39 H           3.2139    2.2220    0.5540 H       0  UNK0        0.0849
     40 H           9.3534   -1.5372    2.9362 H       0  UNK0        0.1452
     41 H           9.8293    0.1731    2.7913 H       0  UNK0        0.1452
     42 H           6.8344   -1.3081   -2.6098 H       0  UNK0        0.1438
     43 H           7.3331   -2.7220   -1.6483 H       0  UNK0        0.1438
     44 H           0.7737    2.5292   -1.1248 H       0  UNK0        0.0636
     45 H          -1.4736    3.0475   -0.4094 H       0  UNK0        0.0626
     46 H          -4.2259   -0.5859    0.4412 H       1  GLU1        0.1498
     47 HA         -5.6850    1.9970    0.9667 H       1  GLU1        0.0614
     48 HB1        -7.7923    0.9744    0.2152 H       1  GLU1        0.0294
     49 HB2        -6.5436    1.2496   -0.9954 H       1  GLU1        0.0294
     50 HG1        -7.7798   -0.6958   -1.4222 H       1  GLU1        0.0378
     51 HG2        -6.0756   -1.0909   -1.2854 H       1  GLU1        0.0378
     52 HE2        -7.7883   -2.6306    2.1087 H       1  GLU1        0.2951
     53 HXT        -7.5996    0.3016    3.7312 H       1  GLU1        0.2951
     54 H          -2.3478   -1.0934   -0.1256 H       0  UNK0        0.0626
     55 H          -0.0579   -1.6199   -0.8560 H       0  UNK0        0.0636
@<TRIPOS>BOND
     1     1     2    1
     2     2     3    1
     3     3     4    1
     4     4     5   ar
     5     5     6   ar
     6     6     7   ar
     7     7     8   ar
     8     8     9   ar
     9     9    10    1
    10     9    11   ar
    11    11    12   ar
    12    12    13    1
    13    12    14   ar
    14    14    15   ar
    15     2    16    1
    16    16    17   ar
    17    17    18   ar
    18    18    19   ar
    19    19    20    1
    20    20    21    2
    21    20    22   am
    22    22    23    1
    23    23    24    1
    24    24    25    1
    25    25    26    1
    26    26    27    2
    27    26    28    1
    28    23    29    1
    29    29    30    2
    30    29    31    1
    31    19    32   ar
    32    32    33   ar
    33    15     4   ar
    34    33    16   ar
    35    14     7   ar
    36     1    34    1
    37     1    35    1
    38     1    36    1
    39     3    37    1
    40     3    38    1
    41     5    39    1
    42    10    40    1
    43    10    41    1
    44    13    42    1
    45    13    43    1
    46    17    44    1
    47    18    45    1
    48    22    46    1
    49    23    47    1
    50    24    48    1
    51    24    49    1
    52    25    50    1
    53    25    51    1
    54    28    52    1
    55    31    53    1
    56    32    54    1
    57    33    55    1
