
     RDKit          3D

 39 42  0  0  0  0  0  0  0  0999 V2000
   -2.3222    1.1843   -2.8990 C   0  0  0  0  0  0  0  0  0  0  0  0
   -1.5591    2.1527   -2.0662 C   0  0  0  0  0  0  0  0  0  0  0  0
   -0.1825    1.7828   -1.8748 N   0  0  0  0  0  0  0  0  0  0  0  0
    0.8518    2.1212   -2.6522 C   0  0  0  0  0  0  0  0  0  0  0  0
    1.9998    1.5847   -2.1458 N   0  0  0  0  0  0  0  0  0  0  0  0
    1.6829    0.8981   -1.0333 C   0  0  0  0  0  0  0  0  0  0  0  0
    2.5531    0.1499   -0.1372 C   0  0  0  0  0  0  0  0  0  0  0  0
    3.5718    0.7618    0.5614 C   0  0  0  0  0  0  0  0  0  0  0  0
    4.4065    0.0600    1.4169 C   0  0  0  0  0  0  0  0  0  0  0  0
    4.2134   -1.3122    1.5801 C   0  0  0  0  0  0  0  0  0  0  0  0
    5.0260   -2.0051    2.4162 F   0  0  0  0  0  0  0  0  0  0  0  0
    3.2052   -1.9590    0.8987 C   0  0  0  0  0  0  0  0  0  0  0  0
    2.4079   -1.2067    0.0622 C   0  0  0  0  0  0  0  0  0  0  0  0
    0.3043    1.0362   -0.8815 C   0  0  0  0  0  0  0  0  0  0  0  0
   -0.4459    0.4507    0.1999 C   0  0  0  0  0  0  0  0  0  0  0  0
   -0.2586    0.8751    1.5068 C   0  0  0  0  0  0  0  0  0  0  0  0
   -0.9622    0.3269    2.5618 C   0  0  0  0  0  0  0  0  0  0  0  0
   -1.8803   -0.6690    2.3390 C   0  0  0  0  0  0  0  0  0  0  0  0
   -2.6914   -1.3693    3.1663 N   0  0  0  0  0  0  0  0  0  0  0  0
   -3.3679   -2.2124    2.3810 C   0  0  0  0  0  0  0  0  0  0  0  0
   -2.9981   -2.0569    1.0694 C   0  0  0  0  0  0  0  0  0  0  0  0
   -3.4724   -2.7537   -0.0894 C   0  0  0  0  0  0  0  0  0  0  0  0
   -3.8708   -3.3306   -1.0205 N   0  0  0  0  0  0  0  0  0  0  0  0
   -2.0649   -1.0861    1.0590 N   0  0  0  0  0  0  0  0  0  0  0  0
   -1.3850   -0.5590    0.0249 C   0  0  0  0  0  0  0  0  0  0  0  0
   -1.6426    0.5554   -3.5178 H   0  0  0  0  0  0  0  0  0  0  0  0
   -2.9458    0.5506   -2.2406 H   0  0  0  0  0  0  0  0  0  0  0  0
   -3.0100    1.7778   -3.5660 H   0  0  0  0  0  0  0  0  0  0  0  0
   -2.0852    2.2614   -1.0698 H   0  0  0  0  0  0  0  0  0  0  0  0
   -1.5976    3.1708   -2.5129 H   0  0  0  0  0  0  0  0  0  0  0  0
    0.8604    2.7163   -3.5482 H   0  0  0  0  0  0  0  0  0  0  0  0
    3.7644    1.8178    0.4724 H   0  0  0  0  0  0  0  0  0  0  0  0
    5.1955    0.5143    1.9628 H   0  0  0  0  0  0  0  0  0  0  0  0
    3.0514   -3.0370    1.0258 H   0  0  0  0  0  0  0  0  0  0  0  0
    1.6229   -1.7131   -0.4681 H   0  0  0  0  0  0  0  0  0  0  0  0
    0.4533    1.6516    1.7058 H   0  0  0  0  0  0  0  0  0  0  0  0
   -0.7743    0.6985    3.5584 H   0  0  0  0  0  0  0  0  0  0  0  0
   -4.1118   -2.9286    2.7210 H   0  0  0  0  0  0  0  0  0  0  0  0
   -1.5421   -0.9003   -0.9668 H   0  0  0  0  0  0  0  0  0  0  0  0
  1  2  1  0
  2  3  1  0
  3  4  1  0
  4  5  2  0
  5  6  1  0
  6  7  1  0
  7  8  2  0
  8  9  1  0
  9 10  2  0
 10 11  1  0
 10 12  1  0
 12 13  2  0
  6 14  2  0
 14 15  1  0
 15 16  1  0
 16 17  2  0
 17 18  1  0
 18 19  2  0
 19 20  1  0
 20 21  2  0
 21 22  1  0
 22 23  3  0
 21 24  1  0
 24 25  1  0
 14  3  1  0
 25 15  2  0
 13  7  1  0
 24 18  1  0
  1 26  1  0
  1 27  1  0
  1 28  1  0
  2 29  1  0
  2 30  1  0
  4 31  1  0
  8 32  1  0
  9 33  1  0
 12 34  1  0
 13 35  1  0
 16 36  1  0
 17 37  1  0
 20 38  1  0
 25 39  1  0
M  END
$$$$
