@<TRIPOS>MOLECULE
*****
 39 42 0 0 0
SMALL
GASTEIGER

@<TRIPOS>ATOM
      1 C          -2.3222    1.1843   -2.8990 C.3     1  UNL1       -0.0470
      2 C          -1.5591    2.1527   -2.0662 C.3     1  UNL1        0.0219
      3 N          -0.1825    1.7828   -1.8748 N.ar    1  UNL1       -0.3298
      4 C           0.8518    2.1212   -2.6522 C.ar    1  UNL1        0.0971
      5 N           1.9998    1.5847   -2.1458 N.ar    1  UNL1       -0.2351
      6 C           1.6829    0.8981   -1.0333 C.ar    1  UNL1        0.0967
      7 C           2.5531    0.1499   -0.1372 C.ar    1  UNL1        0.0026
      8 C           3.5718    0.7618    0.5614 C.ar    1  UNL1       -0.0498
      9 C           4.4065    0.0600    1.4169 C.ar    1  UNL1       -0.0258
     10 C           4.2134   -1.3122    1.5801 C.ar    1  UNL1        0.1234
     11 F           5.0260   -2.0051    2.4162 F       1  UNL1       -0.2055
     12 C           3.2052   -1.9590    0.8987 C.ar    1  UNL1       -0.0258
     13 C           2.4079   -1.2067    0.0622 C.ar    1  UNL1       -0.0498
     14 C           0.3043    1.0362   -0.8815 C.ar    1  UNL1        0.0778
     15 C          -0.4459    0.4507    0.1999 C.ar    1  UNL1        0.0173
     16 C          -0.2586    0.8751    1.5068 C.ar    1  UNL1       -0.0477
     17 C          -0.9622    0.3269    2.5618 C.ar    1  UNL1       -0.0181
     18 C          -1.8803   -0.6690    2.3390 C.ar    1  UNL1        0.1385
     19 N          -2.6914   -1.3693    3.1663 N.ar    1  UNL1       -0.2348
     20 C          -3.3679   -2.2124    2.3810 C.ar    1  UNL1        0.0643
     21 C          -2.9981   -2.0569    1.0694 C.ar    1  UNL1        0.1438
     22 C          -3.4724   -2.7537   -0.0894 C.1     1  UNL1        0.1192
     23 N          -3.8708   -3.3306   -1.0205 N.1     1  UNL1       -0.1893
     24 N          -2.0649   -1.0861    1.0590 N.ar    1  UNL1       -0.2906
     25 C          -1.3850   -0.5590    0.0249 C.ar    1  UNL1        0.0216
     26 H          -1.6426    0.5554   -3.5178 H       1  UNL1        0.0247
     27 H          -2.9458    0.5506   -2.2406 H       1  UNL1        0.0247
     28 H          -3.0100    1.7778   -3.5660 H       1  UNL1        0.0247
     29 H          -2.0852    2.2614   -1.0698 H       1  UNL1        0.0489
     30 H          -1.5976    3.1708   -2.5129 H       1  UNL1        0.0489
     31 H           0.8604    2.7163   -3.5482 H       1  UNL1        0.1029
     32 H           3.7644    1.8178    0.4724 H       1  UNL1        0.0625
     33 H           5.1955    0.5143    1.9628 H       1  UNL1        0.0646
     34 H           3.0514   -3.0370    1.0258 H       1  UNL1        0.0646
     35 H           1.6229   -1.7131   -0.4681 H       1  UNL1        0.0625
     36 H           0.4533    1.6516    1.7058 H       1  UNL1        0.0626
     37 H          -0.7743    0.6985    3.5584 H       1  UNL1        0.0654
     38 H          -4.1118   -2.9286    2.7210 H       1  UNL1        0.0859
     39 H          -1.5421   -0.9003   -0.9668 H       1  UNL1        0.0820
@<TRIPOS>BOND
     1     1     2    1
     2     2     3    1
     3     3     4   ar
     4     4     5   ar
     5     5     6   ar
     6     6     7    1
     7     7     8   ar
     8     8     9   ar
     9     9    10   ar
    10    10    11    1
    11    10    12   ar
    12    12    13   ar
    13     6    14   ar
    14    14    15    1
    15    15    16   ar
    16    16    17   ar
    17    17    18   ar
    18    18    19   ar
    19    19    20   ar
    20    20    21   ar
    21    21    22    1
    22    22    23    3
    23    21    24   ar
    24    24    25   ar
    25    14     3   ar
    26    25    15   ar
    27    13     7   ar
    28    24    18   ar
    29     1    26    1
    30     1    27    1
    31     1    28    1
    32     2    29    1
    33     2    30    1
    34     4    31    1
    35     8    32    1
    36     9    33    1
    37    12    34    1
    38    13    35    1
    39    16    36    1
    40    17    37    1
    41    20    38    1
    42    25    39    1
