@<TRIPOS>MOLECULE
*****
 42 44 0 0 0
SMALL
GASTEIGER

@<TRIPOS>ATOM
      1 C           3.3429    2.1751   -0.3012 C.3     1  UNL1       -0.0130
      2 N           3.8381    0.8952   -0.6707 N.3     1  UNL1       -0.3080
      3 C           5.1324    0.5405   -0.1944 C.3     1  UNL1       -0.0130
      4 C           2.8725   -0.1413   -0.6070 C.3     1  UNL1        0.0024
      5 C           2.4075   -0.4882    0.7952 C.3     1  UNL1       -0.0129
      6 C           1.4040   -1.6080    0.6435 C.ar    1  UNL1       -0.0211
      7 C           1.6192   -2.9574    0.9117 C.ar    1  UNL1        0.0059
      8 N           0.5229   -3.6621    0.6598 N.ar    1  UNL1       -0.3604
      9 C          -0.3883   -2.7699    0.2338 C.ar    1  UNL1        0.0467
     10 C          -1.7037   -2.9584   -0.1690 C.ar    1  UNL1       -0.0375
     11 C          -2.4392   -1.8635   -0.5715 C.ar    1  UNL1       -0.0565
     12 C          -1.9426   -0.5589   -0.6015 C.ar    1  UNL1       -0.0448
     13 C          -2.9077    0.4512   -1.0719 C.3     1  UNL1       -0.0059
     14 C          -3.7015    1.0153    0.0701 C.3     1  UNL1        0.0644
     15 C          -2.8307    1.6850    1.0954 C.3     1  UNL1        0.1127
     16 O          -3.6309    2.7612    1.5791 O.3     1  UNL1       -0.4485
     17 C          -4.6974    2.9522    0.7392 C.2     1  UNL1        0.4007
     18 O          -5.7132    3.7232    0.7632 O.2     1  UNL1       -0.2265
     19 N          -4.6050    2.0691   -0.3976 N.am    1  UNL1       -0.2747
     20 C          -0.6370   -0.4093   -0.1965 C.ar    1  UNL1       -0.0491
     21 C           0.1031   -1.4995    0.2064 C.ar    1  UNL1        0.0031
     22 H           4.1704    2.8919   -0.0873 H       1  UNL1        0.0391
     23 H           2.7268    2.5446   -1.1732 H       1  UNL1        0.0391
     24 H           2.7030    2.1247    0.5813 H       1  UNL1        0.0391
     25 H           5.5460    1.3733    0.4201 H       1  UNL1        0.0391
     26 H           5.1619   -0.4113    0.3951 H       1  UNL1        0.0391
     27 H           5.7907    0.3603   -1.0800 H       1  UNL1        0.0391
     28 H           3.3080   -1.0723   -1.0348 H       1  UNL1        0.0429
     29 H           1.9743    0.1408   -1.1721 H       1  UNL1        0.0429
     30 H           3.2621   -0.9100    1.3674 H       1  UNL1        0.0326
     31 H           1.9374    0.3615    1.3158 H       1  UNL1        0.0326
     32 H           2.5849   -3.3101    1.2764 H       1  UNL1        0.0810
     33 H           0.4398   -4.7072    0.7843 H       1  UNL1        0.1653
     34 H          -2.1078   -3.9618   -0.1538 H       1  UNL1        0.0638
     35 H          -3.4527   -2.1163   -0.8691 H       1  UNL1        0.0621
     36 H          -2.3874    1.3174   -1.5758 H       1  UNL1        0.0332
     37 H          -3.5811    0.0113   -1.8621 H       1  UNL1        0.0332
     38 H          -4.3107    0.2045    0.5272 H       1  UNL1        0.0536
     39 H          -2.5909    0.9962    1.9074 H       1  UNL1        0.0717
     40 H          -1.9211    2.1184    0.6372 H       1  UNL1        0.0717
     41 H          -5.0316    2.0887   -1.3473 H       1  UNL1        0.1524
     42 H          -0.2670    0.6040   -0.2247 H       1  UNL1        0.0627
@<TRIPOS>BOND
     1     1     2    1
     2     2     3    1
     3     2     4    1
     4     4     5    1
     5     5     6    1
     6     6     7   ar
     7     7     8   ar
     8     8     9   ar
     9     9    10   ar
    10    10    11   ar
    11    11    12   ar
    12    12    13    1
    13    13    14    1
    14    14    15    1
    15    15    16    1
    16    16    17    1
    17    17    18    2
    18    17    19   am
    19    12    20   ar
    20    20    21   ar
    21    21     6   ar
    22    21     9   ar
    23    19    14    1
    24     1    22    1
    25     1    23    1
    26     1    24    1
    27     3    25    1
    28     3    26    1
    29     3    27    1
    30     4    28    1
    31     4    29    1
    32     5    30    1
    33     5    31    1
    34     7    32    1
    35     8    33    1
    36    10    34    1
    37    11    35    1
    38    13    36    1
    39    13    37    1
    40    14    38    1
    41    15    39    1
    42    15    40    1
    43    19    41    1
    44    20    42    1
