@<TRIPOS>MOLECULE
*****
 56 61 0 0 0
SMALL
GASTEIGER

@<TRIPOS>ATOM
      1 C          -7.7580    2.6858   -2.3834 C.3     1  UNL1        0.0788
      2 O          -7.3159    1.9913   -1.2514 O.3     1  UNL1       -0.4950
      3 C          -6.0171    1.4605   -1.1393 C.ar    1  UNL1        0.1237
      4 C          -5.6435    0.7841    0.0061 C.ar    1  UNL1       -0.0190
      5 C          -4.3618    0.2780    0.0782 C.ar    1  UNL1       -0.0439
      6 C          -3.5181    0.4674   -0.9850 C.ar    1  UNL1        0.0662
      7 C          -2.2226    0.0871   -1.1908 C.ar    1  UNL1        0.1922
      8 N          -1.3904   -0.6489   -0.2775 N.ar    1  UNL1       -0.2413
      9 C          -0.2688   -0.3003    0.3144 C.ar    1  UNL1        0.3362
     10 O           0.2667    0.8418    0.1326 O.2     1  UNL1       -0.2459
     11 N           0.2050   -1.3101    1.1154 N.ar    1  UNL1       -0.2873
     12 C           1.3951   -1.0945    1.8704 C.3     1  UNL1        0.0545
     13 C           2.6724   -1.1960    1.2219 C.ar    1  UNL1       -0.0089
     14 C           3.2966    0.0217    0.8865 C.ar    1  UNL1       -0.0480
     15 C           4.4970    0.1234    0.2634 C.ar    1  UNL1        0.0050
     16 C           5.1520    1.4094   -0.0868 C.3     1  UNL1        0.2142
     17 C           6.6276    1.2212   -0.3681 C.3     1  UNL1       -0.0116
     18 O           4.4911    2.1245   -1.0828 O.2     1  UNL1       -0.4308
     19 C           4.6008    3.4701   -0.7653 C.2     1  UNL1        0.3808
     20 O           4.4017    4.5730   -1.6110 O.2     1  UNL1       -0.4673
     21 N           4.9285    3.6308    0.4766 N.am    1  UNL1       -0.1074
     22 C           5.0615    2.3513    1.0827 C.2     1  UNL1        0.2899
     23 O           5.0911    2.1169    2.3002 O.2     1  UNL1       -0.2687
     24 C           5.1398   -1.0529   -0.0579 C.ar    1  UNL1       -0.0529
     25 C           4.5728   -2.2651    0.2484 C.ar    1  UNL1       -0.0427
     26 C           3.3240   -2.3320    0.8964 C.ar    1  UNL1        0.0459
     27 CL          2.7103   -3.9264    1.2555 Cl      1  UNL1       -0.0832
     28 C          -0.6651   -2.3035    1.0041 C.ar    1  UNL1        0.0706
     29 C          -0.6988   -3.5386    1.6013 C.ar    1  UNL1       -0.0360
     30 C          -1.7477   -4.3860    1.3201 C.ar    1  UNL1       -0.0597
     31 C          -2.7576   -4.0117    0.4541 C.ar    1  UNL1       -0.0597
     32 C          -2.7026   -2.7700   -0.1286 C.ar    1  UNL1       -0.0356
     33 C          -1.6763   -1.8974    0.1257 C.ar    1  UNL1        0.0765
     34 N          -1.8841    0.5364   -2.4112 N.ar    1  UNL1       -0.0587
     35 O          -2.8821    1.1588   -2.9528 O.2     1  UNL1       -0.3525
     36 C          -3.8945    1.1406   -2.1213 C.ar    1  UNL1        0.1728
     37 C          -5.1697    1.6513   -2.2085 C.ar    1  UNL1        0.0257
     38 H          -7.3862    3.7506   -2.3694 H       1  UNL1        0.0660
     39 H          -7.5254    2.2114   -3.3422 H       1  UNL1        0.0660
     40 H          -8.8787    2.7836   -2.3220 H       1  UNL1        0.0660
     41 H          -6.3360    0.6566    0.8192 H       1  UNL1        0.0654
     42 H          -3.9984   -0.2612    0.9394 H       1  UNL1        0.0627
     43 H           1.3027   -0.1452    2.4849 H       1  UNL1        0.0543
     44 H           1.3773   -1.8902    2.6855 H       1  UNL1        0.0543
     45 H           2.7978    0.9528    1.1401 H       1  UNL1        0.0625
     46 H           6.8161    0.7583   -1.3477 H       1  UNL1        0.0276
     47 H           7.0830    2.2338   -0.3909 H       1  UNL1        0.0276
     48 H           7.0498    0.6677    0.4823 H       1  UNL1        0.0276
     49 H           4.8836    5.4592   -1.4009 H       1  UNL1        0.2967
     50 H           6.1080   -0.9916   -0.5603 H       1  UNL1        0.0622
     51 H           5.0719   -3.1889   -0.0011 H       1  UNL1        0.0632
     52 H           0.0852   -3.8001    2.2939 H       1  UNL1        0.0639
     53 H          -1.7429   -5.3563    1.8098 H       1  UNL1        0.0618
     54 H          -3.5871   -4.6813    0.2302 H       1  UNL1        0.0618
     55 H          -3.4756   -2.4488   -0.8084 H       1  UNL1        0.0639
     56 H          -5.5043    2.1977   -3.1070 H       1  UNL1        0.0692
@<TRIPOS>BOND
     1     1     2    1
     2     2     3    1
     3     3     4   ar
     4     4     5   ar
     5     5     6   ar
     6     6     7   ar
     7     7     8    1
     8     8     9   ar
     9     9    10    2
    10     9    11   ar
    11    11    12    1
    12    12    13    1
    13    13    14   ar
    14    14    15   ar
    15    15    16    1
    16    16    17    1
    17    16    18    1
    18    18    19    1
    19    19    20    1
    20    19    21    2
    21    21    22    1
    22    22    23    2
    23    15    24   ar
    24    24    25   ar
    25    25    26   ar
    26    26    27    1
    27    11    28   ar
    28    28    29   ar
    29    29    30   ar
    30    30    31   ar
    31    31    32   ar
    32    32    33   ar
    33     7    34   ar
    34    34    35   ar
    35    35    36   ar
    36    36    37   ar
    37    37     3   ar
    38    36     6   ar
    39    33     8   ar
    40    26    13   ar
    41    33    28   ar
    42    22    16    1
    43     1    38    1
    44     1    39    1
    45     1    40    1
    46     4    41    1
    47     5    42    1
    48    12    43    1
    49    12    44    1
    50    14    45    1
    51    17    46    1
    52    17    47    1
    53    17    48    1
    54    20    49    1
    55    24    50    1
    56    25    51    1
    57    29    52    1
    58    30    53    1
    59    31    54    1
    60    32    55    1
    61    37    56    1
