@<TRIPOS>MOLECULE
*****
 62 66 0 0 0
SMALL
GASTEIGER

@<TRIPOS>ATOM
      1 C          -8.3134    0.0839    2.0523 C.3     1  UNL1        0.0788
      2 O          -7.4264    1.1157    1.7384 O.3     1  UNL1       -0.4951
      3 C          -6.5739    1.0545    0.6530 C.ar    1  UNL1        0.1201
      4 C          -6.6050   -0.0705   -0.2192 C.ar    1  UNL1       -0.0196
      5 C          -5.6258   -0.0853   -1.3158 C.ar    1  UNL1       -0.0536
      6 C          -4.8138    0.8706   -1.4237 C.ar    1  UNL1       -0.0295
      7 C          -3.6204    0.6590   -2.4701 C.3     1  UNL1        0.0451
      8 N          -2.7478   -0.3082   -1.8249 N.am    1  UNL1       -0.2625
      9 C          -3.1511   -1.7503   -1.7828 C.2     1  UNL1        0.2537
     10 O          -4.2386   -2.1647   -2.3090 O.2     1  UNL1       -0.2695
     11 C          -2.2797   -2.6035   -1.1570 C.2     1  UNL1        0.0739
     12 C          -2.0618   -3.9843   -1.0204 C.2     1  UNL1        0.1408
     13 C          -3.1303   -4.3653   -1.9966 C.1     1  UNL1        0.1110
     14 N          -4.0689   -4.7178   -2.8587 N.1     1  UNL1       -0.1901
     15 C          -1.1740   -4.4962   -0.3159 C.1     1  UNL1        0.1110
     16 N          -0.2658   -5.0223    0.4002 N.1     1  UNL1       -0.1901
     17 C          -1.0750   -1.5424   -0.7122 C.ar    1  UNL1        0.0123
     18 C           0.1120   -1.8961   -0.2366 C.ar    1  UNL1       -0.0256
     19 C           1.1288   -0.7080   -0.2820 C.ar    1  UNL1        0.1062
     20 S           2.7571   -0.9956    0.0564 S.O2    1  UNL1        0.0612
     21 O           3.4962   -1.1900   -1.3049 O.2     1  UNL1       -0.1528
     22 O           2.8333   -2.4493    0.6796 O.2     1  UNL1       -0.1528
     23 N           3.6283    0.0020    1.1161 N.3     1  UNL1       -0.1702
     24 C           3.3266    0.0540    2.4754 C.3     1  UNL1        0.0225
     25 C           2.9780    1.5212    2.4365 C.3     1  UNL1       -0.0180
     26 C           3.3526    1.4263    0.9919 C.3     1  UNL1        0.0671
     27 C           4.2530    2.3922    0.3787 C.3     1  UNL1        0.1068
     28 O           5.5239    2.5899    0.8327 O.3     1  UNL1       -0.4888
     29 C           6.5833    1.7514    0.7823 C.ar    1  UNL1        0.1386
     30 C           7.9168    1.8149    1.2476 C.ar    1  UNL1       -0.0170
     31 C           8.8267    0.7246    1.0420 C.ar    1  UNL1       -0.0401
     32 C           8.2368   -0.4494    0.2942 C.ar    1  UNL1        0.0278
     33 N           7.1309   -0.4018   -0.0511 N.ar    1  UNL1       -0.2596
     34 C           6.2294    0.5439    0.0880 C.ar    1  UNL1        0.0692
     35 C           0.4460    0.2727   -0.7756 C.ar    1  UNL1       -0.0336
     36 C          -0.5228    0.7945   -1.2137 C.ar    1  UNL1       -0.0378
     37 C          -1.6347   -0.4066   -1.2301 C.ar    1  UNL1        0.0450
     38 C          -4.6657    2.0162   -0.6975 C.ar    1  UNL1       -0.0536
     39 C          -5.6229    2.0480    0.3681 C.ar    1  UNL1       -0.0196
     40 H          -7.9605   -0.8743    1.5651 H       1  UNL1        0.0660
     41 H          -9.3797    0.2129    1.9212 H       1  UNL1        0.0660
     42 H          -8.0730   -0.1772    3.1809 H       1  UNL1        0.0660
     43 H          -7.2495   -0.8879   -0.0806 H       1  UNL1        0.0654
     44 H          -5.8318   -0.9791   -1.9110 H       1  UNL1        0.0622
     45 H          -3.1051    1.5728   -2.5192 H       1  UNL1        0.0518
     46 H          -4.1255    0.2877   -3.3583 H       1  UNL1        0.0518
     47 H           0.4915   -2.7503    0.1112 H       1  UNL1        0.0644
     48 H           2.6664   -0.6488    2.9594 H       1  UNL1        0.0444
     49 H           4.3636    0.0182    3.0461 H       1  UNL1        0.0444
     50 H           3.6202    2.2288    2.9642 H       1  UNL1        0.0295
     51 H           1.8659    1.6092    2.6057 H       1  UNL1        0.0295
     52 H           2.3382    1.4852    0.4092 H       1  UNL1        0.0514
     53 H           4.2793    2.2556   -0.7560 H       1  UNL1        0.0713
     54 H           3.7303    3.4348    0.4586 H       1  UNL1        0.0713
     55 H           8.2392    2.6802    1.7611 H       1  UNL1        0.0655
     56 H           9.8153    0.6690    1.3155 H       1  UNL1        0.0634
     57 H           9.0530   -1.2521    0.1553 H       1  UNL1        0.0829
     58 H           5.2495    0.5128   -0.4049 H       1  UNL1        0.0867
     59 H           1.4256    1.1147   -1.1014 H       1  UNL1        0.0638
     60 H          -0.9723    1.6260   -1.6205 H       1  UNL1        0.0637
     61 H          -3.9727    2.8089   -0.8358 H       1  UNL1        0.0622
     62 H          -5.6098    2.9251    0.9606 H       1  UNL1        0.0654
@<TRIPOS>BOND
     1     1     2    1
     2     2     3    1
     3     3     4   ar
     4     4     5   ar
     5     5     6   ar
     6     6     7    1
     7     7     8    1
     8     8     9   am
     9     9    10    2
    10     9    11    1
    11    11    12    2
    12    12    13    1
    13    13    14    3
    14    12    15    1
    15    15    16    3
    16    11    17    1
    17    17    18   ar
    18    18    19   ar
    19    19    20    1
    20    20    21    2
    21    20    22    2
    22    20    23    1
    23    23    24    1
    24    24    25    1
    25    25    26    1
    26    26    27    1
    27    27    28    1
    28    28    29    1
    29    29    30   ar
    30    30    31   ar
    31    31    32   ar
    32    32    33   ar
    33    33    34   ar
    34    19    35   ar
    35    35    36   ar
    36    36    37   ar
    37     6    38   ar
    38    38    39   ar
    39    39     3   ar
    40    37     8    1
    41    37    17   ar
    42    26    23    1
    43    34    29   ar
    44     1    40    1
    45     1    41    1
    46     1    42    1
    47     4    43    1
    48     5    44    1
    49     7    45    1
    50     7    46    1
    51    18    47    1
    52    24    48    1
    53    24    49    1
    54    25    50    1
    55    25    51    1
    56    26    52    1
    57    27    53    1
    58    27    54    1
    59    30    55    1
    60    31    56    1
    61    32    57    1
    62    34    58    1
    63    35    59    1
    64    36    60    1
    65    38    61    1
    66    39    62    1
