
     RDKit          3D

 46 48  0  0  0  0  0  0  0  0999 V2000
    8.0979   -0.5236    1.4947 C   0  0  0  0  0  0  0  0  0  0  0  0
    6.7300    0.0523    1.2637 C   0  0  0  0  0  0  0  0  0  0  0  0
    5.8111   -0.9661    0.9694 O   0  0  0  0  0  0  0  0  0  0  0  0
    4.4906   -0.6200    0.7256 C   0  0  0  0  0  0  0  0  0  0  0  0
    4.0889    0.6896    0.7708 C   0  0  0  0  0  0  0  0  0  0  0  0
    2.7923    1.0874    0.5372 C   0  0  0  0  0  0  0  0  0  0  0  0
    1.8476    0.1077    0.2412 C   0  0  0  0  0  0  0  0  0  0  0  0
    0.5580    0.5083    0.0088 C   0  0  0  0  0  0  0  0  0  0  0  0
   -0.3877   -0.4798   -0.2884 C   0  0  0  0  0  0  0  0  0  0  0  0
   -1.7803   -0.1128   -0.5104 C   0  0  0  0  0  0  0  0  0  0  0  0
   -2.5406    0.6231    0.3452 N   0  0  0  0  0  0  0  0  0  0  0  0
   -3.7377    0.7910   -0.1523 N   0  0  0  0  0  0  0  0  0  0  0  0
   -4.8588    1.5232    0.4538 C   0  0  0  0  0  0  0  0  0  0  0  0
   -4.4506    2.0052    1.8389 C   0  0  0  0  0  0  0  0  0  0  0  0
   -6.0158    0.5695    0.6515 C   0  0  0  0  0  0  0  0  0  0  0  0
   -3.8461    0.1935   -1.3400 C   0  0  0  0  0  0  0  0  0  0  0  0
   -4.9660    0.1262   -2.2223 N   0  0  0  0  0  0  0  0  0  0  0  0
   -2.5855   -0.3919   -1.5798 C   0  0  0  0  0  0  0  0  0  0  0  0
   -2.2488   -1.1350   -2.7892 C   0  0  0  0  0  0  0  0  0  0  0  0
   -0.9660   -1.6484   -3.0620 N   0  0  0  0  0  0  0  0  0  0  0  0
   -3.1315   -1.3446   -3.6611 O   0  0  0  0  0  0  0  0  0  0  0  0
   -0.0006   -1.7926   -0.3355 C   0  0  0  0  0  0  0  0  0  0  0  0
    1.2746   -2.1478   -0.1023 N   0  0  0  0  0  0  0  0  0  0  0  0
    2.2130   -1.2224    0.1864 C   0  0  0  0  0  0  0  0  0  0  0  0
    3.5274   -1.5711    0.4286 C   0  0  0  0  0  0  0  0  0  0  0  0
    8.0729   -1.6107    1.2961 H   0  0  0  0  0  0  0  0  0  0  0  0
    8.3947   -0.4079    2.5570 H   0  0  0  0  0  0  0  0  0  0  0  0
    8.8151   -0.0082    0.8156 H   0  0  0  0  0  0  0  0  0  0  0  0
    6.3801    0.5586    2.1959 H   0  0  0  0  0  0  0  0  0  0  0  0
    6.7541    0.8384    0.4709 H   0  0  0  0  0  0  0  0  0  0  0  0
    4.8083    1.4763    1.0002 H   0  0  0  0  0  0  0  0  0  0  0  0
    2.5194    2.1384    0.5839 H   0  0  0  0  0  0  0  0  0  0  0  0
    0.2251    1.5334    0.0400 H   0  0  0  0  0  0  0  0  0  0  0  0
   -5.1120    2.3489   -0.2225 H   0  0  0  0  0  0  0  0  0  0  0  0
   -4.1873    1.0832    2.4131 H   0  0  0  0  0  0  0  0  0  0  0  0
   -3.6060    2.7222    1.7838 H   0  0  0  0  0  0  0  0  0  0  0  0
   -5.3566    2.4579    2.2958 H   0  0  0  0  0  0  0  0  0  0  0  0
   -6.1943   -0.0930   -0.1956 H   0  0  0  0  0  0  0  0  0  0  0  0
   -5.8264   -0.0267    1.5819 H   0  0  0  0  0  0  0  0  0  0  0  0
   -6.9091    1.2067    0.8955 H   0  0  0  0  0  0  0  0  0  0  0  0
   -5.1970   -0.7396   -2.7487 H   0  0  0  0  0  0  0  0  0  0  0  0
   -5.5331    1.0065   -2.2994 H   0  0  0  0  0  0  0  0  0  0  0  0
   -0.1941   -0.9530   -3.2020 H   0  0  0  0  0  0  0  0  0  0  0  0
   -0.7969   -2.6918   -3.1216 H   0  0  0  0  0  0  0  0  0  0  0  0
   -0.7659   -2.5554   -0.5475 H   0  0  0  0  0  0  0  0  0  0  0  0
    3.7938   -2.6050    0.3823 H   0  0  0  0  0  0  0  0  0  0  0  0
  1  2  1  0
  2  3  1  0
  3  4  1  0
  4  5  2  0
  5  6  1  0
  6  7  2  0
  7  8  1  0
  8  9  2  0
  9 10  1  0
 10 11  2  0
 11 12  1  0
 12 13  1  0
 13 14  1  0
 13 15  1  0
 12 16  1  0
 16 17  1  0
 16 18  2  0
 18 19  1  0
 19 20  1  0
 19 21  2  0
  9 22  1  0
 22 23  2  0
 23 24  1  0
 24 25  2  0
 25  4  1  0
 24  7  1  0
 18 10  1  0
  1 26  1  0
  1 27  1  0
  1 28  1  0
  2 29  1  0
  2 30  1  0
  5 31  1  0
  6 32  1  0
  8 33  1  0
 13 34  1  0
 14 35  1  0
 14 36  1  0
 14 37  1  0
 15 38  1  0
 15 39  1  0
 15 40  1  0
 17 41  1  0
 17 42  1  0
 20 43  1  0
 20 44  1  0
 22 45  1  0
 25 46  1  0
M  END
$$$$
