@<TRIPOS>MOLECULE
*****
 46 48 0 0 0
SMALL
GASTEIGER

@<TRIPOS>ATOM
      1 C           8.0979   -0.5236    1.4947 C.3     1  UNL1       -0.0307
      2 C           6.7300    0.0523    1.2637 C.3     1  UNL1        0.0868
      3 O           5.8111   -0.9661    0.9694 O.3     1  UNL1       -0.4922
      4 C           4.4906   -0.6200    0.7256 C.ar    1  UNL1        0.1225
      5 C           4.0889    0.6896    0.7708 C.ar    1  UNL1       -0.0193
      6 C           2.7923    1.0874    0.5372 C.ar    1  UNL1       -0.0491
      7 C           1.8476    0.1077    0.2412 C.ar    1  UNL1        0.0012
      8 C           0.5580    0.5083    0.0088 C.ar    1  UNL1       -0.0418
      9 C          -0.3877   -0.4798   -0.2884 C.ar    1  UNL1        0.0216
     10 C          -1.7803   -0.1128   -0.5104 C.ar    1  UNL1        0.1082
     11 N          -2.5406    0.6231    0.3452 N.ar    1  UNL1       -0.1685
     12 N          -3.7377    0.7910   -0.1523 N.ar    1  UNL1       -0.2471
     13 C          -4.8588    1.5232    0.4538 C.3     1  UNL1        0.0491
     14 C          -4.4506    2.0052    1.8389 C.3     1  UNL1       -0.0428
     15 C          -6.0158    0.5695    0.6515 C.3     1  UNL1       -0.0428
     16 C          -3.8461    0.1935   -1.3400 C.ar    1  UNL1        0.1275
     17 N          -4.9660    0.1262   -2.2223 N.pl3   1  UNL1       -0.3427
     18 C          -2.5855   -0.3919   -1.5798 C.ar    1  UNL1        0.1031
     19 C          -2.2488   -1.1350   -2.7892 C.2     1  UNL1        0.2470
     20 N          -0.9660   -1.6484   -3.0620 N.am    1  UNL1       -0.3252
     21 O          -3.1315   -1.3446   -3.6611 O.2     1  UNL1       -0.2702
     22 C          -0.0006   -1.7926   -0.3355 C.ar    1  UNL1        0.0375
     23 N           1.2746   -2.1478   -0.1023 N.ar    1  UNL1       -0.2542
     24 C           2.2130   -1.2224    0.1864 C.ar    1  UNL1        0.0745
     25 C           3.5274   -1.5711    0.4286 C.ar    1  UNL1        0.0060
     26 H           8.0729   -1.6107    1.2961 H       1  UNL1        0.0262
     27 H           8.3947   -0.4079    2.5570 H       1  UNL1        0.0262
     28 H           8.8151   -0.0082    0.8156 H       1  UNL1        0.0262
     29 H           6.3801    0.5586    2.1959 H       1  UNL1        0.0694
     30 H           6.7541    0.8384    0.4709 H       1  UNL1        0.0694
     31 H           4.8083    1.4763    1.0002 H       1  UNL1        0.0654
     32 H           2.5194    2.1384    0.5839 H       1  UNL1        0.0625
     33 H           0.2251    1.5334    0.0400 H       1  UNL1        0.0631
     34 H          -5.1120    2.3489   -0.2225 H       1  UNL1        0.0540
     35 H          -4.1873    1.0832    2.4131 H       1  UNL1        0.0250
     36 H          -3.6060    2.7222    1.7838 H       1  UNL1        0.0250
     37 H          -5.3566    2.4579    2.2958 H       1  UNL1        0.0250
     38 H          -6.1943   -0.0930   -0.1956 H       1  UNL1        0.0250
     39 H          -5.8264   -0.0267    1.5819 H       1  UNL1        0.0250
     40 H          -6.9091    1.2067    0.8955 H       1  UNL1        0.0250
     41 H          -5.1970   -0.7396   -2.7487 H       1  UNL1        0.1437
     42 H          -5.5331    1.0065   -2.2994 H       1  UNL1        0.1437
     43 H          -0.1941   -0.9530   -3.2020 H       1  UNL1        0.1453
     44 H          -0.7969   -2.6918   -3.1216 H       1  UNL1        0.1453
     45 H          -0.7659   -2.5554   -0.5475 H       1  UNL1        0.0836
     46 H           3.7938   -2.6050    0.3823 H       1  UNL1        0.0676
@<TRIPOS>BOND
     1     1     2    1
     2     2     3    1
     3     3     4    1
     4     4     5   ar
     5     5     6   ar
     6     6     7   ar
     7     7     8   ar
     8     8     9   ar
     9     9    10    1
    10    10    11   ar
    11    11    12   ar
    12    12    13    1
    13    13    14    1
    14    13    15    1
    15    12    16   ar
    16    16    17    1
    17    16    18   ar
    18    18    19    1
    19    19    20   am
    20    19    21    2
    21     9    22   ar
    22    22    23   ar
    23    23    24   ar
    24    24    25   ar
    25    25     4   ar
    26    24     7   ar
    27    18    10   ar
    28     1    26    1
    29     1    27    1
    30     1    28    1
    31     2    29    1
    32     2    30    1
    33     5    31    1
    34     6    32    1
    35     8    33    1
    36    13    34    1
    37    14    35    1
    38    14    36    1
    39    14    37    1
    40    15    38    1
    41    15    39    1
    42    15    40    1
    43    17    41    1
    44    17    42    1
    45    20    43    1
    46    20    44    1
    47    22    45    1
    48    25    46    1
