@<TRIPOS>MOLECULE
*****
 47 49 0 0 0
SMALL
GASTEIGER

@<TRIPOS>ATOM
      1 C          -3.9088    1.4980    0.7447 C.3     1  UNL1       -0.0652
      2 C          -3.4514    1.1152    2.1289 C.3     1  UNL1       -0.0547
      3 C          -1.9559    1.0342    2.2792 C.3     1  UNL1       -0.0388
      4 C          -1.2761    0.0449    1.4132 C.3     1  UNL1        0.0208
      5 N          -1.3967    0.2122    0.0023 N.3     1  UNL1       -0.1723
      6 C          -1.9837   -0.8767   -0.6233 C.3     1  UNL1        0.0455
      7 C          -2.7310   -0.6936   -1.8940 C.3     1  UNL1       -0.0219
      8 C          -3.1190   -2.1594   -2.1645 C.3     1  UNL1       -0.0025
      9 N          -2.0045   -2.9405   -1.7085 N.3     1  UNL1       -0.3144
     10 C          -1.0875   -2.0420   -0.9985 C.3     1  UNL1        0.0132
     11 S          -0.2828    1.1846   -0.7519 S.O2    1  UNL1        0.0611
     12 O          -0.6390    1.2955   -2.2196 O.2     1  UNL1       -0.1528
     13 O          -0.3269    2.6278   -0.2514 O.2     1  UNL1       -0.1528
     14 C           1.3947    0.7204   -0.6687 C.ar    1  UNL1        0.1061
     15 C           2.0190   -0.0209   -1.6482 C.ar    1  UNL1       -0.0348
     16 C           3.3512   -0.3849   -1.5720 C.ar    1  UNL1       -0.0522
     17 C           4.1261   -0.0128   -0.4891 C.ar    1  UNL1       -0.0178
     18 C           5.4663   -0.3832   -0.4199 C.ar    1  UNL1       -0.0540
     19 C           6.1934    0.0120    0.6781 C.ar    1  UNL1       -0.0612
     20 C           5.6170    0.7558    1.6882 C.ar    1  UNL1       -0.0612
     21 C           4.2910    1.1060    1.5908 C.ar    1  UNL1       -0.0540
     22 C           3.5177    0.7266    0.4958 C.ar    1  UNL1       -0.0160
     23 C           2.1918    1.0803    0.4046 C.ar    1  UNL1       -0.0276
     24 H          -4.6378    2.3627    0.7681 H       1  UNL1        0.0230
     25 H          -4.3935    0.6264    0.2412 H       1  UNL1        0.0230
     26 H          -3.0640    1.8697    0.1465 H       1  UNL1        0.0230
     27 H          -3.9365    0.1346    2.3797 H       1  UNL1        0.0263
     28 H          -3.8798    1.8914    2.8229 H       1  UNL1        0.0263
     29 H          -1.7438    0.7461    3.3442 H       1  UNL1        0.0278
     30 H          -1.5797    2.0731    2.1655 H       1  UNL1        0.0278
     31 H          -0.1985   -0.1250    1.7077 H       1  UNL1        0.0444
     32 H          -1.7446   -0.9572    1.6565 H       1  UNL1        0.0444
     33 H          -2.7092   -1.3448    0.1210 H       1  UNL1        0.0493
     34 H          -3.5849   -0.0277   -1.8879 H       1  UNL1        0.0293
     35 H          -2.0945   -0.4273   -2.7614 H       1  UNL1        0.0293
     36 H          -4.0321   -2.3357   -1.5549 H       1  UNL1        0.0424
     37 H          -3.3501   -2.3145   -3.2362 H       1  UNL1        0.0424
     38 H          -2.3660   -3.6313   -0.9864 H       1  UNL1        0.1220
     39 H          -0.2359   -1.7697   -1.6263 H       1  UNL1        0.0440
     40 H          -0.7325   -2.4932   -0.0520 H       1  UNL1        0.0440
     41 H           1.4685   -0.3405   -2.5175 H       1  UNL1        0.0637
     42 H           3.8353   -0.9730   -2.3553 H       1  UNL1        0.0624
     43 H           5.9051   -0.9726   -1.2299 H       1  UNL1        0.0624
     44 H           7.2348   -0.2790    0.7263 H       1  UNL1        0.0618
     45 H           6.2463    1.0440    2.5428 H       1  UNL1        0.0618
     46 H           3.8270    1.6834    2.3660 H       1  UNL1        0.0624
     47 H           1.7614    1.6607    1.2034 H       1  UNL1        0.0643
@<TRIPOS>BOND
     1     1     2    1
     2     2     3    1
     3     3     4    1
     4     4     5    1
     5     5     6    1
     6     6     7    1
     7     7     8    1
     8     8     9    1
     9     9    10    1
    10     5    11    1
    11    11    12    2
    12    11    13    2
    13    11    14    1
    14    14    15   ar
    15    15    16   ar
    16    16    17   ar
    17    17    18   ar
    18    18    19   ar
    19    19    20   ar
    20    20    21   ar
    21    21    22   ar
    22    22    23   ar
    23    10     6    1
    24    23    14   ar
    25    22    17   ar
    26     1    24    1
    27     1    25    1
    28     1    26    1
    29     2    27    1
    30     2    28    1
    31     3    29    1
    32     3    30    1
    33     4    31    1
    34     4    32    1
    35     6    33    1
    36     7    34    1
    37     7    35    1
    38     8    36    1
    39     8    37    1
    40     9    38    1
    41    10    39    1
    42    10    40    1
    43    15    41    1
    44    16    42    1
    45    18    43    1
    46    19    44    1
    47    20    45    1
    48    21    46    1
    49    23    47    1
