
     RDKit          3D

 70 73  0  0  0  0  0  0  0  0999 V2000
    1.0892   -1.6865   -2.9619 C   0  0  0  0  0  0  0  0  0  0  0  0
   -0.1380   -0.8352   -2.7741 C   0  0  0  0  0  0  0  0  0  0  0  0
   -0.4584   -0.5231   -1.3376 C   0  0  2  0  0  0  0  0  0  0  0  0
   -1.7172    0.3195   -1.2762 C   0  0  0  0  0  0  0  0  0  0  0  0
   -1.6421    1.6395   -1.4837 N   0  0  0  0  0  0  0  0  0  0  0  0
   -2.6573    2.4869   -1.5443 C   0  0  0  0  0  0  0  0  0  0  0  0
   -2.5429    3.8437   -1.7629 C   0  0  0  0  0  0  0  0  0  0  0  0
   -3.6496    4.6550   -1.8164 C   0  0  0  0  0  0  0  0  0  0  0  0
   -3.5758    6.3738   -2.0851 Cl  0  0  0  0  0  0  0  0  0  0  0  0
   -4.9041    4.0978   -1.6473 C   0  0  0  0  0  0  0  0  0  0  0  0
   -5.0282    2.7551   -1.4300 C   0  0  0  0  0  0  0  0  0  0  0  0
   -3.9177    1.9513   -1.3774 C   0  0  0  0  0  0  0  0  0  0  0  0
   -4.0178    0.5876   -1.1597 C   0  0  0  0  0  0  0  0  0  0  0  0
   -5.1995    0.1683   -1.0170 O   0  0  0  0  0  0  0  0  0  0  0  0
   -2.9249   -0.2350   -1.1058 N   0  0  0  0  0  0  0  0  0  0  0  0
   -3.1613   -1.6230   -0.8988 C   0  0  0  0  0  0  0  0  0  0  0  0
   -3.3845   -2.0609    0.4986 C   0  0  0  0  0  0  0  0  0  0  0  0
   -2.4024   -2.3179    1.4160 C   0  0  0  0  0  0  0  0  0  0  0  0
   -2.6838   -2.7378    2.7290 C   0  0  0  0  0  0  0  0  0  0  0  0
   -3.9675   -2.9113    3.1553 C   0  0  0  0  0  0  0  0  0  0  0  0
   -4.9838   -2.6566    2.2424 C   0  0  0  0  0  0  0  0  0  0  0  0
   -4.6975   -2.2502    0.9711 C   0  0  0  0  0  0  0  0  0  0  0  0
    0.6123    0.1843   -0.7213 N   0  0  0  0  0  0  0  0  0  0  0  0
    1.1918   -0.2994    0.5444 C   0  0  0  0  0  0  0  0  0  0  0  0
    2.3673   -1.2261    0.3233 C   0  0  0  0  0  0  0  0  0  0  0  0
    2.8242   -1.6446    1.7162 C   0  0  0  0  0  0  0  0  0  0  0  0
    3.9590   -2.5287    1.6877 N   0  0  0  0  0  0  0  0  0  0  0  0
    4.2740   -2.9327    3.0417 C   0  0  0  0  0  0  0  0  0  0  0  0
    5.1018   -1.8190    1.1002 C   0  0  0  0  0  0  0  0  0  0  0  0
    1.2131    1.3880   -1.2022 C   0  0  0  0  0  0  0  0  0  0  0  0
    0.7907    1.8694   -2.2720 O   0  0  0  0  0  0  0  0  0  0  0  0
    2.2865    2.0947   -0.5229 C   0  0  0  0  0  0  0  0  0  0  0  0
    2.0518    2.8763    0.5940 C   0  0  0  0  0  0  0  0  0  0  0  0
    3.0065    3.5759    1.2786 C   0  0  0  0  0  0  0  0  0  0  0  0
    4.3281    3.5204    0.8467 C   0  0  0  0  0  0  0  0  0  0  0  0
    5.7008    4.4857    1.7648 Br  0  0  0  0  0  0  0  0  0  0  0  0
    4.5993    2.7527   -0.2617 C   0  0  0  0  0  0  0  0  0  0  0  0
    3.6187    2.0509   -0.9423 C   0  0  0  0  0  0  0  0  0  0  0  0
    1.1563   -1.9768   -4.0536 H   0  0  0  0  0  0  0  0  0  0  0  0
    1.0549   -2.6079   -2.3316 H   0  0  0  0  0  0  0  0  0  0  0  0
    2.0189   -1.1320   -2.7437 H   0  0  0  0  0  0  0  0  0  0  0  0
   -0.9991   -1.3756   -3.2616 H   0  0  0  0  0  0  0  0  0  0  0  0
   -0.0225    0.0741   -3.4029 H   0  0  0  0  0  0  0  0  0  0  0  0
   -0.6638   -1.4298   -0.7599 H   0  0  0  0  0  0  0  0  0  0  0  0
   -1.5589    4.2680   -1.8916 H   0  0  0  0  0  0  0  0  0  0  0  0
   -5.8164    4.6911   -1.6795 H   0  0  0  0  0  0  0  0  0  0  0  0
   -6.0093    2.3128   -1.2955 H   0  0  0  0  0  0  0  0  0  0  0  0
   -4.1317   -1.8555   -1.4468 H   0  0  0  0  0  0  0  0  0  0  0  0
   -2.3788   -2.2806   -1.3401 H   0  0  0  0  0  0  0  0  0  0  0  0
   -1.3693   -2.2293    1.1991 H   0  0  0  0  0  0  0  0  0  0  0  0
   -1.8917   -2.9329    3.4348 H   0  0  0  0  0  0  0  0  0  0  0  0
   -4.2095   -3.2350    4.1624 H   0  0  0  0  0  0  0  0  0  0  0  0
   -5.9938   -2.7959    2.5871 H   0  0  0  0  0  0  0  0  0  0  0  0
   -5.5141   -2.0810    0.2949 H   0  0  0  0  0  0  0  0  0  0  0  0
    1.6081    0.5688    1.1328 H   0  0  0  0  0  0  0  0  0  0  0  0
    0.4259   -0.7230    1.1913 H   0  0  0  0  0  0  0  0  0  0  0  0
    3.2314   -0.6972   -0.1363 H   0  0  0  0  0  0  0  0  0  0  0  0
    2.1488   -2.0993   -0.3028 H   0  0  0  0  0  0  0  0  0  0  0  0
    2.0005   -2.2396    2.2151 H   0  0  0  0  0  0  0  0  0  0  0  0
    2.9599   -0.7637    2.3737 H   0  0  0  0  0  0  0  0  0  0  0  0
    4.0075   -4.0027    3.2231 H   0  0  0  0  0  0  0  0  0  0  0  0
    5.3611   -2.7535    3.2168 H   0  0  0  0  0  0  0  0  0  0  0  0
    3.7301   -2.2915    3.7614 H   0  0  0  0  0  0  0  0  0  0  0  0
    5.1389   -0.7794    1.4287 H   0  0  0  0  0  0  0  0  0  0  0  0
    6.0286   -2.3545    1.4297 H   0  0  0  0  0  0  0  0  0  0  0  0
    5.0066   -1.9370    0.0076 H   0  0  0  0  0  0  0  0  0  0  0  0
    1.0155    2.9251    0.9381 H   0  0  0  0  0  0  0  0  0  0  0  0
    2.7988    4.1831    2.1577 H   0  0  0  0  0  0  0  0  0  0  0  0
    5.6404    2.7172   -0.5955 H   0  0  0  0  0  0  0  0  0  0  0  0
    3.8658    1.4448   -1.8226 H   0  0  0  0  0  0  0  0  0  0  0  0
  1  2  1  0
  2  3  1  0
  3  4  1  0
  4  5  2  0
  5  6  1  0
  6  7  2  0
  7  8  1  0
  8  9  1  0
  8 10  2  0
 10 11  1  0
 11 12  2  0
 12 13  1  0
 13 14  2  0
 13 15  1  0
 15 16  1  0
 16 17  1  0
 17 18  2  0
 18 19  1  0
 19 20  2  0
 20 21  1  0
 21 22  2  0
  3 23  1  0
 23 24  1  0
 24 25  1  0
 25 26  1  0
 26 27  1  0
 27 28  1  0
 27 29  1  0
 23 30  1  0
 30 31  2  0
 30 32  1  0
 32 33  2  0
 33 34  1  0
 34 35  2  0
 35 36  1  0
 35 37  1  0
 37 38  2  0
 15  4  1  0
 22 17  1  0
 38 32  1  0
 12  6  1  0
  1 39  1  0
  1 40  1  0
  1 41  1  0
  2 42  1  0
  2 43  1  0
  3 44  1  1
  7 45  1  0
 10 46  1  0
 11 47  1  0
 16 48  1  0
 16 49  1  0
 18 50  1  0
 19 51  1  0
 20 52  1  0
 21 53  1  0
 22 54  1  0
 24 55  1  0
 24 56  1  0
 25 57  1  0
 25 58  1  0
 26 59  1  0
 26 60  1  0
 28 61  1  0
 28 62  1  0
 28 63  1  0
 29 64  1  0
 29 65  1  0
 29 66  1  0
 33 67  1  0
 34 68  1  0
 37 69  1  0
 38 70  1  0
M  END
$$$$
