@<TRIPOS>MOLECULE
*****
 70 73 0 0 0
SMALL
GASTEIGER

@<TRIPOS>ATOM
      1 C           1.0892   -1.6865   -2.9619 C.3     1  UNL1       -0.0632
      2 C          -0.1380   -0.8352   -2.7741 C.3     1  UNL1       -0.0301
      3 C          -0.4584   -0.5231   -1.3376 C.3     1  UNL1        0.0841
      4 C          -1.7172    0.3195   -1.2762 C.ar    1  UNL1        0.1339
      5 N          -1.6421    1.6395   -1.4837 N.ar    1  UNL1       -0.2315
      6 C          -2.6573    2.4869   -1.5443 C.ar    1  UNL1        0.0796
      7 C          -2.5429    3.8437   -1.7629 C.ar    1  UNL1       -0.0172
      8 C          -3.6496    4.6550   -1.8164 C.ar    1  UNL1        0.0430
      9 CL         -3.5758    6.3738   -2.0851 Cl      1  UNL1       -0.0835
     10 C          -4.9041    4.0978   -1.6473 C.ar    1  UNL1       -0.0425
     11 C          -5.0282    2.7551   -1.4300 C.ar    1  UNL1       -0.0460
     12 C          -3.9177    1.9513   -1.3774 C.ar    1  UNL1        0.0650
     13 C          -4.0178    0.5876   -1.1597 C.ar    1  UNL1        0.2621
     14 O          -5.1995    0.1683   -1.0170 O.2     1  UNL1       -0.2669
     15 N          -2.9249   -0.2350   -1.1058 N.ar    1  UNL1       -0.2903
     16 C          -3.1613   -1.6230   -0.8988 C.3     1  UNL1        0.0528
     17 C          -3.3845   -2.0609    0.4986 C.ar    1  UNL1       -0.0276
     18 C          -2.4024   -2.3179    1.4160 C.ar    1  UNL1       -0.0569
     19 C          -2.6838   -2.7378    2.7290 C.ar    1  UNL1       -0.0614
     20 C          -3.9675   -2.9113    3.1553 C.ar    1  UNL1       -0.0617
     21 C          -4.9838   -2.6566    2.2424 C.ar    1  UNL1       -0.0614
     22 C          -4.6975   -2.2502    0.9711 C.ar    1  UNL1       -0.0569
     23 N           0.6123    0.1843   -0.7213 N.am    1  UNL1       -0.2874
     24 C           1.1918   -0.2994    0.5444 C.3     1  UNL1        0.0169
     25 C           2.3673   -1.2261    0.3233 C.3     1  UNL1       -0.0243
     26 C           2.8242   -1.6446    1.7162 C.3     1  UNL1       -0.0003
     27 N           3.9590   -2.5287    1.6877 N.3     1  UNL1       -0.3083
     28 C           4.2740   -2.9327    3.0417 C.3     1  UNL1       -0.0130
     29 C           5.1018   -1.8190    1.1002 C.3     1  UNL1       -0.0130
     30 C           1.2131    1.3880   -1.2022 C.2     1  UNL1        0.2472
     31 O           0.7907    1.8694   -2.2720 O.2     1  UNL1       -0.2700
     32 C           2.2865    2.0947   -0.5229 C.ar    1  UNL1        0.0370
     33 C           2.0518    2.8763    0.5940 C.ar    1  UNL1       -0.0486
     34 C           3.0065    3.5759    1.2786 C.ar    1  UNL1       -0.0470
     35 C           4.3281    3.5204    0.8467 C.ar    1  UNL1        0.0179
     36 BR          5.7008    4.4857    1.7648 Br      1  UNL1       -0.0503
     37 C           4.5993    2.7527   -0.2617 C.ar    1  UNL1       -0.0470
     38 C           3.6187    2.0509   -0.9423 C.ar    1  UNL1       -0.0486
     39 H           1.1563   -1.9768   -4.0536 H       1  UNL1        0.0230
     40 H           1.0549   -2.6079   -2.3316 H       1  UNL1        0.0230
     41 H           2.0189   -1.1320   -2.7437 H       1  UNL1        0.0230
     42 H          -0.9991   -1.3756   -3.2616 H       1  UNL1        0.0285
     43 H          -0.0225    0.0741   -3.4029 H       1  UNL1        0.0285
     44 H          -0.6638   -1.4298   -0.7599 H       1  UNL1        0.0581
     45 H          -1.5589    4.2680   -1.8916 H       1  UNL1        0.0653
     46 H          -5.8164    4.6911   -1.6795 H       1  UNL1        0.0632
     47 H          -6.0093    2.3128   -1.2955 H       1  UNL1        0.0626
     48 H          -4.1317   -1.8555   -1.4468 H       1  UNL1        0.0543
     49 H          -2.3788   -2.2806   -1.3401 H       1  UNL1        0.0543
     50 H          -1.3693   -2.2293    1.1991 H       1  UNL1        0.0621
     51 H          -1.8917   -2.9329    3.4348 H       1  UNL1        0.0618
     52 H          -4.2095   -3.2350    4.1624 H       1  UNL1        0.0618
     53 H          -5.9938   -2.7959    2.5871 H       1  UNL1        0.0618
     54 H          -5.5141   -2.0810    0.2949 H       1  UNL1        0.0621
     55 H           1.6081    0.5688    1.1328 H       1  UNL1        0.0465
     56 H           0.4259   -0.7230    1.1913 H       1  UNL1        0.0465
     57 H           3.2314   -0.6972   -0.1363 H       1  UNL1        0.0293
     58 H           2.1488   -2.0993   -0.3028 H       1  UNL1        0.0293
     59 H           2.0005   -2.2396    2.2151 H       1  UNL1        0.0427
     60 H           2.9599   -0.7637    2.3737 H       1  UNL1        0.0427
     61 H           4.0075   -4.0027    3.2231 H       1  UNL1        0.0391
     62 H           5.3611   -2.7535    3.2168 H       1  UNL1        0.0391
     63 H           3.7301   -2.2915    3.7614 H       1  UNL1        0.0391
     64 H           5.1389   -0.7794    1.4287 H       1  UNL1        0.0391
     65 H           6.0286   -2.3545    1.4297 H       1  UNL1        0.0391
     66 H           5.0066   -1.9370    0.0076 H       1  UNL1        0.0391
     67 H           1.0155    2.9251    0.9381 H       1  UNL1        0.0625
     68 H           2.7988    4.1831    2.1577 H       1  UNL1        0.0629
     69 H           5.6404    2.7172   -0.5955 H       1  UNL1        0.0629
     70 H           3.8658    1.4448   -1.8226 H       1  UNL1        0.0625
@<TRIPOS>BOND
     1     1     2    1
     2     2     3    1
     3     3     4    1
     4     4     5   ar
     5     5     6   ar
     6     6     7   ar
     7     7     8   ar
     8     8     9    1
     9     8    10   ar
    10    10    11   ar
    11    11    12   ar
    12    12    13   ar
    13    13    14    2
    14    13    15   ar
    15    15    16    1
    16    16    17    1
    17    17    18   ar
    18    18    19   ar
    19    19    20   ar
    20    20    21   ar
    21    21    22   ar
    22     3    23    1
    23    23    24    1
    24    24    25    1
    25    25    26    1
    26    26    27    1
    27    27    28    1
    28    27    29    1
    29    23    30   am
    30    30    31    2
    31    30    32    1
    32    32    33   ar
    33    33    34   ar
    34    34    35   ar
    35    35    36    1
    36    35    37   ar
    37    37    38   ar
    38    15     4   ar
    39    22    17   ar
    40    38    32   ar
    41    12     6   ar
    42     1    39    1
    43     1    40    1
    44     1    41    1
    45     2    42    1
    46     2    43    1
    47     3    44    1
    48     7    45    1
    49    10    46    1
    50    11    47    1
    51    16    48    1
    52    16    49    1
    53    18    50    1
    54    19    51    1
    55    20    52    1
    56    21    53    1
    57    22    54    1
    58    24    55    1
    59    24    56    1
    60    25    57    1
    61    25    58    1
    62    26    59    1
    63    26    60    1
    64    28    61    1
    65    28    62    1
    66    28    63    1
    67    29    64    1
    68    29    65    1
    69    29    66    1
    70    33    67    1
    71    34    68    1
    72    37    69    1
    73    38    70    1
