@<TRIPOS>MOLECULE
*****
 57 61 0 0 0
SMALL
GASTEIGER

@<TRIPOS>ATOM
      1 C          -1.2649   -3.5327   -0.7695 C.3     1  UNL1       -0.0409
      2 C          -1.2288   -2.0509   -0.4102 C.3     1  UNL1        0.0846
      3 C          -0.0685   -1.7594    0.4601 C.2     1  UNL1        0.2302
      4 O          -0.0094   -2.1969    1.6149 O.2     1  UNL1       -0.2741
      5 N           0.9992   -0.9733   -0.0162 N.am    1  UNL1       -0.3106
      6 C           2.1624   -0.6425    0.7697 C.3     1  UNL1        0.0290
      7 C           3.4661   -0.9857    0.1763 C.3     1  UNL1       -0.0195
      8 C           3.8015   -0.1850   -1.0645 C.3     1  UNL1       -0.0455
      9 C           3.7564    1.2921   -0.7509 C.3     1  UNL1       -0.0378
     10 C           2.3637    1.6283   -0.2918 C.3     1  UNL1       -0.0455
     11 C           2.1113    0.8564    0.9880 C.3     1  UNL1       -0.0195
     12 C           3.1109    1.3006    2.0313 C.3     1  UNL1       -0.0195
     13 C           4.4789    0.8611    1.5467 C.3     1  UNL1        0.0670
     14 O           5.3807    1.1064    2.5590 O.3     1  UNL1       -0.3885
     15 C           4.7965    1.6327    0.2943 C.3     1  UNL1       -0.0211
     16 C           4.5337   -0.6014    1.2159 C.3     1  UNL1       -0.0195
     17 N          -1.1374   -1.2329   -1.5915 N.3     1  UNL1       -0.2846
     18 C          -1.2296    0.1791   -1.2702 C.3     1  UNL1        0.0380
     19 C          -2.7084    0.1317   -1.6399 C.3     1  UNL1        0.1256
     20 O          -3.5641   -0.1396   -0.5996 O.3     1  UNL1       -0.4834
     21 C          -4.7374    0.4361   -0.2003 C.ar    1  UNL1        0.1560
     22 C          -5.3701   -0.1016    0.9340 C.ar    1  UNL1       -0.0171
     23 C          -6.5413    0.4242    1.3856 C.ar    1  UNL1       -0.0581
     24 C          -7.1827    1.4903    0.7897 C.ar    1  UNL1       -0.0588
     25 C          -6.5774    2.0304   -0.3234 C.ar    1  UNL1       -0.0228
     26 C          -5.3713    1.4989   -0.7992 C.ar    1  UNL1        0.1648
     27 F          -4.8478    2.0820   -1.8874 F       1  UNL1       -0.2017
     28 C          -2.3455   -1.1511   -2.3832 C.3     1  UNL1        0.0380
     29 H          -2.3131   -3.7912   -0.9546 H       1  UNL1        0.0249
     30 H          -0.9370   -4.0776    0.1391 H       1  UNL1        0.0249
     31 H          -0.5715   -3.7765   -1.5795 H       1  UNL1        0.0249
     32 H          -2.1520   -1.8384    0.1619 H       1  UNL1        0.0556
     33 H           1.0333   -0.5744   -0.9894 H       1  UNL1        0.1490
     34 H           2.0772   -1.1120    1.7703 H       1  UNL1        0.0504
     35 H           3.6496   -2.0521   -0.0127 H       1  UNL1        0.0320
     36 H           3.0827   -0.3796   -1.8889 H       1  UNL1        0.0271
     37 H           4.8482   -0.4473   -1.3418 H       1  UNL1        0.0271
     38 H           3.9693    1.8875   -1.6467 H       1  UNL1        0.0302
     39 H           1.6580    1.3528   -1.0853 H       1  UNL1        0.0271
     40 H           2.2424    2.7052   -0.0536 H       1  UNL1        0.0271
     41 H           1.0748    1.1141    1.3088 H       1  UNL1        0.0320
     42 H           3.1047    2.3932    2.0581 H       1  UNL1        0.0296
     43 H           2.8487    0.8590    3.0038 H       1  UNL1        0.0296
     44 H           6.2702    1.3006    2.1587 H       1  UNL1        0.2102
     45 H           5.7724    1.3156   -0.0713 H       1  UNL1        0.0296
     46 H           4.7402    2.7072    0.5371 H       1  UNL1        0.0296
     47 H           4.2767   -1.1814    2.1239 H       1  UNL1        0.0296
     48 H           5.5341   -0.8309    0.8423 H       1  UNL1        0.0296
     49 H          -0.6656    0.7660   -2.0194 H       1  UNL1        0.0463
     50 H          -1.0476    0.3982   -0.2146 H       1  UNL1        0.0463
     51 H          -2.9908    0.9625   -2.2948 H       1  UNL1        0.0759
     52 H          -4.9310   -0.9405    1.4601 H       1  UNL1        0.0655
     53 H          -7.0122   -0.0007    2.2566 H       1  UNL1        0.0619
     54 H          -8.1139    1.8720    1.1881 H       1  UNL1        0.0618
     55 H          -7.0581    2.8596   -0.8026 H       1  UNL1        0.0647
     56 H          -3.0583   -1.9671   -2.2623 H       1  UNL1        0.0463
     57 H          -2.1084   -0.9213   -3.4267 H       1  UNL1        0.0463
@<TRIPOS>BOND
     1     1     2    1
     2     2     3    1
     3     3     4    2
     4     3     5   am
     5     5     6    1
     6     6     7    1
     7     7     8    1
     8     8     9    1
     9     9    10    1
    10    10    11    1
    11    11    12    1
    12    12    13    1
    13    13    14    1
    14    13    15    1
    15    13    16    1
    16     2    17    1
    17    17    18    1
    18    18    19    1
    19    19    20    1
    20    20    21    1
    21    21    22   ar
    22    22    23   ar
    23    23    24   ar
    24    24    25   ar
    25    25    26   ar
    26    26    27    1
    27    19    28    1
    28    11     6    1
    29    28    17    1
    30    16     7    1
    31    26    21   ar
    32    15     9    1
    33     1    29    1
    34     1    30    1
    35     1    31    1
    36     2    32    1
    37     5    33    1
    38     6    34    1
    39     7    35    1
    40     8    36    1
    41     8    37    1
    42     9    38    1
    43    10    39    1
    44    10    40    1
    45    11    41    1
    46    12    42    1
    47    12    43    1
    48    14    44    1
    49    15    45    1
    50    15    46    1
    51    16    47    1
    52    16    48    1
    53    18    49    1
    54    18    50    1
    55    19    51    1
    56    22    52    1
    57    23    53    1
    58    24    54    1
    59    25    55    1
    60    28    56    1
    61    28    57    1
