@<TRIPOS>MOLECULE
*****
 53 56 0 0 0
SMALL
GASTEIGER

@<TRIPOS>ATOM
      1 N          -1.0465   -4.2446    3.1795 N.pl3   1  UNL1       -0.3134
      2 C          -2.1068   -4.1010    2.2534 C.2     1  UNL1        0.2766
      3 N          -2.1223   -3.1202    1.3887 N.2     1  UNL1       -0.2228
      4 C          -3.2332   -2.9853    0.4225 C.3     1  UNL1        0.1259
      5 C          -2.9330   -4.0735   -0.5940 C.3     1  UNL1        0.1196
      6 F          -3.8596   -4.0957   -1.5647 F       1  UNL1       -0.2462
      7 C          -3.0992   -1.6836   -0.2222 C.ar    1  UNL1        0.0224
      8 C          -2.0096   -0.8722    0.1092 C.ar    1  UNL1       -0.0320
      9 C          -1.7787    0.3512   -0.4583 C.ar    1  UNL1        0.0369
     10 N          -0.6726    1.2088   -0.1505 N.am    1  UNL1       -0.2802
     11 C           0.5630    1.0500   -0.8277 C.2     1  UNL1        0.2666
     12 O           0.6155    0.1085   -1.6841 O.2     1  UNL1       -0.2682
     13 C           1.7488    1.8696   -0.6186 C.ar    1  UNL1        0.1257
     14 C           2.9110    1.6368   -1.3240 C.ar    1  UNL1       -0.0300
     15 C           4.0460    2.3984   -1.1875 C.ar    1  UNL1       -0.0427
     16 C           4.0602    3.4764   -0.2948 C.ar    1  UNL1        0.0430
     17 C           5.1837    4.3234   -0.1624 C.1     1  UNL1       -0.0645
     18 C           6.1968    5.0596   -0.0429 C.1     1  UNL1       -0.0936
     19 C           7.3529    5.9283    0.1053 C.3     1  UNL1        0.0211
     20 C           8.3875    5.9194   -1.0244 C.3     1  UNL1       -0.0382
     21 C           7.4016    7.0346   -0.8854 C.3     1  UNL1       -0.0382
     22 C           2.8785    3.6740    0.3927 C.ar    1  UNL1        0.0438
     23 N           1.7810    2.9125    0.2399 N.ar    1  UNL1       -0.2491
     24 C          -2.7024    0.7815   -1.4149 C.ar    1  UNL1       -0.0023
     25 C          -3.7833   -0.0109   -1.7511 C.ar    1  UNL1        0.1605
     26 F          -4.6829    0.3920   -2.6868 F       1  UNL1       -0.2024
     27 C          -3.9997   -1.2370   -1.1693 C.ar    1  UNL1        0.1640
     28 F          -5.0786   -1.9975   -1.4894 F       1  UNL1       -0.2021
     29 C          -4.5009   -3.1774    1.1707 C.3     1  UNL1        0.0251
     30 C          -4.4808   -4.3825    2.0413 C.3     1  UNL1        0.1998
     31 C          -5.5031   -5.4289    1.6478 C.3     1  UNL1        0.4266
     32 F          -5.4506   -6.5305    2.4782 F       1  UNL1       -0.1669
     33 F          -5.3908   -5.7558    0.3296 F       1  UNL1       -0.1669
     34 F          -6.7995   -4.9074    1.8125 F       1  UNL1       -0.1669
     35 O          -3.2080   -4.9657    2.1747 O.2     1  UNL1       -0.4534
     36 H          -0.0520   -4.1559    2.8376 H       1  UNL1        0.1466
     37 H          -1.1423   -4.4352    4.1996 H       1  UNL1        0.1466
     38 H          -1.9541   -3.7666   -1.0607 H       1  UNL1        0.0643
     39 H          -2.7207   -5.0466   -0.1167 H       1  UNL1        0.0643
     40 H          -1.2940   -1.2154    0.8546 H       1  UNL1        0.0640
     41 H          -0.7458    1.9539    0.5602 H       1  UNL1        0.1552
     42 H           2.8896    0.7914   -2.0178 H       1  UNL1        0.0641
     43 H           4.9573    2.2154   -1.7375 H       1  UNL1        0.0631
     44 H           7.7939    6.0861    1.1006 H       1  UNL1        0.0433
     45 H           9.4585    6.0576   -0.7420 H       1  UNL1        0.0277
     46 H           8.2239    5.1189   -1.7777 H       1  UNL1        0.0277
     47 H           6.5965    7.1536   -1.6545 H       1  UNL1        0.0277
     48 H           7.8241    7.9887   -0.5067 H       1  UNL1        0.0277
     49 H           2.8867    4.5177    1.1009 H       1  UNL1        0.0842
     50 H          -2.5339    1.7464   -1.8694 H       1  UNL1        0.0666
     51 H          -4.6746   -2.2555    1.7709 H       1  UNL1        0.0331
     52 H          -5.4037   -3.2613    0.5111 H       1  UNL1        0.0331
     53 H          -4.7944   -4.0488    3.0864 H       1  UNL1        0.0826
@<TRIPOS>BOND
     1     1     2    1
     2     2     3    2
     3     3     4    1
     4     4     5    1
     5     5     6    1
     6     4     7    1
     7     7     8   ar
     8     8     9   ar
     9     9    10    1
    10    10    11   am
    11    11    12    2
    12    11    13    1
    13    13    14   ar
    14    14    15   ar
    15    15    16   ar
    16    16    17    1
    17    17    18    3
    18    18    19    1
    19    19    20    1
    20    20    21    1
    21    16    22   ar
    22    22    23   ar
    23     9    24   ar
    24    24    25   ar
    25    25    26    1
    26    25    27   ar
    27    27    28    1
    28     4    29    1
    29    29    30    1
    30    30    31    1
    31    31    32    1
    32    31    33    1
    33    31    34    1
    34    30    35    1
    35    35     2    1
    36    27     7   ar
    37    23    13   ar
    38    21    19    1
    39     1    36    1
    40     1    37    1
    41     5    38    1
    42     5    39    1
    43     8    40    1
    44    10    41    1
    45    14    42    1
    46    15    43    1
    47    19    44    1
    48    20    45    1
    49    20    46    1
    50    21    47    1
    51    21    48    1
    52    22    49    1
    53    24    50    1
    54    29    51    1
    55    29    52    1
    56    30    53    1
