
     RDKit          3D

 53 56  0  0  0  0  0  0  0  0999 V2000
   -1.0465   -4.2446    3.1795 N   0  0  0  0  0  0  0  0  0  0  0  0
   -2.1068   -4.1010    2.2534 C   0  0  0  0  0  0  0  0  0  0  0  0
   -2.1223   -3.1202    1.3887 N   0  0  0  0  0  0  0  0  0  0  0  0
   -3.2332   -2.9853    0.4225 C   0  0  2  0  0  0  0  0  0  0  0  0
   -2.9330   -4.0735   -0.5940 C   0  0  0  0  0  0  0  0  0  0  0  0
   -3.8596   -4.0957   -1.5647 F   0  0  0  0  0  0  0  0  0  0  0  0
   -3.0992   -1.6836   -0.2222 C   0  0  0  0  0  0  0  0  0  0  0  0
   -2.0096   -0.8722    0.1092 C   0  0  0  0  0  0  0  0  0  0  0  0
   -1.7787    0.3512   -0.4583 C   0  0  0  0  0  0  0  0  0  0  0  0
   -0.6726    1.2088   -0.1505 N   0  0  0  0  0  0  0  0  0  0  0  0
    0.5630    1.0500   -0.8277 C   0  0  0  0  0  0  0  0  0  0  0  0
    0.6155    0.1085   -1.6841 O   0  0  0  0  0  0  0  0  0  0  0  0
    1.7488    1.8696   -0.6186 C   0  0  0  0  0  0  0  0  0  0  0  0
    2.9110    1.6368   -1.3240 C   0  0  0  0  0  0  0  0  0  0  0  0
    4.0460    2.3984   -1.1875 C   0  0  0  0  0  0  0  0  0  0  0  0
    4.0602    3.4764   -0.2948 C   0  0  0  0  0  0  0  0  0  0  0  0
    5.1837    4.3234   -0.1624 C   0  0  0  0  0  0  0  0  0  0  0  0
    6.1968    5.0596   -0.0429 C   0  0  0  0  0  0  0  0  0  0  0  0
    7.3529    5.9283    0.1053 C   0  0  0  0  0  0  0  0  0  0  0  0
    8.3875    5.9194   -1.0244 C   0  0  0  0  0  0  0  0  0  0  0  0
    7.4016    7.0346   -0.8854 C   0  0  0  0  0  0  0  0  0  0  0  0
    2.8785    3.6740    0.3927 C   0  0  0  0  0  0  0  0  0  0  0  0
    1.7810    2.9125    0.2399 N   0  0  0  0  0  0  0  0  0  0  0  0
   -2.7024    0.7815   -1.4149 C   0  0  0  0  0  0  0  0  0  0  0  0
   -3.7833   -0.0109   -1.7511 C   0  0  0  0  0  0  0  0  0  0  0  0
   -4.6829    0.3920   -2.6868 F   0  0  0  0  0  0  0  0  0  0  0  0
   -3.9997   -1.2370   -1.1693 C   0  0  0  0  0  0  0  0  0  0  0  0
   -5.0786   -1.9975   -1.4894 F   0  0  0  0  0  0  0  0  0  0  0  0
   -4.5009   -3.1774    1.1707 C   0  0  0  0  0  0  0  0  0  0  0  0
   -4.4808   -4.3825    2.0413 C   0  0  1  0  0  0  0  0  0  0  0  0
   -5.5031   -5.4289    1.6478 C   0  0  0  0  0  0  0  0  0  0  0  0
   -5.4506   -6.5305    2.4782 F   0  0  0  0  0  0  0  0  0  0  0  0
   -5.3908   -5.7558    0.3296 F   0  0  0  0  0  0  0  0  0  0  0  0
   -6.7995   -4.9074    1.8125 F   0  0  0  0  0  0  0  0  0  0  0  0
   -3.2080   -4.9657    2.1747 O   0  0  0  0  0  0  0  0  0  0  0  0
   -0.0520   -4.1559    2.8376 H   0  0  0  0  0  0  0  0  0  0  0  0
   -1.1423   -4.4352    4.1996 H   0  0  0  0  0  0  0  0  0  0  0  0
   -1.9541   -3.7666   -1.0607 H   0  0  0  0  0  0  0  0  0  0  0  0
   -2.7207   -5.0466   -0.1167 H   0  0  0  0  0  0  0  0  0  0  0  0
   -1.2940   -1.2154    0.8546 H   0  0  0  0  0  0  0  0  0  0  0  0
   -0.7458    1.9539    0.5602 H   0  0  0  0  0  0  0  0  0  0  0  0
    2.8896    0.7914   -2.0178 H   0  0  0  0  0  0  0  0  0  0  0  0
    4.9573    2.2154   -1.7375 H   0  0  0  0  0  0  0  0  0  0  0  0
    7.7939    6.0861    1.1006 H   0  0  0  0  0  0  0  0  0  0  0  0
    9.4585    6.0576   -0.7420 H   0  0  0  0  0  0  0  0  0  0  0  0
    8.2239    5.1189   -1.7777 H   0  0  0  0  0  0  0  0  0  0  0  0
    6.5965    7.1536   -1.6545 H   0  0  0  0  0  0  0  0  0  0  0  0
    7.8241    7.9887   -0.5067 H   0  0  0  0  0  0  0  0  0  0  0  0
    2.8867    4.5177    1.1009 H   0  0  0  0  0  0  0  0  0  0  0  0
   -2.5339    1.7464   -1.8694 H   0  0  0  0  0  0  0  0  0  0  0  0
   -4.6746   -2.2555    1.7709 H   0  0  0  0  0  0  0  0  0  0  0  0
   -5.4037   -3.2613    0.5111 H   0  0  0  0  0  0  0  0  0  0  0  0
   -4.7944   -4.0488    3.0864 H   0  0  0  0  0  0  0  0  0  0  0  0
  1  2  1  0
  2  3  2  0
  3  4  1  0
  4  5  1  6
  5  6  1  0
  4  7  1  0
  7  8  2  0
  8  9  1  0
  9 10  1  0
 10 11  1  0
 11 12  2  0
 11 13  1  0
 13 14  2  0
 14 15  1  0
 15 16  2  0
 16 17  1  0
 17 18  3  0
 18 19  1  0
 19 20  1  0
 20 21  1  0
 16 22  1  0
 22 23  2  0
  9 24  2  0
 24 25  1  0
 25 26  1  0
 25 27  2  0
 27 28  1  0
  4 29  1  0
 29 30  1  0
 30 31  1  0
 31 32  1  0
 31 33  1  0
 31 34  1  0
 30 35  1  0
 35  2  1  0
 27  7  1  0
 23 13  1  0
 21 19  1  0
  1 36  1  0
  1 37  1  0
  5 38  1  0
  5 39  1  0
  8 40  1  0
 10 41  1  0
 14 42  1  0
 15 43  1  0
 19 44  1  0
 20 45  1  0
 20 46  1  0
 21 47  1  0
 21 48  1  0
 22 49  1  0
 24 50  1  0
 29 51  1  0
 29 52  1  0
 30 53  1  1
M  END
$$$$
