@<TRIPOS>MOLECULE
*****
 77 82 0 0 0
SMALL
GASTEIGER

@<TRIPOS>ATOM
      1 C          12.8116   -0.8045    1.4335 C.3     1  UNL1        0.0004
      2 N          11.4017   -0.5619    1.0924 N.am    1  UNL1       -0.3144
      3 C          10.4536   -1.1996    1.9194 C.2     1  UNL1        0.2438
      4 O          10.8291   -1.9325    2.8905 O.2     1  UNL1       -0.2702
      5 C           9.0347   -1.0412    1.6917 C.ar    1  UNL1        0.0367
      6 C           8.5767   -0.2692    0.6646 C.ar    1  UNL1       -0.0491
      7 C           7.2046   -0.1464    0.4937 C.ar    1  UNL1       -0.0533
      8 C           6.2777   -0.7650    1.3105 C.ar    1  UNL1       -0.0178
      9 C           4.8558   -0.5565    1.0392 C.ar    1  UNL1       -0.0178
     10 C           4.4133    0.6334    0.5082 C.ar    1  UNL1       -0.0523
     11 C           3.0525    0.8345    0.2494 C.ar    1  UNL1       -0.0392
     12 C           2.1001   -0.1250    0.5056 C.ar    1  UNL1        0.0455
     13 N           0.7051    0.1094    0.2220 N.am    1  UNL1       -0.1920
     14 C           0.0876    1.2319   -0.3653 C.2     1  UNL1        0.3219
     15 O           0.7041    2.2728   -0.7652 O.2     1  UNL1       -0.2512
     16 N          -1.3424    1.0476   -0.4554 N.am    1  UNL1       -0.2240
     17 C          -2.2065    2.1094   -0.7195 C.ar    1  UNL1        0.1364
     18 C          -2.7607    2.8420    0.3007 C.ar    1  UNL1        0.0404
     19 C          -3.5968    3.8964   -0.0004 C.ar    1  UNL1        0.2191
     20 O          -4.1856    4.6701    0.9925 O.3     1  UNL1       -0.4795
     21 C          -5.0387    5.7601    0.6920 C.3     1  UNL1        0.0804
     22 N          -3.8388    4.1684   -1.2807 N.ar    1  UNL1       -0.2013
     23 C          -3.3144    3.4736   -2.2912 C.ar    1  UNL1        0.1219
     24 N          -2.5019    2.4489   -1.9852 N.ar    1  UNL1       -0.2200
     25 C          -1.5967   -0.3319   -0.2324 C.3     1  UNL1        0.1240
     26 C          -2.7474   -0.6225    0.6577 C.3     1  UNL1       -0.0095
     27 C          -4.0821   -0.5969   -0.0609 C.3     1  UNL1        0.0017
     28 N          -4.1270   -1.3138   -1.2459 N.3     1  UNL1       -0.2965
     29 C          -5.3188   -1.3342   -1.9940 C.3     1  UNL1        0.0415
     30 C          -6.5387   -1.8462   -1.3597 C.ar    1  UNL1        0.0581
     31 N          -6.9043   -3.1489   -1.5089 N.ar    1  UNL1       -0.2583
     32 C          -7.9815   -3.6391   -0.9160 C.ar    1  UNL1        0.0279
     33 C          -8.8043   -2.8817   -0.1142 C.ar    1  UNL1       -0.0433
     34 C          -8.4766   -1.5781    0.0605 C.ar    1  UNL1       -0.0557
     35 C          -7.3281   -1.0638   -0.5746 C.ar    1  UNL1       -0.0279
     36 C          -7.1022    0.3773   -0.3433 C.3     1  UNL1       -0.0380
     37 C          -3.0067   -1.2635   -2.1125 C.3     1  UNL1        0.0017
     38 C          -1.6803   -1.1590   -1.4648 C.3     1  UNL1       -0.0095
     39 C          -0.3550   -0.8007    0.5079 C.2     1  UNL1        0.2516
     40 O          -0.3764   -1.8151    1.2125 O.2     1  UNL1       -0.2724
     41 C           2.5462   -1.3082    1.0346 C.ar    1  UNL1       -0.0392
     42 C           3.9071   -1.5131    1.2951 C.ar    1  UNL1       -0.0523
     43 C           6.7594   -1.5375    2.3395 C.ar    1  UNL1       -0.0533
     44 C           8.1126   -1.6757    2.5285 C.ar    1  UNL1       -0.0491
     45 H          12.9020   -1.8228    1.8578 H       1  UNL1        0.0426
     46 H          13.0503   -0.0607    2.2138 H       1  UNL1        0.0426
     47 H          13.4706   -0.6345    0.5808 H       1  UNL1        0.0426
     48 H          11.1683    0.0463    0.2868 H       1  UNL1        0.1487
     49 H           9.2435    0.2450   -0.0141 H       1  UNL1        0.0625
     50 H           6.8486    0.4605   -0.3163 H       1  UNL1        0.0624
     51 H           5.1416    1.4002    0.2997 H       1  UNL1        0.0624
     52 H           2.7683    1.7885   -0.1662 H       1  UNL1        0.0636
     53 H          -2.5361    2.5860    1.3064 H       1  UNL1        0.0705
     54 H          -5.9074    5.8117    1.3983 H       1  UNL1        0.0660
     55 H          -4.4664    6.7285    0.7571 H       1  UNL1        0.0660
     56 H          -5.4487    5.7210   -0.3321 H       1  UNL1        0.0660
     57 H          -3.5625    3.7634   -3.3032 H       1  UNL1        0.1049
     58 H          -2.7711    0.1813    1.4453 H       1  UNL1        0.0303
     59 H          -2.5696   -1.5673    1.1994 H       1  UNL1        0.0303
     60 H          -4.2897    0.4758   -0.2298 H       1  UNL1        0.0427
     61 H          -4.8393   -0.9367    0.7082 H       1  UNL1        0.0427
     62 H          -5.1111   -1.9517   -2.9429 H       1  UNL1        0.0491
     63 H          -5.5527   -0.2969   -2.3801 H       1  UNL1        0.0491
     64 H          -8.2880   -4.6917   -1.0283 H       1  UNL1        0.0829
     65 H          -9.6922   -3.3105    0.3691 H       1  UNL1        0.0633
     66 H          -9.0995   -0.9609    0.6831 H       1  UNL1        0.0621
     67 H          -6.7095    0.5506    0.6833 H       1  UNL1        0.0278
     68 H          -6.4861    0.8525   -1.0972 H       1  UNL1        0.0278
     69 H          -8.0991    0.9014   -0.3455 H       1  UNL1        0.0278
     70 H          -3.1340   -0.3474   -2.7640 H       1  UNL1        0.0427
     71 H          -3.0418   -2.1139   -2.8308 H       1  UNL1        0.0427
     72 H          -0.8879   -0.7864   -2.1708 H       1  UNL1        0.0303
     73 H          -1.3299   -2.1986   -1.2039 H       1  UNL1        0.0303
     74 H           1.8389   -2.0969    1.2520 H       1  UNL1        0.0636
     75 H           4.2334   -2.4563    1.7146 H       1  UNL1        0.0624
     76 H           6.0477   -2.0310    2.9925 H       1  UNL1        0.0624
     77 H           8.4881   -2.2930    3.3465 H       1  UNL1        0.0625
@<TRIPOS>BOND
     1     1     2    1
     2     2     3   am
     3     3     4    2
     4     3     5    1
     5     5     6   ar
     6     6     7   ar
     7     7     8   ar
     8     8     9    1
     9     9    10   ar
    10    10    11   ar
    11    11    12   ar
    12    12    13    1
    13    13    14   am
    14    14    15    2
    15    14    16   am
    16    16    17    1
    17    17    18   ar
    18    18    19   ar
    19    19    20    1
    20    20    21    1
    21    19    22   ar
    22    22    23   ar
    23    23    24   ar
    24    16    25    1
    25    25    26    1
    26    26    27    1
    27    27    28    1
    28    28    29    1
    29    29    30    1
    30    30    31   ar
    31    31    32   ar
    32    32    33   ar
    33    33    34   ar
    34    34    35   ar
    35    35    36    1
    36    28    37    1
    37    37    38    1
    38    25    39    1
    39    39    40    2
    40    12    41   ar
    41    41    42   ar
    42     8    43   ar
    43    43    44   ar
    44    44     5   ar
    45    42     9   ar
    46    39    13   am
    47    24    17   ar
    48    38    25    1
    49    35    30   ar
    50     1    45    1
    51     1    46    1
    52     1    47    1
    53     2    48    1
    54     6    49    1
    55     7    50    1
    56    10    51    1
    57    11    52    1
    58    18    53    1
    59    21    54    1
    60    21    55    1
    61    21    56    1
    62    23    57    1
    63    26    58    1
    64    26    59    1
    65    27    60    1
    66    27    61    1
    67    29    62    1
    68    29    63    1
    69    32    64    1
    70    33    65    1
    71    34    66    1
    72    36    67    1
    73    36    68    1
    74    36    69    1
    75    37    70    1
    76    37    71    1
    77    38    72    1
    78    38    73    1
    79    41    74    1
    80    42    75    1
    81    43    76    1
    82    44    77    1
