@<TRIPOS>MOLECULE
*****
 56 59 0 0 0
SMALL
GASTEIGER

@<TRIPOS>ATOM
      1 C          -6.2402    1.2941   -0.5779 C.3     1  UNL1       -0.0393
      2 C          -5.0491    0.7354    0.1177 C.ar    1  UNL1       -0.0438
      3 C          -3.8193    1.3227   -0.1865 C.ar    1  UNL1       -0.0162
      4 C          -2.6962    0.8333    0.4319 C.ar    1  UNL1        0.1287
      5 O          -1.4115    1.3441    0.2036 O.3     1  UNL1       -0.4560
      6 C          -0.6152    0.8144   -0.8242 C.ar    1  UNL1        0.1287
      7 C          -0.6486    1.3643   -2.0784 C.ar    1  UNL1       -0.0193
      8 C           0.1351    0.8457   -3.1010 C.ar    1  UNL1       -0.0580
      9 C           0.9577   -0.2350   -2.8566 C.ar    1  UNL1       -0.0569
     10 C           1.0062   -0.8011   -1.6053 C.ar    1  UNL1       -0.0268
     11 C           1.8969   -1.9481   -1.3745 C.3     1  UNL1        0.0373
     12 N           3.1609   -1.5244   -0.8747 N.am    1  UNL1       -0.3060
     13 C           4.2217   -0.9552   -1.6181 C.2     1  UNL1        0.2606
     14 O           4.1013   -0.7799   -2.8494 O.2     1  UNL1       -0.2686
     15 C           5.4822   -0.5618   -0.9545 C.ar    1  UNL1        0.1028
     16 C           5.8027   -0.6546    0.3811 C.ar    1  UNL1       -0.0241
     17 C           7.0817   -0.1885    0.6091 C.ar    1  UNL1        0.0018
     18 C           7.9039   -0.0450    1.7080 C.ar    1  UNL1       -0.0342
     19 C           9.1851    0.4747    1.6137 C.ar    1  UNL1        0.0417
     20 CL         10.2448    0.6673    2.9956 Cl      1  UNL1       -0.0835
     21 C           9.6391    0.8580    0.3650 C.ar    1  UNL1       -0.0414
     22 C           8.8184    0.7150   -0.7325 C.ar    1  UNL1       -0.0364
     23 C           7.5399    0.1961   -0.6364 C.ar    1  UNL1        0.0471
     24 N           6.5616   -0.0375   -1.5600 N.ar    1  UNL1       -0.3506
     25 C           0.2119   -0.2616   -0.6028 C.ar    1  UNL1       -0.0147
     26 C          -2.8067   -0.2149    1.3293 C.ar    1  UNL1       -0.0191
     27 C          -4.0307   -0.7786    1.6138 C.ar    1  UNL1       -0.0548
     28 C          -5.1612   -0.2974    1.0012 C.ar    1  UNL1       -0.0437
     29 C          -6.4655   -0.8999    1.3130 C.3     1  UNL1       -0.0174
     30 C          -7.2967   -0.0574    2.2552 C.3     1  UNL1        0.0487
     31 C          -8.5876   -0.6941    2.5411 C.2     1  UNL1        0.3050
     32 O          -8.8459   -1.8024    1.9736 O.2     1  UNL1       -0.2510
     33 O          -9.5308   -0.1455    3.3965 O.3     1  UNL1       -0.4806
     34 H          -5.9017    1.6014   -1.6036 H       1  UNL1        0.0278
     35 H          -7.0206    0.5269   -0.7370 H       1  UNL1        0.0278
     36 H          -6.5897    2.1915   -0.0272 H       1  UNL1        0.0278
     37 H          -3.7347    2.1283   -0.8769 H       1  UNL1        0.0657
     38 H          -1.2970    2.2140   -2.2643 H       1  UNL1        0.0654
     39 H           0.1318    1.2549   -4.0957 H       1  UNL1        0.0619
     40 H           1.5453   -0.6170   -3.6757 H       1  UNL1        0.0621
     41 H           1.4020   -2.7115   -0.7308 H       1  UNL1        0.0512
     42 H           2.0515   -2.4839   -2.3585 H       1  UNL1        0.0512
     43 H           3.3219   -1.6500    0.1647 H       1  UNL1        0.1494
     44 H           5.1320   -1.0409    1.1358 H       1  UNL1        0.0646
     45 H           7.5331   -0.3511    2.6843 H       1  UNL1        0.0639
     46 H          10.6544    1.2723    0.2767 H       1  UNL1        0.0633
     47 H           9.1952    1.0245   -1.7078 H       1  UNL1        0.0639
     48 H           6.6720    0.1735   -2.5791 H       1  UNL1        0.1660
     49 H           0.2441   -0.7034    0.3882 H       1  UNL1        0.0657
     50 H          -1.9036   -0.5937    1.8149 H       1  UNL1        0.0654
     51 H          -4.1143   -1.5905    2.3083 H       1  UNL1        0.0622
     52 H          -7.0419   -1.1680    0.3976 H       1  UNL1        0.0318
     53 H          -6.3121   -1.8850    1.8442 H       1  UNL1        0.0318
     54 H          -6.7112    0.1014    3.1856 H       1  UNL1        0.0381
     55 H          -7.4951    0.9386    1.7980 H       1  UNL1        0.0381
     56 H         -10.5075   -0.4384    3.2415 H       1  UNL1        0.2951
@<TRIPOS>BOND
     1     1     2    1
     2     2     3   ar
     3     3     4   ar
     4     4     5    1
     5     5     6    1
     6     6     7   ar
     7     7     8   ar
     8     8     9   ar
     9     9    10   ar
    10    10    11    1
    11    11    12    1
    12    12    13   am
    13    13    14    2
    14    13    15    1
    15    15    16   ar
    16    16    17   ar
    17    17    18   ar
    18    18    19   ar
    19    19    20    1
    20    19    21   ar
    21    21    22   ar
    22    22    23   ar
    23    23    24   ar
    24    10    25   ar
    25     4    26   ar
    26    26    27   ar
    27    27    28   ar
    28    28    29    1
    29    29    30    1
    30    30    31    1
    31    31    32    2
    32    31    33    1
    33    28     2   ar
    34    25     6   ar
    35    24    15   ar
    36    23    17   ar
    37     1    34    1
    38     1    35    1
    39     1    36    1
    40     3    37    1
    41     7    38    1
    42     8    39    1
    43     9    40    1
    44    11    41    1
    45    11    42    1
    46    12    43    1
    47    16    44    1
    48    18    45    1
    49    21    46    1
    50    22    47    1
    51    24    48    1
    52    25    49    1
    53    26    50    1
    54    27    51    1
    55    29    52    1
    56    29    53    1
    57    30    54    1
    58    30    55    1
    59    33    56    1
