
     RDKit          3D

 56 59  0  0  0  0  0  0  0  0999 V2000
   -6.2402    1.2941   -0.5779 C   0  0  0  0  0  0  0  0  0  0  0  0
   -5.0491    0.7354    0.1177 C   0  0  0  0  0  0  0  0  0  0  0  0
   -3.8193    1.3227   -0.1865 C   0  0  0  0  0  0  0  0  0  0  0  0
   -2.6962    0.8333    0.4319 C   0  0  0  0  0  0  0  0  0  0  0  0
   -1.4115    1.3441    0.2036 O   0  0  0  0  0  0  0  0  0  0  0  0
   -0.6152    0.8144   -0.8242 C   0  0  0  0  0  0  0  0  0  0  0  0
   -0.6486    1.3643   -2.0784 C   0  0  0  0  0  0  0  0  0  0  0  0
    0.1351    0.8457   -3.1010 C   0  0  0  0  0  0  0  0  0  0  0  0
    0.9577   -0.2350   -2.8566 C   0  0  0  0  0  0  0  0  0  0  0  0
    1.0062   -0.8011   -1.6053 C   0  0  0  0  0  0  0  0  0  0  0  0
    1.8969   -1.9481   -1.3745 C   0  0  0  0  0  0  0  0  0  0  0  0
    3.1609   -1.5244   -0.8747 N   0  0  0  0  0  0  0  0  0  0  0  0
    4.2217   -0.9552   -1.6181 C   0  0  0  0  0  0  0  0  0  0  0  0
    4.1013   -0.7799   -2.8494 O   0  0  0  0  0  0  0  0  0  0  0  0
    5.4822   -0.5618   -0.9545 C   0  0  0  0  0  0  0  0  0  0  0  0
    5.8027   -0.6546    0.3811 C   0  0  0  0  0  0  0  0  0  0  0  0
    7.0817   -0.1885    0.6091 C   0  0  0  0  0  0  0  0  0  0  0  0
    7.9039   -0.0450    1.7080 C   0  0  0  0  0  0  0  0  0  0  0  0
    9.1851    0.4747    1.6137 C   0  0  0  0  0  0  0  0  0  0  0  0
   10.2448    0.6673    2.9956 Cl  0  0  0  0  0  0  0  0  0  0  0  0
    9.6391    0.8580    0.3650 C   0  0  0  0  0  0  0  0  0  0  0  0
    8.8184    0.7150   -0.7325 C   0  0  0  0  0  0  0  0  0  0  0  0
    7.5399    0.1961   -0.6364 C   0  0  0  0  0  0  0  0  0  0  0  0
    6.5616   -0.0375   -1.5600 N   0  0  0  0  0  0  0  0  0  0  0  0
    0.2119   -0.2616   -0.6028 C   0  0  0  0  0  0  0  0  0  0  0  0
   -2.8067   -0.2149    1.3293 C   0  0  0  0  0  0  0  0  0  0  0  0
   -4.0307   -0.7786    1.6138 C   0  0  0  0  0  0  0  0  0  0  0  0
   -5.1612   -0.2974    1.0012 C   0  0  0  0  0  0  0  0  0  0  0  0
   -6.4655   -0.8999    1.3130 C   0  0  0  0  0  0  0  0  0  0  0  0
   -7.2967   -0.0574    2.2552 C   0  0  0  0  0  0  0  0  0  0  0  0
   -8.5876   -0.6941    2.5411 C   0  0  0  0  0  0  0  0  0  0  0  0
   -8.8459   -1.8024    1.9736 O   0  0  0  0  0  0  0  0  0  0  0  0
   -9.5308   -0.1455    3.3965 O   0  0  0  0  0  0  0  0  0  0  0  0
   -5.9017    1.6014   -1.6036 H   0  0  0  0  0  0  0  0  0  0  0  0
   -7.0206    0.5269   -0.7370 H   0  0  0  0  0  0  0  0  0  0  0  0
   -6.5897    2.1915   -0.0272 H   0  0  0  0  0  0  0  0  0  0  0  0
   -3.7347    2.1283   -0.8769 H   0  0  0  0  0  0  0  0  0  0  0  0
   -1.2970    2.2140   -2.2643 H   0  0  0  0  0  0  0  0  0  0  0  0
    0.1318    1.2549   -4.0957 H   0  0  0  0  0  0  0  0  0  0  0  0
    1.5453   -0.6170   -3.6757 H   0  0  0  0  0  0  0  0  0  0  0  0
    1.4020   -2.7115   -0.7308 H   0  0  0  0  0  0  0  0  0  0  0  0
    2.0515   -2.4839   -2.3585 H   0  0  0  0  0  0  0  0  0  0  0  0
    3.3219   -1.6500    0.1647 H   0  0  0  0  0  0  0  0  0  0  0  0
    5.1320   -1.0409    1.1358 H   0  0  0  0  0  0  0  0  0  0  0  0
    7.5331   -0.3511    2.6843 H   0  0  0  0  0  0  0  0  0  0  0  0
   10.6544    1.2723    0.2767 H   0  0  0  0  0  0  0  0  0  0  0  0
    9.1952    1.0245   -1.7078 H   0  0  0  0  0  0  0  0  0  0  0  0
    6.6720    0.1735   -2.5791 H   0  0  0  0  0  0  0  0  0  0  0  0
    0.2441   -0.7034    0.3882 H   0  0  0  0  0  0  0  0  0  0  0  0
   -1.9036   -0.5937    1.8149 H   0  0  0  0  0  0  0  0  0  0  0  0
   -4.1143   -1.5905    2.3083 H   0  0  0  0  0  0  0  0  0  0  0  0
   -7.0419   -1.1680    0.3976 H   0  0  0  0  0  0  0  0  0  0  0  0
   -6.3121   -1.8850    1.8442 H   0  0  0  0  0  0  0  0  0  0  0  0
   -6.7112    0.1014    3.1856 H   0  0  0  0  0  0  0  0  0  0  0  0
   -7.4951    0.9386    1.7980 H   0  0  0  0  0  0  0  0  0  0  0  0
  -10.5075   -0.4384    3.2415 H   0  0  0  0  0  0  0  0  0  0  0  0
  1  2  1  0
  2  3  2  0
  3  4  1  0
  4  5  1  0
  5  6  1  0
  6  7  2  0
  7  8  1  0
  8  9  2  0
  9 10  1  0
 10 11  1  0
 11 12  1  0
 12 13  1  0
 13 14  2  0
 13 15  1  0
 15 16  2  0
 16 17  1  0
 17 18  2  0
 18 19  1  0
 19 20  1  0
 19 21  2  0
 21 22  1  0
 22 23  2  0
 23 24  1  0
 10 25  2  0
  4 26  2  0
 26 27  1  0
 27 28  2  0
 28 29  1  0
 29 30  1  0
 30 31  1  0
 31 32  2  0
 31 33  1  0
 28  2  1  0
 25  6  1  0
 24 15  1  0
 23 17  1  0
  1 34  1  0
  1 35  1  0
  1 36  1  0
  3 37  1  0
  7 38  1  0
  8 39  1  0
  9 40  1  0
 11 41  1  0
 11 42  1  0
 12 43  1  0
 16 44  1  0
 18 45  1  0
 21 46  1  0
 22 47  1  0
 24 48  1  0
 25 49  1  0
 26 50  1  0
 27 51  1  0
 29 52  1  0
 29 53  1  0
 30 54  1  0
 30 55  1  0
 33 56  1  0
M  END
$$$$
