
     RDKit          3D

 43 44  0  0  0  0  0  0  0  0999 V2000
   -3.4169   -1.1470    0.5077 C   0  0  0  0  0  0  0  0  0  0  0  0
   -3.7355    0.2809    0.2230 C   0  0  0  0  0  0  0  0  0  0  0  0
   -5.1720    0.3150   -0.3309 C   0  0  0  0  0  0  0  0  0  0  0  0
   -3.7654    1.1022    1.5109 C   0  0  0  0  0  0  0  0  0  0  0  0
   -2.8920    0.9579   -0.8158 C   0  0  0  0  0  0  0  0  0  0  0  0
   -1.4985    1.0399   -0.5750 N   0  0  0  0  0  0  0  0  0  0  0  0
   -0.5312    0.0294   -0.6418 C   0  0  0  0  0  0  0  0  0  0  0  0
   -0.8136   -1.2311   -1.0104 N   0  0  0  0  0  0  0  0  0  0  0  0
    0.0857   -2.2000   -1.1064 C   0  0  0  0  0  0  0  0  0  0  0  0
   -0.3665   -3.5195   -1.5167 C   0  0  0  0  0  0  0  0  0  0  0  0
   -0.7469   -4.5677   -1.8438 N   0  0  0  0  0  0  0  0  0  0  0  0
    1.3537   -1.9259   -0.8240 N   0  0  0  0  0  0  0  0  0  0  0  0
    1.7826   -0.6943   -0.4386 C   0  0  0  0  0  0  0  0  0  0  0  0
    3.1440   -0.4469   -0.1444 N   0  0  0  0  0  0  0  0  0  0  0  0
    3.8990    0.5565   -0.8712 C   0  0  0  0  0  0  0  0  0  0  0  0
    5.1740    0.8600   -0.1013 C   0  0  0  0  0  0  0  0  0  0  0  0
    5.0094    1.0138    1.2438 O   0  0  0  0  0  0  0  0  0  0  0  0
    4.3262   -0.0063    1.8350 C   0  0  0  0  0  0  0  0  0  0  0  0
    3.9253   -1.1268    0.8705 C   0  0  0  0  0  0  0  0  0  0  0  0
    0.8148    0.2810   -0.3521 C   0  0  0  0  0  0  0  0  0  0  0  0
    1.1402    1.5996    0.0364 N   0  0  0  0  0  0  0  0  0  0  0  0
   -2.5104   -1.2909    1.1271 H   0  0  0  0  0  0  0  0  0  0  0  0
   -3.4368   -1.7554   -0.3947 H   0  0  0  0  0  0  0  0  0  0  0  0
   -4.2943   -1.5275    1.1211 H   0  0  0  0  0  0  0  0  0  0  0  0
   -5.6904    1.1897    0.1085 H   0  0  0  0  0  0  0  0  0  0  0  0
   -5.6842   -0.5781    0.0518 H   0  0  0  0  0  0  0  0  0  0  0  0
   -5.1475    0.3997   -1.4441 H   0  0  0  0  0  0  0  0  0  0  0  0
   -3.5907    2.1575    1.2510 H   0  0  0  0  0  0  0  0  0  0  0  0
   -3.0148    0.7361    2.2246 H   0  0  0  0  0  0  0  0  0  0  0  0
   -4.7538    0.9372    1.9630 H   0  0  0  0  0  0  0  0  0  0  0  0
   -3.3394    1.9925   -0.9184 H   0  0  0  0  0  0  0  0  0  0  0  0
   -3.0565    0.3868   -1.7668 H   0  0  0  0  0  0  0  0  0  0  0  0
   -1.1421    2.0161   -0.3010 H   0  0  0  0  0  0  0  0  0  0  0  0
    4.2422    0.1324   -1.8608 H   0  0  0  0  0  0  0  0  0  0  0  0
    3.2923    1.4408   -1.0512 H   0  0  0  0  0  0  0  0  0  0  0  0
    5.9097    0.0690   -0.3436 H   0  0  0  0  0  0  0  0  0  0  0  0
    5.5967    1.8056   -0.5159 H   0  0  0  0  0  0  0  0  0  0  0  0
    4.8213   -0.4517    2.7131 H   0  0  0  0  0  0  0  0  0  0  0  0
    3.3273    0.4011    2.1809 H   0  0  0  0  0  0  0  0  0  0  0  0
    4.8687   -1.5523    0.4376 H   0  0  0  0  0  0  0  0  0  0  0  0
    3.3618   -1.8455    1.4580 H   0  0  0  0  0  0  0  0  0  0  0  0
    1.3956    1.7734    1.0295 H   0  0  0  0  0  0  0  0  0  0  0  0
    1.1291    2.3928   -0.6431 H   0  0  0  0  0  0  0  0  0  0  0  0
  1  2  1  0
  2  3  1  0
  2  4  1  0
  2  5  1  0
  5  6  1  0
  6  7  1  0
  7  8  2  0
  8  9  1  0
  9 10  1  0
 10 11  3  0
  9 12  2  0
 12 13  1  0
 13 14  1  0
 14 15  1  0
 15 16  1  0
 16 17  1  0
 17 18  1  0
 18 19  1  0
 13 20  2  0
 20 21  1  0
 20  7  1  0
 19 14  1  0
  1 22  1  0
  1 23  1  0
  1 24  1  0
  3 25  1  0
  3 26  1  0
  3 27  1  0
  4 28  1  0
  4 29  1  0
  4 30  1  0
  5 31  1  0
  5 32  1  0
  6 33  1  0
 15 34  1  0
 15 35  1  0
 16 36  1  0
 16 37  1  0
 18 38  1  0
 18 39  1  0
 19 40  1  0
 19 41  1  0
 21 42  1  0
 21 43  1  0
M  END
$$$$
