@<TRIPOS>MOLECULE
*****
 43 44 0 0 0
SMALL
GASTEIGER

@<TRIPOS>ATOM
      1 C          -3.4169   -1.1470    0.5077 C.3     1  UNL1       -0.0586
      2 C          -3.7355    0.2809    0.2230 C.3     1  UNL1       -0.0222
      3 C          -5.1720    0.3150   -0.3309 C.3     1  UNL1       -0.0586
      4 C          -3.7654    1.1022    1.5109 C.3     1  UNL1       -0.0586
      5 C          -2.8920    0.9579   -0.8158 C.3     1  UNL1        0.0154
      6 N          -1.4985    1.0399   -0.5750 N.pl3   1  UNL1       -0.3269
      7 C          -0.5312    0.0294   -0.6418 C.ar    1  UNL1        0.1460
      8 N          -0.8136   -1.2311   -1.0104 N.ar    1  UNL1       -0.2017
      9 C           0.0857   -2.2000   -1.1064 C.ar    1  UNL1        0.2354
     10 C          -0.3665   -3.5195   -1.5167 C.1     1  UNL1        0.1400
     11 N          -0.7469   -4.5677   -1.8438 N.1     1  UNL1       -0.1876
     12 N           1.3537   -1.9259   -0.8240 N.ar    1  UNL1       -0.2015
     13 C           1.7826   -0.6943   -0.4386 C.ar    1  UNL1        0.1487
     14 N           3.1440   -0.4469   -0.1444 N.pl3   1  UNL1       -0.3092
     15 C           3.8990    0.5565   -0.8712 C.3     1  UNL1        0.0371
     16 C           5.1740    0.8600   -0.1013 C.3     1  UNL1        0.0634
     17 O           5.0094    1.0138    1.2438 O.3     1  UNL1       -0.3767
     18 C           4.3262   -0.0063    1.8350 C.3     1  UNL1        0.0634
     19 C           3.9253   -1.1268    0.8705 C.3     1  UNL1        0.0371
     20 C           0.8148    0.2810   -0.3521 C.ar    1  UNL1        0.1054
     21 N           1.1402    1.5996    0.0364 N.pl3   1  UNL1       -0.3526
     22 H          -2.5104   -1.2909    1.1271 H       1  UNL1        0.0235
     23 H          -3.4368   -1.7554   -0.3947 H       1  UNL1        0.0235
     24 H          -4.2943   -1.5275    1.1211 H       1  UNL1        0.0235
     25 H          -5.6904    1.1897    0.1085 H       1  UNL1        0.0235
     26 H          -5.6842   -0.5781    0.0518 H       1  UNL1        0.0235
     27 H          -5.1475    0.3997   -1.4441 H       1  UNL1        0.0235
     28 H          -3.5907    2.1575    1.2510 H       1  UNL1        0.0235
     29 H          -3.0148    0.7361    2.2246 H       1  UNL1        0.0235
     30 H          -4.7538    0.9372    1.9630 H       1  UNL1        0.0235
     31 H          -3.3394    1.9925   -0.9184 H       1  UNL1        0.0467
     32 H          -3.0565    0.3868   -1.7668 H       1  UNL1        0.0467
     33 H          -1.1421    2.0161   -0.3010 H       1  UNL1        0.1475
     34 H           4.2422    0.1324   -1.8608 H       1  UNL1        0.0487
     35 H           3.2923    1.4408   -1.0512 H       1  UNL1        0.0487
     36 H           5.9097    0.0690   -0.3436 H       1  UNL1        0.0575
     37 H           5.5967    1.8056   -0.5159 H       1  UNL1        0.0575
     38 H           4.8213   -0.4517    2.7131 H       1  UNL1        0.0575
     39 H           3.3273    0.4011    2.1809 H       1  UNL1        0.0575
     40 H           4.8687   -1.5523    0.4376 H       1  UNL1        0.0487
     41 H           3.3618   -1.8455    1.4580 H       1  UNL1        0.0487
     42 H           1.3956    1.7734    1.0295 H       1  UNL1        0.1425
     43 H           1.1291    2.3928   -0.6431 H       1  UNL1        0.1425
@<TRIPOS>BOND
     1     1     2    1
     2     2     3    1
     3     2     4    1
     4     2     5    1
     5     5     6    1
     6     6     7    1
     7     7     8   ar
     8     8     9   ar
     9     9    10    1
    10    10    11    3
    11     9    12   ar
    12    12    13   ar
    13    13    14    1
    14    14    15    1
    15    15    16    1
    16    16    17    1
    17    17    18    1
    18    18    19    1
    19    13    20   ar
    20    20    21    1
    21    20     7   ar
    22    19    14    1
    23     1    22    1
    24     1    23    1
    25     1    24    1
    26     3    25    1
    27     3    26    1
    28     3    27    1
    29     4    28    1
    30     4    29    1
    31     4    30    1
    32     5    31    1
    33     5    32    1
    34     6    33    1
    35    15    34    1
    36    15    35    1
    37    16    36    1
    38    16    37    1
    39    18    38    1
    40    18    39    1
    41    19    40    1
    42    19    41    1
    43    21    42    1
    44    21    43    1
