
     RDKit          3D

104110  0  0  0  0  0  0  0  0999 V2000
    7.7675    3.7897   -2.5940 C   0  0  0  0  0  0  0  0  0  0  0  0
    6.5448    3.5326   -1.9706 O   0  0  0  0  0  0  0  0  0  0  0  0
    6.3284    2.3643   -1.2558 C   0  0  0  0  0  0  0  0  0  0  0  0
    7.3636    1.4292   -1.1609 C   0  0  0  0  0  0  0  0  0  0  0  0
    7.2070    0.2571   -0.4674 C   0  0  0  0  0  0  0  0  0  0  0  0
    8.2865   -0.7053   -0.3337 C   0  0  0  0  0  0  0  0  0  0  0  0
    8.0625   -1.8137    0.2524 O   0  0  0  0  0  0  0  0  0  0  0  0
    9.6106   -0.5154   -0.8094 N   0  0  0  0  0  0  0  0  0  0  0  0
   10.6458   -1.5140   -0.6318 C   0  0  0  0  0  0  0  0  0  0  0  0
   11.9118   -0.9810   -1.2489 C   0  0  0  0  0  0  0  0  0  0  0  0
   13.0323   -1.8782   -1.1214 N   0  0  0  0  0  0  0  0  0  0  0  0
   13.3647   -1.9262    0.2995 C   0  0  0  0  0  0  0  0  0  0  0  0
   14.8435   -2.1399    0.4237 C   0  0  0  0  0  0  0  0  0  0  0  0
   15.5013   -0.9297    0.2023 O   0  0  0  0  0  0  0  0  0  0  0  0
   14.8565   -0.2462   -0.8226 C   0  0  0  0  0  0  0  0  0  0  0  0
   14.1673   -1.2144   -1.7724 C   0  0  0  0  0  0  0  0  0  0  0  0
    5.9953    0.0137    0.1405 C   0  0  0  0  0  0  0  0  0  0  0  0
    4.9416    0.9350    0.0605 C   0  0  0  0  0  0  0  0  0  0  0  0
    5.1346    2.1012   -0.6423 C   0  0  0  0  0  0  0  0  0  0  0  0
    4.0919    3.0437   -0.7095 N   0  0  0  0  0  0  0  0  0  0  0  0
    2.8283    2.8815   -0.0896 C   0  0  0  0  0  0  0  0  0  0  0  0
    2.7062    3.0519    1.2625 N   0  0  0  0  0  0  0  0  0  0  0  0
    1.5266    2.9340    1.8663 C   0  0  0  0  0  0  0  0  0  0  0  0
    0.3869    2.6377    1.1563 C   0  0  0  0  0  0  0  0  0  0  0  0
    0.4841    2.4634   -0.1928 C   0  0  0  0  0  0  0  0  0  0  0  0
   -0.5998    2.1695   -0.9897 O   0  0  0  0  0  0  0  0  0  0  0  0
   -1.8441    1.9953   -0.4564 C   0  0  0  0  0  0  0  0  0  0  0  0
   -2.8279    2.9325   -0.7592 C   0  0  0  0  0  0  0  0  0  0  0  0
   -4.1048    2.8306   -0.2589 C   0  0  0  0  0  0  0  0  0  0  0  0
   -4.4280    1.7462    0.5835 C   0  0  0  0  0  0  0  0  0  0  0  0
   -5.7578    1.7190    1.0505 N   0  0  0  0  0  0  0  0  0  0  0  0
   -6.7233    0.9550    0.3437 C   0  0  0  0  0  0  0  0  0  0  0  0
   -6.4509    0.2708   -0.6777 O   0  0  0  0  0  0  0  0  0  0  0  0
   -8.0871    0.9446    0.7927 N   0  0  0  0  0  0  0  0  0  0  0  0
   -9.0796    0.1761    0.1540 C   0  0  0  0  0  0  0  0  0  0  0  0
   -9.8359    0.5082   -0.9348 C   0  0  0  0  0  0  0  0  0  0  0  0
  -10.6962   -0.5510   -1.2044 C   0  0  0  0  0  0  0  0  0  0  0  0
  -11.6776   -0.5859   -2.3149 C   0  0  0  0  0  0  0  0  0  0  0  0
  -12.4867   -1.8529   -2.2562 C   0  0  0  0  0  0  0  0  0  0  0  0
  -10.9567   -0.5832   -3.6676 C   0  0  0  0  0  0  0  0  0  0  0  0
  -12.5485    0.6648   -2.3203 C   0  0  0  0  0  0  0  0  0  0  0  0
  -10.4196   -1.4729   -0.2672 N   0  0  0  0  0  0  0  0  0  0  0  0
   -9.4707   -1.0516    0.5337 N   0  0  0  0  0  0  0  0  0  0  0  0
   -8.9321   -1.7499    1.6435 C   0  0  0  0  0  0  0  0  0  0  0  0
   -9.4075   -1.4179    2.9192 C   0  0  0  0  0  0  0  0  0  0  0  0
   -8.9312   -2.0481    4.0424 C   0  0  0  0  0  0  0  0  0  0  0  0
   -7.9742   -3.0263    3.9768 C   0  0  0  0  0  0  0  0  0  0  0  0
   -7.4561   -3.7052    5.1881 C   0  0  0  0  0  0  0  0  0  0  0  0
   -7.5073   -3.3525    2.7201 C   0  0  0  0  0  0  0  0  0  0  0  0
   -7.9755   -2.7263    1.5629 C   0  0  0  0  0  0  0  0  0  0  0  0
   -3.4601    0.8194    0.8824 C   0  0  0  0  0  0  0  0  0  0  0  0
   -3.7887   -0.2554    1.6871 C   0  0  0  0  0  0  0  0  0  0  0  0
   -2.8169   -1.1906    1.9544 C   0  0  0  0  0  0  0  0  0  0  0  0
   -1.5516   -1.0798    1.4472 C   0  0  0  0  0  0  0  0  0  0  0  0
   -1.2260   -0.0040    0.6439 C   0  0  0  0  0  0  0  0  0  0  0  0
   -2.1694    0.9592    0.3515 C   0  0  0  0  0  0  0  0  0  0  0  0
    1.7249    2.5974   -0.7512 N   0  0  0  0  0  0  0  0  0  0  0  0
    8.5561    3.9015   -1.8356 H   0  0  0  0  0  0  0  0  0  0  0  0
    7.6444    4.7186   -3.1996 H   0  0  0  0  0  0  0  0  0  0  0  0
    8.0390    2.9984   -3.3455 H   0  0  0  0  0  0  0  0  0  0  0  0
    8.2914    1.6598   -1.6517 H   0  0  0  0  0  0  0  0  0  0  0  0
    9.8323    0.3708   -1.2984 H   0  0  0  0  0  0  0  0  0  0  0  0
   10.2940   -2.4605   -1.0585 H   0  0  0  0  0  0  0  0  0  0  0  0
   10.8000   -1.6866    0.4770 H   0  0  0  0  0  0  0  0  0  0  0  0
   11.7073   -0.7635   -2.3196 H   0  0  0  0  0  0  0  0  0  0  0  0
   12.1170    0.0054   -0.7740 H   0  0  0  0  0  0  0  0  0  0  0  0
   12.8051   -2.7968    0.7141 H   0  0  0  0  0  0  0  0  0  0  0  0
   13.0128   -1.0403    0.8473 H   0  0  0  0  0  0  0  0  0  0  0  0
   15.1566   -2.8898   -0.3234 H   0  0  0  0  0  0  0  0  0  0  0  0
   15.0865   -2.5016    1.4476 H   0  0  0  0  0  0  0  0  0  0  0  0
   14.1251    0.4782   -0.4305 H   0  0  0  0  0  0  0  0  0  0  0  0
   15.6060    0.2983   -1.4194 H   0  0  0  0  0  0  0  0  0  0  0  0
   13.8413   -0.6117   -2.6439 H   0  0  0  0  0  0  0  0  0  0  0  0
   14.9048   -1.9525   -2.1517 H   0  0  0  0  0  0  0  0  0  0  0  0
    5.8342   -0.9004    0.6924 H   0  0  0  0  0  0  0  0  0  0  0  0
    3.9845    0.7587    0.5326 H   0  0  0  0  0  0  0  0  0  0  0  0
    4.2254    3.9378   -1.2498 H   0  0  0  0  0  0  0  0  0  0  0  0
    1.4429    3.0696    2.9384 H   0  0  0  0  0  0  0  0  0  0  0  0
   -0.5520    2.5544    1.6487 H   0  0  0  0  0  0  0  0  0  0  0  0
   -2.5287    3.7574   -1.4178 H   0  0  0  0  0  0  0  0  0  0  0  0
   -4.8452    3.5599   -0.5007 H   0  0  0  0  0  0  0  0  0  0  0  0
   -6.0523    2.2425    1.9002 H   0  0  0  0  0  0  0  0  0  0  0  0
   -8.3914    1.4996    1.6412 H   0  0  0  0  0  0  0  0  0  0  0  0
   -9.7533    1.4583   -1.4823 H   0  0  0  0  0  0  0  0  0  0  0  0
  -11.7958   -2.6961   -2.2218 H   0  0  0  0  0  0  0  0  0  0  0  0
  -13.0785   -1.8791   -1.2963 H   0  0  0  0  0  0  0  0  0  0  0  0
  -13.1693   -1.9363   -3.1266 H   0  0  0  0  0  0  0  0  0  0  0  0
  -10.3065   -1.4540   -3.7539 H   0  0  0  0  0  0  0  0  0  0  0  0
  -10.4426    0.3881   -3.8300 H   0  0  0  0  0  0  0  0  0  0  0  0
  -11.7751   -0.6851   -4.4209 H   0  0  0  0  0  0  0  0  0  0  0  0
  -12.0205    1.4620   -2.9197 H   0  0  0  0  0  0  0  0  0  0  0  0
  -12.5428    1.0621   -1.2817 H   0  0  0  0  0  0  0  0  0  0  0  0
  -13.5391    0.4937   -2.7398 H   0  0  0  0  0  0  0  0  0  0  0  0
  -10.1733   -0.6340    2.9733 H   0  0  0  0  0  0  0  0  0  0  0  0
   -9.3252   -1.7621    5.0213 H   0  0  0  0  0  0  0  0  0  0  0  0
   -6.5439   -3.2248    5.5690 H   0  0  0  0  0  0  0  0  0  0  0  0
   -7.2548   -4.7892    5.0378 H   0  0  0  0  0  0  0  0  0  0  0  0
   -8.1901   -3.6592    6.0286 H   0  0  0  0  0  0  0  0  0  0  0  0
   -6.7499   -4.1204    2.6317 H   0  0  0  0  0  0  0  0  0  0  0  0
   -7.5948   -2.9965    0.5838 H   0  0  0  0  0  0  0  0  0  0  0  0
   -4.7932   -0.3197    2.0738 H   0  0  0  0  0  0  0  0  0  0  0  0
   -3.0392   -2.0530    2.5837 H   0  0  0  0  0  0  0  0  0  0  0  0
   -0.7701   -1.8270    1.6580 H   0  0  0  0  0  0  0  0  0  0  0  0
   -0.2015    0.0565    0.2324 H   0  0  0  0  0  0  0  0  0  0  0  0
  1  2  1  0
  2  3  1  0
  3  4  2  0
  4  5  1  0
  5  6  1  0
  6  7  2  0
  6  8  1  0
  8  9  1  0
  9 10  1  0
 10 11  1  0
 11 12  1  0
 12 13  1  0
 13 14  1  0
 14 15  1  0
 15 16  1  0
  5 17  2  0
 17 18  1  0
 18 19  2  0
 19 20  1  0
 20 21  1  0
 21 22  2  0
 22 23  1  0
 23 24  2  0
 24 25  1  0
 25 26  1  0
 26 27  1  0
 27 28  2  0
 28 29  1  0
 29 30  2  0
 30 31  1  0
 31 32  1  0
 32 33  2  0
 32 34  1  0
 34 35  1  0
 35 36  2  0
 36 37  1  0
 37 38  1  0
 38 39  1  0
 38 40  1  0
 38 41  1  0
 37 42  2  0
 42 43  1  0
 43 44  1  0
 44 45  2  0
 45 46  1  0
 46 47  2  0
 47 48  1  0
 47 49  1  0
 49 50  2  0
 30 51  1  0
 51 52  2  0
 52 53  1  0
 53 54  2  0
 54 55  1  0
 55 56  2  0
 25 57  2  0
 19  3  1  0
 57 21  1  0
 16 11  1  0
 56 27  1  0
 43 35  1  0
 50 44  1  0
 56 51  1  0
  1 58  1  0
  1 59  1  0
  1 60  1  0
  4 61  1  0
  8 62  1  0
  9 63  1  0
  9 64  1  0
 10 65  1  0
 10 66  1  0
 12 67  1  0
 12 68  1  0
 13 69  1  0
 13 70  1  0
 15 71  1  0
 15 72  1  0
 16 73  1  0
 16 74  1  0
 17 75  1  0
 18 76  1  0
 20 77  1  0
 23 78  1  0
 24 79  1  0
 28 80  1  0
 29 81  1  0
 31 82  1  0
 34 83  1  0
 36 84  1  0
 39 85  1  0
 39 86  1  0
 39 87  1  0
 40 88  1  0
 40 89  1  0
 40 90  1  0
 41 91  1  0
 41 92  1  0
 41 93  1  0
 45 94  1  0
 46 95  1  0
 48 96  1  0
 48 97  1  0
 48 98  1  0
 49 99  1  0
 50100  1  0
 52101  1  0
 53102  1  0
 54103  1  0
 55104  1  0
M  END
$$$$
