@<TRIPOS>MOLECULE
*****
 104 110 0 0 0
SMALL
GASTEIGER

@<TRIPOS>ATOM
      1 C           7.7675    3.7897   -2.5940 C.3     1  UNL1        0.0789
      2 O           6.5448    3.5326   -1.9706 O.3     1  UNL1       -0.4932
      3 C           6.3284    2.3643   -1.2558 C.ar    1  UNL1        0.1419
      4 C           7.3636    1.4292   -1.1609 C.ar    1  UNL1       -0.0060
      5 C           7.2070    0.2571   -0.4674 C.ar    1  UNL1        0.0403
      6 C           8.2865   -0.7053   -0.3337 C.2     1  UNL1        0.2442
      7 O           8.0625   -1.8137    0.2524 O.2     1  UNL1       -0.2702
      8 N           9.6106   -0.5154   -0.8094 N.am    1  UNL1       -0.3101
      9 C          10.6458   -1.5140   -0.6318 C.3     1  UNL1        0.0247
     10 C          11.9118   -0.9810   -1.2489 C.3     1  UNL1        0.0146
     11 N          13.0323   -1.8782   -1.1214 N.3     1  UNL1       -0.2965
     12 C          13.3647   -1.9262    0.2995 C.3     1  UNL1        0.0225
     13 C          14.8435   -2.1399    0.4237 C.3     1  UNL1        0.0604
     14 O          15.5013   -0.9297    0.2023 O.3     1  UNL1       -0.3772
     15 C          14.8565   -0.2462   -0.8226 C.3     1  UNL1        0.0604
     16 C          14.1673   -1.2144   -1.7724 C.3     1  UNL1        0.0225
     17 C           5.9953    0.0137    0.1405 C.ar    1  UNL1       -0.0477
     18 C           4.9416    0.9350    0.0605 C.ar    1  UNL1       -0.0362
     19 C           5.1346    2.1012   -0.6423 C.ar    1  UNL1        0.0758
     20 N           4.0919    3.0437   -0.7095 N.pl3   1  UNL1       -0.2806
     21 C           2.8283    2.8815   -0.0896 C.ar    1  UNL1        0.2226
     22 N           2.7062    3.0519    1.2625 N.ar    1  UNL1       -0.2225
     23 C           1.5266    2.9340    1.8663 C.ar    1  UNL1        0.0362
     24 C           0.3869    2.6377    1.1563 C.ar    1  UNL1        0.0186
     25 C           0.4841    2.4634   -0.1928 C.ar    1  UNL1        0.2249
     26 O          -0.5998    2.1695   -0.9897 O.3     1  UNL1       -0.4373
     27 C          -1.8441    1.9953   -0.4564 C.ar    1  UNL1        0.1381
     28 C          -2.8279    2.9325   -0.7592 C.ar    1  UNL1       -0.0169
     29 C          -4.1048    2.8306   -0.2589 C.ar    1  UNL1       -0.0363
     30 C          -4.4280    1.7462    0.5835 C.ar    1  UNL1        0.0427
     31 N          -5.7578    1.7190    1.0505 N.am    1  UNL1       -0.2686
     32 C          -6.7233    0.9550    0.3437 C.2     1  UNL1        0.3092
     33 O          -6.4509    0.2708   -0.6777 O.2     1  UNL1       -0.2521
     34 N          -8.0871    0.9446    0.7927 N.am    1  UNL1       -0.2538
     35 C          -9.0796    0.1761    0.1540 C.ar    1  UNL1        0.1299
     36 C          -9.8359    0.5082   -0.9348 C.ar    1  UNL1        0.0021
     37 C         -10.6962   -0.5510   -1.2044 C.ar    1  UNL1        0.0706
     38 C         -11.6776   -0.5859   -2.3149 C.3     1  UNL1        0.0063
     39 C         -12.4867   -1.8529   -2.2562 C.3     1  UNL1       -0.0546
     40 C         -10.9567   -0.5832   -3.6676 C.3     1  UNL1       -0.0546
     41 C         -12.5485    0.6648   -2.3203 C.3     1  UNL1       -0.0546
     42 N         -10.4196   -1.4729   -0.2672 N.ar    1  UNL1       -0.1691
     43 N          -9.4707   -1.0516    0.5337 N.ar    1  UNL1       -0.2181
     44 C          -8.9321   -1.7499    1.6435 C.ar    1  UNL1        0.0674
     45 C          -9.4075   -1.4179    2.9192 C.ar    1  UNL1       -0.0359
     46 C          -8.9312   -2.0481    4.0424 C.ar    1  UNL1       -0.0568
     47 C          -7.9742   -3.0263    3.9768 C.ar    1  UNL1       -0.0503
     48 C          -7.4561   -3.7052    5.1881 C.3     1  UNL1       -0.0397
     49 C          -7.5073   -3.3525    2.7201 C.ar    1  UNL1       -0.0568
     50 C          -7.9755   -2.7263    1.5629 C.ar    1  UNL1       -0.0359
     51 C          -3.4601    0.8194    0.8824 C.ar    1  UNL1        0.0069
     52 C          -3.7887   -0.2554    1.6871 C.ar    1  UNL1       -0.0521
     53 C          -2.8169   -1.1906    1.9544 C.ar    1  UNL1       -0.0611
     54 C          -1.5516   -1.0798    1.4472 C.ar    1  UNL1       -0.0611
     55 C          -1.2260   -0.0040    0.6439 C.ar    1  UNL1       -0.0505
     56 C          -2.1694    0.9592    0.3515 C.ar    1  UNL1        0.0262
     57 N           1.7249    2.5974   -0.7512 N.ar    1  UNL1       -0.1789
     58 H           8.5561    3.9015   -1.8356 H       1  UNL1        0.0660
     59 H           7.6444    4.7186   -3.1996 H       1  UNL1        0.0660
     60 H           8.0390    2.9984   -3.3455 H       1  UNL1        0.0660
     61 H           8.2914    1.6598   -1.6517 H       1  UNL1        0.0662
     62 H           9.8323    0.3708   -1.2984 H       1  UNL1        0.1490
     63 H          10.2940   -2.4605   -1.0585 H       1  UNL1        0.0475
     64 H          10.8000   -1.6866    0.4770 H       1  UNL1        0.0475
     65 H          11.7073   -0.7635   -2.3196 H       1  UNL1        0.0442
     66 H          12.1170    0.0054   -0.7740 H       1  UNL1        0.0442
     67 H          12.8051   -2.7968    0.7141 H       1  UNL1        0.0449
     68 H          13.0128   -1.0403    0.8473 H       1  UNL1        0.0449
     69 H          15.1566   -2.8898   -0.3234 H       1  UNL1        0.0572
     70 H          15.0865   -2.5016    1.4476 H       1  UNL1        0.0572
     71 H          14.1251    0.4782   -0.4305 H       1  UNL1        0.0572
     72 H          15.6060    0.2983   -1.4194 H       1  UNL1        0.0572
     73 H          13.8413   -0.6117   -2.6439 H       1  UNL1        0.0449
     74 H          14.9048   -1.9525   -2.1517 H       1  UNL1        0.0449
     75 H           5.8342   -0.9004    0.6924 H       1  UNL1        0.0626
     76 H           3.9845    0.7587    0.5326 H       1  UNL1        0.0637
     77 H           4.2254    3.9378   -1.2498 H       1  UNL1        0.1551
     78 H           1.4429    3.0696    2.9384 H       1  UNL1        0.0832
     79 H          -0.5520    2.5544    1.6487 H       1  UNL1        0.0686
     80 H          -2.5287    3.7574   -1.4178 H       1  UNL1        0.0655
     81 H          -4.8452    3.5599   -0.5007 H       1  UNL1        0.0637
     82 H          -6.0523    2.2425    1.9002 H       1  UNL1        0.1564
     83 H          -8.3914    1.4996    1.6412 H       1  UNL1        0.1578
     84 H          -9.7533    1.4583   -1.4823 H       1  UNL1        0.0671
     85 H         -11.7958   -2.6961   -2.2218 H       1  UNL1        0.0239
     86 H         -13.0785   -1.8791   -1.2963 H       1  UNL1        0.0239
     87 H         -13.1693   -1.9363   -3.1266 H       1  UNL1        0.0239
     88 H         -10.3065   -1.4540   -3.7539 H       1  UNL1        0.0239
     89 H         -10.4426    0.3881   -3.8300 H       1  UNL1        0.0239
     90 H         -11.7751   -0.6851   -4.4209 H       1  UNL1        0.0239
     91 H         -12.0205    1.4620   -2.9197 H       1  UNL1        0.0239
     92 H         -12.5428    1.0621   -1.2817 H       1  UNL1        0.0239
     93 H         -13.5391    0.4937   -2.7398 H       1  UNL1        0.0239
     94 H         -10.1733   -0.6340    2.9733 H       1  UNL1        0.0639
     95 H          -9.3252   -1.7621    5.0213 H       1  UNL1        0.0621
     96 H          -6.5439   -3.2248    5.5690 H       1  UNL1        0.0278
     97 H          -7.2548   -4.7892    5.0378 H       1  UNL1        0.0278
     98 H          -8.1901   -3.6592    6.0286 H       1  UNL1        0.0278
     99 H          -6.7499   -4.1204    2.6317 H       1  UNL1        0.0621
    100 H          -7.5948   -2.9965    0.5838 H       1  UNL1        0.0639
    101 H          -4.7932   -0.3197    2.0738 H       1  UNL1        0.0624
    102 H          -3.0392   -2.0530    2.5837 H       1  UNL1        0.0618
    103 H          -0.7701   -1.8270    1.6580 H       1  UNL1        0.0618
    104 H          -0.2015    0.0565    0.2324 H       1  UNL1        0.0625
@<TRIPOS>BOND
     1     1     2    1
     2     2     3    1
     3     3     4   ar
     4     4     5   ar
     5     5     6    1
     6     6     7    2
     7     6     8   am
     8     8     9    1
     9     9    10    1
    10    10    11    1
    11    11    12    1
    12    12    13    1
    13    13    14    1
    14    14    15    1
    15    15    16    1
    16     5    17   ar
    17    17    18   ar
    18    18    19   ar
    19    19    20    1
    20    20    21    1
    21    21    22   ar
    22    22    23   ar
    23    23    24   ar
    24    24    25   ar
    25    25    26    1
    26    26    27    1
    27    27    28   ar
    28    28    29   ar
    29    29    30   ar
    30    30    31    1
    31    31    32   am
    32    32    33    2
    33    32    34   am
    34    34    35    1
    35    35    36   ar
    36    36    37   ar
    37    37    38    1
    38    38    39    1
    39    38    40    1
    40    38    41    1
    41    37    42   ar
    42    42    43   ar
    43    43    44    1
    44    44    45   ar
    45    45    46   ar
    46    46    47   ar
    47    47    48    1
    48    47    49   ar
    49    49    50   ar
    50    30    51   ar
    51    51    52   ar
    52    52    53   ar
    53    53    54   ar
    54    54    55   ar
    55    55    56   ar
    56    25    57   ar
    57    19     3   ar
    58    57    21   ar
    59    16    11    1
    60    56    27   ar
    61    43    35   ar
    62    50    44   ar
    63    56    51   ar
    64     1    58    1
    65     1    59    1
    66     1    60    1
    67     4    61    1
    68     8    62    1
    69     9    63    1
    70     9    64    1
    71    10    65    1
    72    10    66    1
    73    12    67    1
    74    12    68    1
    75    13    69    1
    76    13    70    1
    77    15    71    1
    78    15    72    1
    79    16    73    1
    80    16    74    1
    81    17    75    1
    82    18    76    1
    83    20    77    1
    84    23    78    1
    85    24    79    1
    86    28    80    1
    87    29    81    1
    88    31    82    1
    89    34    83    1
    90    36    84    1
    91    39    85    1
    92    39    86    1
    93    39    87    1
    94    40    88    1
    95    40    89    1
    96    40    90    1
    97    41    91    1
    98    41    92    1
    99    41    93    1
   100    45    94    1
   101    46    95    1
   102    48    96    1
   103    48    97    1
   104    48    98    1
   105    49    99    1
   106    50   100    1
   107    52   101    1
   108    53   102    1
   109    54   103    1
   110    55   104    1
