
     RDKit          3D

 43 46  0  0  0  0  0  0  0  0999 V2000
    5.8422    2.7388   -1.7397 O   0  0  0  0  0  0  0  0  0  0  0  0
    4.9324    2.0095   -2.4943 C   0  0  0  0  0  0  0  0  0  0  0  0
    5.3656    1.8595   -3.6680 O   0  0  0  0  0  0  0  0  0  0  0  0
    3.6923    1.5414   -1.9013 C   0  0  0  0  0  0  0  0  0  0  0  0
    3.4035    1.8152   -0.5830 C   0  0  0  0  0  0  0  0  0  0  0  0
    2.2052    1.3317   -0.1058 C   0  0  0  0  0  0  0  0  0  0  0  0
    1.2501    0.5918   -0.8186 C   0  0  0  0  0  0  0  0  0  0  0  0
    1.6018    0.3462   -2.1535 C   0  0  0  0  0  0  0  0  0  0  0  0
    2.7958    0.8176   -2.6605 C   0  0  0  0  0  0  0  0  0  0  0  0
    0.0542    0.1758   -0.1824 N   0  0  0  0  0  0  0  0  0  0  0  0
   -0.9479    1.0585   -0.2764 N   0  0  0  0  0  0  0  0  0  0  0  0
   -2.0005    0.5212    0.3708 C   0  0  0  0  0  0  0  0  0  0  0  0
   -1.6191   -0.6709    0.8424 N   0  0  0  0  0  0  0  0  0  0  0  0
   -0.3386   -0.9034    0.5065 C   0  0  0  0  0  0  0  0  0  0  0  0
    0.5091   -2.0447    0.7869 C   0  0  0  0  0  0  0  0  0  0  0  0
    1.8156   -2.3057    0.4562 C   0  0  0  0  0  0  0  0  0  0  0  0
    2.4825   -3.4366    0.7954 C   0  0  0  0  0  0  0  0  0  0  0  0
    1.8742   -4.4314    1.5179 C   0  0  0  0  0  0  0  0  0  0  0  0
    0.5585   -4.1973    1.8656 C   0  0  0  0  0  0  0  0  0  0  0  0
   -0.1068   -3.0548    1.5198 C   0  0  0  0  0  0  0  0  0  0  0  0
   -1.4352   -2.9549    1.9404 O   0  0  0  0  0  0  0  0  0  0  0  0
   -3.3419    1.0330    0.5861 C   0  0  0  0  0  0  0  0  0  0  0  0
   -4.3380    0.3675    1.2785 C   0  0  0  0  0  0  0  0  0  0  0  0
   -5.5981    0.9024    1.4532 C   0  0  0  0  0  0  0  0  0  0  0  0
   -5.8772    2.1482    0.9177 C   0  0  0  0  0  0  0  0  0  0  0  0
   -4.8932    2.8223    0.2251 C   0  0  0  0  0  0  0  0  0  0  0  0
   -3.6216    2.2822    0.0490 C   0  0  0  0  0  0  0  0  0  0  0  0
   -2.6834    3.0301   -0.6649 O   0  0  0  0  0  0  0  0  0  0  0  0
    6.8472    2.6819   -1.8650 H   0  0  0  0  0  0  0  0  0  0  0  0
    4.0484    2.3680    0.0626 H   0  0  0  0  0  0  0  0  0  0  0  0
    1.9576    1.5397    0.9419 H   0  0  0  0  0  0  0  0  0  0  0  0
    0.8804   -0.2231   -2.7240 H   0  0  0  0  0  0  0  0  0  0  0  0
    3.0103    0.5935   -3.7038 H   0  0  0  0  0  0  0  0  0  0  0  0
    2.2896   -1.5237   -0.1103 H   0  0  0  0  0  0  0  0  0  0  0  0
    3.5085   -3.5545    0.4913 H   0  0  0  0  0  0  0  0  0  0  0  0
    2.4019   -5.3156    1.7809 H   0  0  0  0  0  0  0  0  0  0  0  0
    0.0598   -4.9689    2.4355 H   0  0  0  0  0  0  0  0  0  0  0  0
   -2.0257   -3.7515    1.7929 H   0  0  0  0  0  0  0  0  0  0  0  0
   -4.0285   -0.6044    1.6638 H   0  0  0  0  0  0  0  0  0  0  0  0
   -6.3201    0.3180    2.0071 H   0  0  0  0  0  0  0  0  0  0  0  0
   -6.8629    2.5802    1.0474 H   0  0  0  0  0  0  0  0  0  0  0  0
   -5.1002    3.7897   -0.1942 H   0  0  0  0  0  0  0  0  0  0  0  0
   -2.2478    2.6777   -1.4892 H   0  0  0  0  0  0  0  0  0  0  0  0
  1  2  1  0
  2  3  2  0
  2  4  1  0
  4  5  2  0
  5  6  1  0
  6  7  2  0
  7  8  1  0
  8  9  2  0
  7 10  1  0
 10 11  1  0
 11 12  2  0
 12 13  1  0
 13 14  2  0
 14 15  1  0
 15 16  2  0
 16 17  1  0
 17 18  2  0
 18 19  1  0
 19 20  2  0
 20 21  1  0
 12 22  1  0
 22 23  2  0
 23 24  1  0
 24 25  2  0
 25 26  1  0
 26 27  2  0
 27 28  1  0
  9  4  1  0
 14 10  1  0
 20 15  1  0
 27 22  1  0
  1 29  1  0
  5 30  1  0
  6 31  1  0
  8 32  1  0
  9 33  1  0
 16 34  1  0
 17 35  1  0
 18 36  1  0
 19 37  1  0
 21 38  1  0
 23 39  1  0
 24 40  1  0
 25 41  1  0
 26 42  1  0
 28 43  1  0
M  END
$$$$
