@<TRIPOS>MOLECULE
*****
 43 46 0 0 0
SMALL
GASTEIGER

@<TRIPOS>ATOM
      1 O           5.8422    2.7388   -1.7397 O.3     1  UNL1       -0.4771
      2 C           4.9324    2.0095   -2.4943 C.2     1  UNL1        0.3368
      3 O           5.3656    1.8595   -3.6680 O.2     1  UNL1       -0.2451
      4 C           3.6923    1.5414   -1.9013 C.ar    1  UNL1        0.0590
      5 C           3.4035    1.8152   -0.5830 C.ar    1  UNL1       -0.0458
      6 C           2.2052    1.3317   -0.1058 C.ar    1  UNL1       -0.0354
      7 C           1.2501    0.5918   -0.8186 C.ar    1  UNL1        0.0678
      8 C           1.6018    0.3462   -2.1535 C.ar    1  UNL1       -0.0354
      9 C           2.7958    0.8176   -2.6605 C.ar    1  UNL1       -0.0458
     10 N           0.0542    0.1758   -0.1824 N.ar    1  UNL1       -0.2119
     11 N          -0.9479    1.0585   -0.2764 N.ar    1  UNL1       -0.1442
     12 C          -2.0005    0.5212    0.3708 C.ar    1  UNL1        0.1858
     13 N          -1.6191   -0.6709    0.8424 N.ar    1  UNL1       -0.2059
     14 C          -0.3386   -0.9034    0.5065 C.ar    1  UNL1        0.1676
     15 C           0.5091   -2.0447    0.7869 C.ar    1  UNL1        0.0606
     16 C           1.8156   -2.3057    0.4562 C.ar    1  UNL1       -0.0475
     17 C           2.4825   -3.4366    0.7954 C.ar    1  UNL1       -0.0609
     18 C           1.8742   -4.4314    1.5179 C.ar    1  UNL1       -0.0583
     19 C           0.5585   -4.1973    1.8656 C.ar    1  UNL1       -0.0195
     20 C          -0.1068   -3.0548    1.5198 C.ar    1  UNL1        0.1275
     21 O          -1.4352   -2.9549    1.9404 O.3     1  UNL1       -0.5061
     22 C          -3.3419    1.0330    0.5861 C.ar    1  UNL1        0.0622
     23 C          -4.3380    0.3675    1.2785 C.ar    1  UNL1       -0.0475
     24 C          -5.5981    0.9024    1.4532 C.ar    1  UNL1       -0.0609
     25 C          -5.8772    2.1482    0.9177 C.ar    1  UNL1       -0.0583
     26 C          -4.8932    2.8223    0.2251 C.ar    1  UNL1       -0.0195
     27 C          -3.6216    2.2822    0.0490 C.ar    1  UNL1        0.1276
     28 O          -2.6834    3.0301   -0.6649 O.3     1  UNL1       -0.5061
     29 H           6.8472    2.6819   -1.8650 H       1  UNL1        0.2954
     30 H           4.0484    2.3680    0.0626 H       1  UNL1        0.0626
     31 H           1.9576    1.5397    0.9419 H       1  UNL1        0.0639
     32 H           0.8804   -0.2231   -2.7240 H       1  UNL1        0.0639
     33 H           3.0103    0.5935   -3.7038 H       1  UNL1        0.0626
     34 H           2.2896   -1.5237   -0.1103 H       1  UNL1        0.0626
     35 H           3.5085   -3.5545    0.4913 H       1  UNL1        0.0618
     36 H           2.4019   -5.3156    1.7809 H       1  UNL1        0.0619
     37 H           0.0598   -4.9689    2.4355 H       1  UNL1        0.0654
     38 H          -2.0257   -3.7515    1.7929 H       1  UNL1        0.2922
     39 H          -4.0285   -0.6044    1.6638 H       1  UNL1        0.0626
     40 H          -6.3201    0.3180    2.0071 H       1  UNL1        0.0618
     41 H          -6.8629    2.5802    1.0474 H       1  UNL1        0.0619
     42 H          -5.1002    3.7897   -0.1942 H       1  UNL1        0.0654
     43 H          -2.2478    2.6777   -1.4892 H       1  UNL1        0.2922
@<TRIPOS>BOND
     1     1     2    1
     2     2     3    2
     3     2     4    1
     4     4     5   ar
     5     5     6   ar
     6     6     7   ar
     7     7     8   ar
     8     8     9   ar
     9     7    10    1
    10    10    11   ar
    11    11    12   ar
    12    12    13   ar
    13    13    14   ar
    14    14    15    1
    15    15    16   ar
    16    16    17   ar
    17    17    18   ar
    18    18    19   ar
    19    19    20   ar
    20    20    21    1
    21    12    22    1
    22    22    23   ar
    23    23    24   ar
    24    24    25   ar
    25    25    26   ar
    26    26    27   ar
    27    27    28    1
    28     9     4   ar
    29    14    10   ar
    30    20    15   ar
    31    27    22   ar
    32     1    29    1
    33     5    30    1
    34     6    31    1
    35     8    32    1
    36     9    33    1
    37    16    34    1
    38    17    35    1
    39    18    36    1
    40    19    37    1
    41    21    38    1
    42    23    39    1
    43    24    40    1
    44    25    41    1
    45    26    42    1
    46    28    43    1
