
     RDKit          3D

 57 61  0  0  0  0  0  0  0  0999 V2000
   -3.6981   -3.7730   -0.1577 C   0  0  0  0  0  0  0  0  0  0  0  0
   -3.4647   -2.3381    0.0725 C   0  0  0  0  0  0  0  0  0  0  0  0
   -2.8936   -1.5605   -0.9344 C   0  0  0  0  0  0  0  0  0  0  0  0
   -2.6642   -0.2154   -0.7464 C   0  0  0  0  0  0  0  0  0  0  0  0
   -2.0774    0.6335   -1.7620 C   0  0  0  0  0  0  0  0  0  0  0  0
   -2.9275    1.1763   -2.5558 O   0  0  0  0  0  0  0  0  0  0  0  0
   -0.7050    0.8780   -1.9133 N   0  0  0  0  0  0  0  0  0  0  0  0
   -0.2359    1.7334   -2.9598 C   0  0  0  0  0  0  0  0  0  0  0  0
    1.0288    1.0968   -3.5068 C   0  0  0  0  0  0  0  0  0  0  0  0
    1.1103   -0.2420   -3.2342 O   0  0  0  0  0  0  0  0  0  0  0  0
    1.1306   -0.5987   -1.9087 C   0  0  0  0  0  0  0  0  0  0  0  0
    0.2404    0.2781   -1.0276 C   0  0  1  0  0  0  0  0  0  0  0  0
    1.0691    1.3020   -0.2786 C   0  0  0  0  0  0  0  0  0  0  0  0
    2.0466    0.6273    0.6362 C   0  0  0  0  0  0  0  0  0  0  0  0
    3.3753    0.5211    0.3349 C   0  0  0  0  0  0  0  0  0  0  0  0
    4.3081   -0.0894    1.1401 C   0  0  0  0  0  0  0  0  0  0  0  0
    5.7149   -0.1823    0.7762 C   0  0  0  0  0  0  0  0  0  0  0  0
    6.7608   -0.2525    1.6144 N   0  0  0  0  0  0  0  0  0  0  0  0
    7.9115   -0.3292    0.8836 C   0  0  0  0  0  0  0  0  0  0  0  0
    7.5479   -0.3044   -0.3726 O   0  0  0  0  0  0  0  0  0  0  0  0
    6.2528   -0.2178   -0.4659 N   0  0  0  0  0  0  0  0  0  0  0  0
    3.8306   -0.6220    2.3320 C   0  0  0  0  0  0  0  0  0  0  0  0
    2.4997   -0.5229    2.6479 C   0  0  0  0  0  0  0  0  0  0  0  0
    1.5819    0.1022    1.8088 C   0  0  0  0  0  0  0  0  0  0  0  0
    0.2871    0.1611    2.1880 F   0  0  0  0  0  0  0  0  0  0  0  0
   -3.0163    0.3283    0.4606 C   0  0  0  0  0  0  0  0  0  0  0  0
   -2.7910    1.7111    0.6837 N   0  0  0  0  0  0  0  0  0  0  0  0
   -2.8410    2.7443   -0.1217 N   0  0  0  0  0  0  0  0  0  0  0  0
   -2.5479    3.8747    0.5422 C   0  0  0  0  0  0  0  0  0  0  0  0
   -2.2991    3.5056    1.8547 C   0  0  0  0  0  0  0  0  0  0  0  0
   -2.4588    2.1867    1.8900 N   0  0  0  0  0  0  0  0  0  0  0  0
   -3.5880   -0.4407    1.4735 C   0  0  0  0  0  0  0  0  0  0  0  0
   -3.8098   -1.7786    1.2705 C   0  0  0  0  0  0  0  0  0  0  0  0
   -4.4191   -2.6104    2.3400 C   0  0  0  0  0  0  0  0  0  0  0  0
   -3.5501   -4.3637    0.7879 H   0  0  0  0  0  0  0  0  0  0  0  0
   -4.7061   -4.0061   -0.5279 H   0  0  0  0  0  0  0  0  0  0  0  0
   -2.9660   -4.1725   -0.9029 H   0  0  0  0  0  0  0  0  0  0  0  0
   -2.6267   -2.0089   -1.8719 H   0  0  0  0  0  0  0  0  0  0  0  0
    0.0174    2.7520   -2.6205 H   0  0  0  0  0  0  0  0  0  0  0  0
   -1.0035    1.8719   -3.7702 H   0  0  0  0  0  0  0  0  0  0  0  0
    0.9500    1.1779   -4.6315 H   0  0  0  0  0  0  0  0  0  0  0  0
    1.9442    1.6429   -3.2510 H   0  0  0  0  0  0  0  0  0  0  0  0
    0.6876   -1.6291   -1.8480 H   0  0  0  0  0  0  0  0  0  0  0  0
    2.1488   -0.6884   -1.4714 H   0  0  0  0  0  0  0  0  0  0  0  0
   -0.2799   -0.3561   -0.2782 H   0  0  0  0  0  0  0  0  0  0  0  0
    1.5444    2.0423   -0.9259 H   0  0  0  0  0  0  0  0  0  0  0  0
    0.3641    1.8520    0.3798 H   0  0  0  0  0  0  0  0  0  0  0  0
    3.7397    0.9387   -0.5957 H   0  0  0  0  0  0  0  0  0  0  0  0
    8.8908   -0.3948    1.3291 H   0  0  0  0  0  0  0  0  0  0  0  0
    4.5652   -1.1080    2.9777 H   0  0  0  0  0  0  0  0  0  0  0  0
    2.1885   -0.9572    3.5918 H   0  0  0  0  0  0  0  0  0  0  0  0
   -2.4958    4.8998    0.1936 H   0  0  0  0  0  0  0  0  0  0  0  0
   -2.0323    4.1376    2.6851 H   0  0  0  0  0  0  0  0  0  0  0  0
   -3.8705   -0.0238    2.4299 H   0  0  0  0  0  0  0  0  0  0  0  0
   -4.9814   -3.4786    1.9391 H   0  0  0  0  0  0  0  0  0  0  0  0
   -5.1645   -1.9749    2.8574 H   0  0  0  0  0  0  0  0  0  0  0  0
   -3.6229   -2.9357    3.0147 H   0  0  0  0  0  0  0  0  0  0  0  0
  1  2  1  0
  2  3  2  0
  3  4  1  0
  4  5  1  0
  5  6  2  0
  5  7  1  0
  7  8  1  0
  8  9  1  0
  9 10  1  0
 10 11  1  0
 11 12  1  0
 12 13  1  0
 13 14  1  0
 14 15  2  0
 15 16  1  0
 16 17  1  0
 17 18  1  0
 18 19  2  0
 19 20  1  0
 20 21  1  0
 16 22  2  0
 22 23  1  0
 23 24  2  0
 24 25  1  0
  4 26  2  0
 26 27  1  0
 27 28  1  0
 28 29  2  0
 29 30  1  0
 30 31  2  0
 26 32  1  0
 32 33  2  0
 33 34  1  0
 33  2  1  0
 12  7  1  0
 24 14  1  0
 31 27  1  0
 21 17  2  0
  1 35  1  0
  1 36  1  0
  1 37  1  0
  3 38  1  0
  8 39  1  0
  8 40  1  0
  9 41  1  0
  9 42  1  0
 11 43  1  0
 11 44  1  0
 12 45  1  1
 13 46  1  0
 13 47  1  0
 15 48  1  0
 19 49  1  0
 22 50  1  0
 23 51  1  0
 29 52  1  0
 30 53  1  0
 32 54  1  0
 34 55  1  0
 34 56  1  0
 34 57  1  0
M  END
$$$$
