@<TRIPOS>MOLECULE
*****
 57 61 0 0 0
SMALL
GASTEIGER

@<TRIPOS>ATOM
      1 C          -3.6981   -3.7730   -0.1577 C.3     1  UNL1       -0.0394
      2 C          -3.4647   -2.3381    0.0725 C.ar    1  UNL1       -0.0467
      3 C          -2.8936   -1.5605   -0.9344 C.ar    1  UNL1       -0.0443
      4 C          -2.6642   -0.2154   -0.7464 C.ar    1  UNL1        0.0642
      5 C          -2.0774    0.6335   -1.7620 C.2     1  UNL1        0.2491
      6 O          -2.9275    1.1763   -2.5558 O.2     1  UNL1       -0.2699
      7 N          -0.7050    0.8780   -1.9133 N.am    1  UNL1       -0.2897
      8 C          -0.2359    1.7334   -2.9598 C.3     1  UNL1        0.0388
      9 C           1.0288    1.0968   -3.5068 C.3     1  UNL1        0.0635
     10 O           1.1103   -0.2420   -3.2342 O.3     1  UNL1       -0.3764
     11 C           1.1306   -0.5987   -1.9087 C.3     1  UNL1        0.0666
     12 C           0.2404    0.2781   -1.0276 C.3     1  UNL1        0.0537
     13 C           1.0691    1.3020   -0.2786 C.3     1  UNL1       -0.0041
     14 C           2.0466    0.6273    0.6362 C.ar    1  UNL1       -0.0097
     15 C           3.3753    0.5211    0.3349 C.ar    1  UNL1       -0.0450
     16 C           4.3081   -0.0894    1.1401 C.ar    1  UNL1        0.0229
     17 C           5.7149   -0.1823    0.7762 C.ar    1  UNL1        0.2018
     18 N           6.7608   -0.2525    1.6144 N.ar    1  UNL1       -0.1942
     19 C           7.9115   -0.3292    0.8836 C.ar    1  UNL1        0.2147
     20 O           7.5479   -0.3044   -0.3726 O.2     1  UNL1       -0.3411
     21 N           6.2528   -0.2178   -0.4659 N.ar    1  UNL1       -0.0564
     22 C           3.8306   -0.6220    2.3320 C.ar    1  UNL1       -0.0482
     23 C           2.4997   -0.5229    2.6479 C.ar    1  UNL1       -0.0255
     24 C           1.5819    0.1022    1.8088 C.ar    1  UNL1        0.1267
     25 F           0.2871    0.1611    2.1880 F       1  UNL1       -0.2052
     26 C          -3.0163    0.3283    0.4606 C.ar    1  UNL1        0.0985
     27 N          -2.7910    1.7111    0.6837 N.ar    1  UNL1       -0.1496
     28 N          -2.8410    2.7443   -0.1217 N.ar    1  UNL1       -0.1556
     29 C          -2.5479    3.8747    0.5422 C.ar    1  UNL1        0.0697
     30 C          -2.2991    3.5056    1.8547 C.ar    1  UNL1        0.0697
     31 N          -2.4588    2.1867    1.8900 N.ar    1  UNL1       -0.1556
     32 C          -3.5880   -0.4407    1.4735 C.ar    1  UNL1       -0.0306
     33 C          -3.8098   -1.7786    1.2705 C.ar    1  UNL1       -0.0454
     34 C          -4.4191   -2.6104    2.3400 C.3     1  UNL1       -0.0394
     35 H          -3.5501   -4.3637    0.7879 H       1  UNL1        0.0278
     36 H          -4.7061   -4.0061   -0.5279 H       1  UNL1        0.0278
     37 H          -2.9660   -4.1725   -0.9029 H       1  UNL1        0.0278
     38 H          -2.6267   -2.0089   -1.8719 H       1  UNL1        0.0628
     39 H           0.0174    2.7520   -2.6205 H       1  UNL1        0.0487
     40 H          -1.0035    1.8719   -3.7702 H       1  UNL1        0.0487
     41 H           0.9500    1.1779   -4.6315 H       1  UNL1        0.0575
     42 H           1.9442    1.6429   -3.2510 H       1  UNL1        0.0575
     43 H           0.6876   -1.6291   -1.8480 H       1  UNL1        0.0578
     44 H           2.1488   -0.6884   -1.4714 H       1  UNL1        0.0578
     45 H          -0.2799   -0.3561   -0.2782 H       1  UNL1        0.0526
     46 H           1.5444    2.0423   -0.9259 H       1  UNL1        0.0333
     47 H           0.3641    1.8520    0.3798 H       1  UNL1        0.0333
     48 H           3.7397    0.9387   -0.5957 H       1  UNL1        0.0628
     49 H           8.8908   -0.3948    1.3291 H       1  UNL1        0.1283
     50 H           4.5652   -1.1080    2.9777 H       1  UNL1        0.0625
     51 H           2.1885   -0.9572    3.5918 H       1  UNL1        0.0646
     52 H          -2.4958    4.8998    0.1936 H       1  UNL1        0.0864
     53 H          -2.0323    4.1376    2.6851 H       1  UNL1        0.0864
     54 H          -3.8705   -0.0238    2.4299 H       1  UNL1        0.0642
     55 H          -4.9814   -3.4786    1.9391 H       1  UNL1        0.0278
     56 H          -5.1645   -1.9749    2.8574 H       1  UNL1        0.0278
     57 H          -3.6229   -2.9357    3.0147 H       1  UNL1        0.0278
@<TRIPOS>BOND
     1     1     2    1
     2     2     3   ar
     3     3     4   ar
     4     4     5    1
     5     5     6    2
     6     5     7   am
     7     7     8    1
     8     8     9    1
     9     9    10    1
    10    10    11    1
    11    11    12    1
    12    12    13    1
    13    13    14    1
    14    14    15   ar
    15    15    16   ar
    16    16    17    1
    17    17    18   ar
    18    18    19   ar
    19    19    20   ar
    20    20    21   ar
    21    16    22   ar
    22    22    23   ar
    23    23    24   ar
    24    24    25    1
    25     4    26   ar
    26    26    27    1
    27    27    28   ar
    28    28    29   ar
    29    29    30   ar
    30    30    31   ar
    31    26    32   ar
    32    32    33   ar
    33    33    34    1
    34    33     2   ar
    35    12     7    1
    36    24    14   ar
    37    31    27   ar
    38    21    17   ar
    39     1    35    1
    40     1    36    1
    41     1    37    1
    42     3    38    1
    43     8    39    1
    44     8    40    1
    45     9    41    1
    46     9    42    1
    47    11    43    1
    48    11    44    1
    49    12    45    1
    50    13    46    1
    51    13    47    1
    52    15    48    1
    53    19    49    1
    54    22    50    1
    55    23    51    1
    56    29    52    1
    57    30    53    1
    58    32    54    1
    59    34    55    1
    60    34    56    1
    61    34    57    1
