@<TRIPOS>MOLECULE
*****
 37 37 0 0 0
SMALL
GASTEIGER

@<TRIPOS>ATOM
      1 C          -1.7346    0.3738    0.6546 C.3     1  UNL1        0.0654
      2 C          -3.1609    0.7828    0.4388 C.3     1  UNL1       -0.0296
      3 C          -3.9306   -0.3478   -0.1591 C.3     1  UNL1        0.0455
      4 C          -5.3511    0.1320   -0.3106 C.2     1  UNL1        0.3047
      5 O          -6.5598    0.4556   -0.8963 O.3     1  UNL1       -0.4806
      6 O          -5.9869    0.5500    0.7041 O.2     1  UNL1       -0.2510
      7 C          -1.1122   -0.0103   -0.6550 C.3     1  UNL1        0.0375
      8 P           0.6068   -0.4774   -0.3561 P.3     1  UNL1        0.2072
      9 O           0.9141   -1.9328   -1.1575 O.3     1  UNL1       -0.3433
     10 O           0.9211   -0.6376    1.0947 O.2     1  UNL1       -0.2907
     11 C           1.6384    0.8693   -1.0667 C.3     1  UNL1        0.0494
     12 C           3.0605    0.6181   -0.6996 C.ar    1  UNL1       -0.0381
     13 C           3.8877   -0.1212   -1.4984 C.ar    1  UNL1       -0.0571
     14 C           5.2142   -0.4111   -1.2360 C.ar    1  UNL1       -0.0483
     15 C           5.6953    0.1177   -0.0517 C.ar    1  UNL1        0.0134
     16 I           7.7064   -0.2317    0.5127 I       1  UNL1       -0.0438
     17 C           4.9391    0.8872    0.8365 C.ar    1  UNL1       -0.0483
     18 C           3.6274    1.1050    0.4613 C.ar    1  UNL1       -0.0571
     19 C          -1.6764   -0.8309    1.5631 C.2     1  UNL1        0.3083
     20 O          -2.0634   -2.1459    1.6196 O.3     1  UNL1       -0.4804
     21 O          -1.1043   -0.7550    2.7011 O.2     1  UNL1       -0.2507
     22 H          -1.1479    1.1893    1.0998 H       1  UNL1        0.0419
     23 H          -3.1423    1.6854   -0.2128 H       1  UNL1        0.0278
     24 H          -3.5524    1.0979    1.4315 H       1  UNL1        0.0278
     25 H          -3.5346   -0.5694   -1.1802 H       1  UNL1        0.0378
     26 H          -3.9116   -1.2634    0.4552 H       1  UNL1        0.0378
     27 H          -6.6257    1.2317   -1.5699 H       1  UNL1        0.2951
     28 H          -1.6078   -0.9162   -1.0726 H       1  UNL1        0.0372
     29 H          -1.1928    0.7957   -1.4154 H       1  UNL1        0.0372
     30 H           0.1158   -2.4767   -1.1647 H       1  UNL1        0.2176
     31 H           1.5363    0.8618   -2.1491 H       1  UNL1        0.0413
     32 H           1.2862    1.7817   -0.5476 H       1  UNL1        0.0413
     33 H           3.4827   -0.5197   -2.4312 H       1  UNL1        0.0621
     34 H           5.8438   -0.9953   -1.8784 H       1  UNL1        0.0628
     35 H           5.3055    1.2964    1.7418 H       1  UNL1        0.0628
     36 H           2.9885    1.7055    1.1148 H       1  UNL1        0.0621
     37 H          -1.3743   -2.8946    1.4953 H       1  UNL1        0.2951
@<TRIPOS>BOND
     1     1     2    1
     2     2     3    1
     3     3     4    1
     4     4     5    1
     5     4     6    2
     6     1     7    1
     7     7     8    1
     8     8     9    1
     9     8    10    2
    10     8    11    1
    11    11    12    1
    12    12    13   ar
    13    13    14   ar
    14    14    15   ar
    15    15    16    1
    16    15    17   ar
    17    17    18   ar
    18     1    19    1
    19    19    20    1
    20    19    21    2
    21    18    12   ar
    22     1    22    1
    23     2    23    1
    24     2    24    1
    25     3    25    1
    26     3    26    1
    27     5    27    1
    28     7    28    1
    29     7    29    1
    30     9    30    1
    31    11    31    1
    32    11    32    1
    33    13    33    1
    34    14    34    1
    35    17    35    1
    36    18    36    1
    37    20    37    1
