
     RDKit          3D

 37 37  0  0  0  0  0  0  0  0999 V2000
   -1.7346    0.3738    0.6546 C   0  0  2  0  0  0  0  0  0  0  0  0
   -3.1609    0.7828    0.4388 C   0  0  0  0  0  0  0  0  0  0  0  0
   -3.9306   -0.3478   -0.1591 C   0  0  0  0  0  0  0  0  0  0  0  0
   -5.3511    0.1320   -0.3106 C   0  0  0  0  0  0  0  0  0  0  0  0
   -6.5598    0.4556   -0.8963 O   0  0  0  0  0  0  0  0  0  0  0  0
   -5.9869    0.5500    0.7041 O   0  0  0  0  0  0  0  0  0  0  0  0
   -1.1122   -0.0103   -0.6550 C   0  0  0  0  0  0  0  0  0  0  0  0
    0.6068   -0.4774   -0.3561 P   0  0  2  0  0  5  0  0  0  0  0  0
    0.9141   -1.9328   -1.1575 O   0  0  0  0  0  0  0  0  0  0  0  0
    0.9211   -0.6376    1.0947 O   0  0  0  0  0  0  0  0  0  0  0  0
    1.6384    0.8693   -1.0667 C   0  0  0  0  0  0  0  0  0  0  0  0
    3.0605    0.6181   -0.6996 C   0  0  0  0  0  0  0  0  0  0  0  0
    3.8877   -0.1212   -1.4984 C   0  0  0  0  0  0  0  0  0  0  0  0
    5.2142   -0.4111   -1.2360 C   0  0  0  0  0  0  0  0  0  0  0  0
    5.6953    0.1177   -0.0517 C   0  0  0  0  0  0  0  0  0  0  0  0
    7.7064   -0.2317    0.5127 I   0  0  0  0  0  0  0  0  0  0  0  0
    4.9391    0.8872    0.8365 C   0  0  0  0  0  0  0  0  0  0  0  0
    3.6274    1.1050    0.4613 C   0  0  0  0  0  0  0  0  0  0  0  0
   -1.6764   -0.8309    1.5631 C   0  0  0  0  0  0  0  0  0  0  0  0
   -2.0634   -2.1459    1.6196 O   0  0  0  0  0  0  0  0  0  0  0  0
   -1.1043   -0.7550    2.7011 O   0  0  0  0  0  0  0  0  0  0  0  0
   -1.1479    1.1893    1.0998 H   0  0  0  0  0  0  0  0  0  0  0  0
   -3.1423    1.6854   -0.2128 H   0  0  0  0  0  0  0  0  0  0  0  0
   -3.5524    1.0979    1.4315 H   0  0  0  0  0  0  0  0  0  0  0  0
   -3.5346   -0.5694   -1.1802 H   0  0  0  0  0  0  0  0  0  0  0  0
   -3.9116   -1.2634    0.4552 H   0  0  0  0  0  0  0  0  0  0  0  0
   -6.6257    1.2317   -1.5699 H   0  0  0  0  0  0  0  0  0  0  0  0
   -1.6078   -0.9162   -1.0726 H   0  0  0  0  0  0  0  0  0  0  0  0
   -1.1928    0.7957   -1.4154 H   0  0  0  0  0  0  0  0  0  0  0  0
    0.1158   -2.4767   -1.1647 H   0  0  0  0  0  0  0  0  0  0  0  0
    1.5363    0.8618   -2.1491 H   0  0  0  0  0  0  0  0  0  0  0  0
    1.2862    1.7817   -0.5476 H   0  0  0  0  0  0  0  0  0  0  0  0
    3.4827   -0.5197   -2.4312 H   0  0  0  0  0  0  0  0  0  0  0  0
    5.8438   -0.9953   -1.8784 H   0  0  0  0  0  0  0  0  0  0  0  0
    5.3055    1.2964    1.7418 H   0  0  0  0  0  0  0  0  0  0  0  0
    2.9885    1.7055    1.1148 H   0  0  0  0  0  0  0  0  0  0  0  0
   -1.3743   -2.8946    1.4953 H   0  0  0  0  0  0  0  0  0  0  0  0
  1  2  1  0
  2  3  1  0
  3  4  1  0
  4  5  1  0
  4  6  2  0
  1  7  1  0
  7  8  1  0
  8  9  1  6
  8 10  2  0
  8 11  1  0
 11 12  1  0
 12 13  2  0
 13 14  1  0
 14 15  2  0
 15 16  1  0
 15 17  1  0
 17 18  2  0
  1 19  1  0
 19 20  1  0
 19 21  2  0
 18 12  1  0
  1 22  1  1
  2 23  1  0
  2 24  1  0
  3 25  1  0
  3 26  1  0
  5 27  1  0
  7 28  1  0
  7 29  1  0
  9 30  1  0
 11 31  1  0
 11 32  1  0
 13 33  1  0
 14 34  1  0
 17 35  1  0
 18 36  1  0
 20 37  1  0
M  END
$$$$
