@<TRIPOS>MOLECULE
*****
 33 34 0 0 0
SMALL
GASTEIGER

@<TRIPOS>ATOM
      1 C          -0.0216   -2.1670   -1.0283 C.3     1  UNL1       -0.0517
      2 C           0.0264   -1.1885    0.0909 C.3     1  UNL1        0.0151
      3 C           0.2532   -1.9679    1.3772 C.3     1  UNL1       -0.0517
      4 C          -1.1733   -0.3804    0.2783 C.ar    1  UNL1       -0.0372
      5 C          -2.0657   -0.3933   -0.7670 C.ar    1  UNL1       -0.0543
      6 C          -3.2399    0.3500   -0.6769 C.ar    1  UNL1       -0.0199
      7 C          -3.5004    1.0937    0.4583 C.ar    1  UNL1        0.1169
      8 O          -4.6594    1.8405    0.5714 O.3     1  UNL1       -0.5068
      9 C          -2.5616    1.0731    1.4917 C.ar    1  UNL1       -0.0199
     10 C          -1.3785    0.3420    1.4351 C.ar    1  UNL1       -0.0543
     11 C           1.1709   -0.2784   -0.1841 C.ar    1  UNL1       -0.0372
     12 C           2.2705   -0.3159    0.6535 C.ar    1  UNL1       -0.0543
     13 C           3.3394    0.5209    0.4175 C.ar    1  UNL1       -0.0199
     14 C           3.3480    1.4116   -0.6477 C.ar    1  UNL1        0.1169
     15 O           4.4112    2.2695   -0.9133 O.3     1  UNL1       -0.5068
     16 C           2.2366    1.4481   -1.4931 C.ar    1  UNL1       -0.0199
     17 C           1.1659    0.6002   -1.2447 C.ar    1  UNL1       -0.0543
     18 H          -0.8953   -2.8020   -1.1089 H       1  UNL1        0.0241
     19 H           0.1546   -1.6832   -2.0334 H       1  UNL1        0.0241
     20 H           0.8442   -2.8752   -0.8962 H       1  UNL1        0.0241
     21 H           0.5169   -1.2844    2.2235 H       1  UNL1        0.0241
     22 H           0.9827   -2.7869    1.2627 H       1  UNL1        0.0241
     23 H          -0.7268   -2.4283    1.6840 H       1  UNL1        0.0241
     24 H          -1.9155   -0.9491   -1.6668 H       1  UNL1        0.0622
     25 H          -3.9392    0.3245   -1.5237 H       1  UNL1        0.0654
     26 H          -4.7707    2.6371   -0.0444 H       1  UNL1        0.2921
     27 H          -2.7092    1.6341    2.4051 H       1  UNL1        0.0654
     28 H          -0.6809    0.3570    2.2606 H       1  UNL1        0.0622
     29 H           2.3840   -0.9528    1.4973 H       1  UNL1        0.0622
     30 H           4.2380    0.5321    1.0523 H       1  UNL1        0.0654
     31 H           4.3887    3.2436   -0.6741 H       1  UNL1        0.2921
     32 H           2.2168    2.1414   -2.3417 H       1  UNL1        0.0654
     33 H           0.2902    0.6341   -1.9149 H       1  UNL1        0.0622
@<TRIPOS>BOND
     1     1     2    1
     2     2     3    1
     3     2     4    1
     4     4     5   ar
     5     5     6   ar
     6     6     7   ar
     7     7     8    1
     8     7     9   ar
     9     9    10   ar
    10     2    11    1
    11    11    12   ar
    12    12    13   ar
    13    13    14   ar
    14    14    15    1
    15    14    16   ar
    16    16    17   ar
    17    10     4   ar
    18    17    11   ar
    19     1    18    1
    20     1    19    1
    21     1    20    1
    22     3    21    1
    23     3    22    1
    24     3    23    1
    25     5    24    1
    26     6    25    1
    27     8    26    1
    28     9    27    1
    29    10    28    1
    30    12    29    1
    31    13    30    1
    32    15    31    1
    33    16    32    1
    34    17    33    1
