@<TRIPOS>MOLECULE
*****
 51 53 0 0 0
SMALL
GASTEIGER

@<TRIPOS>ATOM
      1 C          -4.6610    5.1250    1.1523 C.3     1  UNL1        0.0788
      2 O          -3.9739    4.0972    0.8621 O.3     1  UNL1       -0.4951
      3 C          -3.2770    3.0464    0.5663 C.ar    1  UNL1        0.1208
      4 C          -3.8403    1.7600    0.4263 C.ar    1  UNL1       -0.0180
      5 C          -3.1160    0.6447    0.1149 C.ar    1  UNL1       -0.0337
      6 C          -1.7596    0.7457   -0.0815 C.ar    1  UNL1        0.0574
      7 C          -1.1497    2.0014    0.0478 C.ar    1  UNL1        0.0069
      8 C          -1.8914    3.0947    0.3582 C.ar    1  UNL1       -0.0105
      9 C           0.1998    1.8163   -0.1628 C.ar    1  UNL1       -0.0214
     10 C           1.2383    2.8808   -0.1208 C.3     1  UNL1       -0.0374
     11 C           0.4095    0.4809   -0.4163 C.ar    1  UNL1        0.0312
     12 C           1.7342   -0.1223   -0.6993 C.3     1  UNL1       -0.0033
     13 C           2.4946   -0.3204    0.5850 C.3     1  UNL1        0.0308
     14 C           3.8265   -0.9298    0.2862 C.2     1  UNL1        0.2320
     15 O           4.1403   -1.1816   -0.9107 O.2     1  UNL1       -0.2742
     16 N           4.7726   -1.2470    1.2789 N.am    1  UNL1       -0.1902
     17 S           6.2963   -1.9515    0.8656 S.O2    1  UNL1        0.0423
     18 C           7.4760   -0.6487    0.5836 C.3     1  UNL1        0.0736
     19 O           6.7617   -2.9279    1.8934 O.2     1  UNL1       -0.1554
     20 O           6.0734   -2.6936   -0.4442 O.2     1  UNL1       -0.1554
     21 N          -0.7926   -0.1644   -0.3659 N.ar    1  UNL1       -0.2799
     22 C          -0.8959   -1.5593   -0.4867 C.2     1  UNL1        0.2631
     23 O           0.2091   -2.2600   -0.3555 O.2     1  UNL1       -0.2667
     24 C          -2.0213   -2.4056   -0.7433 C.ar    1  UNL1        0.0399
     25 C          -2.1181   -3.6561   -0.1681 C.ar    1  UNL1       -0.0480
     26 C          -3.1608   -4.5256   -0.5041 C.ar    1  UNL1       -0.0427
     27 C          -4.1181   -4.1674   -1.4123 C.ar    1  UNL1        0.0410
     28 CL         -5.4190   -5.2545   -1.8302 Cl      1  UNL1       -0.0835
     29 C          -4.0412   -2.9311   -1.9955 C.ar    1  UNL1       -0.0427
     30 C          -2.9927   -2.0812   -1.6450 C.ar    1  UNL1       -0.0480
     31 H          -4.2194    5.8044    1.9612 H       1  UNL1        0.0660
     32 H          -5.6871    4.8442    1.6020 H       1  UNL1        0.0660
     33 H          -4.8856    5.8523    0.3062 H       1  UNL1        0.0660
     34 H          -4.9031    1.7196    0.5856 H       1  UNL1        0.0655
     35 H          -3.6034   -0.3112    0.0611 H       1  UNL1        0.0640
     36 H          -1.3945    4.0506    0.4504 H       1  UNL1        0.0661
     37 H           0.7597    3.8561   -0.3281 H       1  UNL1        0.0278
     38 H           1.6400    2.8850    0.9124 H       1  UNL1        0.0278
     39 H           2.0078    2.6079   -0.8703 H       1  UNL1        0.0278
     40 H           2.3655    0.6402   -1.2743 H       1  UNL1        0.0332
     41 H           1.7311   -1.0076   -1.3210 H       1  UNL1        0.0332
     42 H           2.6553    0.6905    1.0592 H       1  UNL1        0.0362
     43 H           1.9721   -0.9593    1.3161 H       1  UNL1        0.0362
     44 H           4.5465   -1.0525    2.2736 H       1  UNL1        0.1761
     45 H           8.1722   -0.8965   -0.2395 H       1  UNL1        0.0482
     46 H           6.8889    0.2455    0.2568 H       1  UNL1        0.0482
     47 H           7.9826   -0.3798    1.5285 H       1  UNL1        0.0482
     48 H          -1.4122   -4.0274    0.5572 H       1  UNL1        0.0626
     49 H          -3.2376   -5.5103   -0.0512 H       1  UNL1        0.0632
     50 H          -4.7792   -2.6076   -2.7200 H       1  UNL1        0.0632
     51 H          -3.0034   -1.1094   -2.1631 H       1  UNL1        0.0626
@<TRIPOS>BOND
     1     1     2    1
     2     2     3    1
     3     3     4   ar
     4     4     5   ar
     5     5     6   ar
     6     6     7   ar
     7     7     8   ar
     8     7     9   ar
     9     9    10    1
    10     9    11   ar
    11    11    12    1
    12    12    13    1
    13    13    14    1
    14    14    15    2
    15    14    16   am
    16    16    17    1
    17    17    18    1
    18    17    19    2
    19    17    20    2
    20    11    21   ar
    21    21    22   am
    22    22    23    2
    23    22    24    1
    24    24    25   ar
    25    25    26   ar
    26    26    27   ar
    27    27    28    1
    28    27    29   ar
    29    29    30   ar
    30     8     3   ar
    31    30    24   ar
    32    21     6   ar
    33     1    31    1
    34     1    32    1
    35     1    33    1
    36     4    34    1
    37     5    35    1
    38     8    36    1
    39    10    37    1
    40    10    38    1
    41    10    39    1
    42    12    40    1
    43    12    41    1
    44    13    42    1
    45    13    43    1
    46    16    44    1
    47    18    45    1
    48    18    46    1
    49    18    47    1
    50    25    48    1
    51    26    49    1
    52    29    50    1
    53    30    51    1
