
     RDKit          3D

 51 53  0  0  0  0  0  0  0  0999 V2000
   -4.6610    5.1250    1.1523 C   0  0  0  0  0  0  0  0  0  0  0  0
   -3.9739    4.0972    0.8621 O   0  0  0  0  0  0  0  0  0  0  0  0
   -3.2770    3.0464    0.5663 C   0  0  0  0  0  0  0  0  0  0  0  0
   -3.8403    1.7600    0.4263 C   0  0  0  0  0  0  0  0  0  0  0  0
   -3.1160    0.6447    0.1149 C   0  0  0  0  0  0  0  0  0  0  0  0
   -1.7596    0.7457   -0.0815 C   0  0  0  0  0  0  0  0  0  0  0  0
   -1.1497    2.0014    0.0478 C   0  0  0  0  0  0  0  0  0  0  0  0
   -1.8914    3.0947    0.3582 C   0  0  0  0  0  0  0  0  0  0  0  0
    0.1998    1.8163   -0.1628 C   0  0  0  0  0  0  0  0  0  0  0  0
    1.2383    2.8808   -0.1208 C   0  0  0  0  0  0  0  0  0  0  0  0
    0.4095    0.4809   -0.4163 C   0  0  0  0  0  0  0  0  0  0  0  0
    1.7342   -0.1223   -0.6993 C   0  0  0  0  0  0  0  0  0  0  0  0
    2.4946   -0.3204    0.5850 C   0  0  0  0  0  0  0  0  0  0  0  0
    3.8265   -0.9298    0.2862 C   0  0  0  0  0  0  0  0  0  0  0  0
    4.1403   -1.1816   -0.9107 O   0  0  0  0  0  0  0  0  0  0  0  0
    4.7726   -1.2470    1.2789 N   0  0  0  0  0  0  0  0  0  0  0  0
    6.2963   -1.9515    0.8656 S   0  0  0  0  0  6  0  0  0  0  0  0
    7.4760   -0.6487    0.5836 C   0  0  0  0  0  0  0  0  0  0  0  0
    6.7617   -2.9279    1.8934 O   0  0  0  0  0  0  0  0  0  0  0  0
    6.0734   -2.6936   -0.4442 O   0  0  0  0  0  0  0  0  0  0  0  0
   -0.7926   -0.1644   -0.3659 N   0  0  0  0  0  0  0  0  0  0  0  0
   -0.8959   -1.5593   -0.4867 C   0  0  0  0  0  0  0  0  0  0  0  0
    0.2091   -2.2600   -0.3555 O   0  0  0  0  0  0  0  0  0  0  0  0
   -2.0213   -2.4056   -0.7433 C   0  0  0  0  0  0  0  0  0  0  0  0
   -2.1181   -3.6561   -0.1681 C   0  0  0  0  0  0  0  0  0  0  0  0
   -3.1608   -4.5256   -0.5041 C   0  0  0  0  0  0  0  0  0  0  0  0
   -4.1181   -4.1674   -1.4123 C   0  0  0  0  0  0  0  0  0  0  0  0
   -5.4190   -5.2545   -1.8302 Cl  0  0  0  0  0  0  0  0  0  0  0  0
   -4.0412   -2.9311   -1.9955 C   0  0  0  0  0  0  0  0  0  0  0  0
   -2.9927   -2.0812   -1.6450 C   0  0  0  0  0  0  0  0  0  0  0  0
   -4.2194    5.8044    1.9612 H   0  0  0  0  0  0  0  0  0  0  0  0
   -5.6871    4.8442    1.6020 H   0  0  0  0  0  0  0  0  0  0  0  0
   -4.8856    5.8523    0.3062 H   0  0  0  0  0  0  0  0  0  0  0  0
   -4.9031    1.7196    0.5856 H   0  0  0  0  0  0  0  0  0  0  0  0
   -3.6034   -0.3112    0.0611 H   0  0  0  0  0  0  0  0  0  0  0  0
   -1.3945    4.0506    0.4504 H   0  0  0  0  0  0  0  0  0  0  0  0
    0.7597    3.8561   -0.3281 H   0  0  0  0  0  0  0  0  0  0  0  0
    1.6400    2.8850    0.9124 H   0  0  0  0  0  0  0  0  0  0  0  0
    2.0078    2.6079   -0.8703 H   0  0  0  0  0  0  0  0  0  0  0  0
    2.3655    0.6402   -1.2743 H   0  0  0  0  0  0  0  0  0  0  0  0
    1.7311   -1.0076   -1.3210 H   0  0  0  0  0  0  0  0  0  0  0  0
    2.6553    0.6905    1.0592 H   0  0  0  0  0  0  0  0  0  0  0  0
    1.9721   -0.9593    1.3161 H   0  0  0  0  0  0  0  0  0  0  0  0
    4.5465   -1.0525    2.2736 H   0  0  0  0  0  0  0  0  0  0  0  0
    8.1722   -0.8965   -0.2395 H   0  0  0  0  0  0  0  0  0  0  0  0
    6.8889    0.2455    0.2568 H   0  0  0  0  0  0  0  0  0  0  0  0
    7.9826   -0.3798    1.5285 H   0  0  0  0  0  0  0  0  0  0  0  0
   -1.4122   -4.0274    0.5572 H   0  0  0  0  0  0  0  0  0  0  0  0
   -3.2376   -5.5103   -0.0512 H   0  0  0  0  0  0  0  0  0  0  0  0
   -4.7792   -2.6076   -2.7200 H   0  0  0  0  0  0  0  0  0  0  0  0
   -3.0034   -1.1094   -2.1631 H   0  0  0  0  0  0  0  0  0  0  0  0
  1  2  1  0
  2  3  1  0
  3  4  2  0
  4  5  1  0
  5  6  2  0
  6  7  1  0
  7  8  2  0
  7  9  1  0
  9 10  1  0
  9 11  2  0
 11 12  1  0
 12 13  1  0
 13 14  1  0
 14 15  2  0
 14 16  1  0
 16 17  1  0
 17 18  1  0
 17 19  2  0
 17 20  2  0
 11 21  1  0
 21 22  1  0
 22 23  2  0
 22 24  1  0
 24 25  2  0
 25 26  1  0
 26 27  2  0
 27 28  1  0
 27 29  1  0
 29 30  2  0
  8  3  1  0
 30 24  1  0
 21  6  1  0
  1 31  1  0
  1 32  1  0
  1 33  1  0
  4 34  1  0
  5 35  1  0
  8 36  1  0
 10 37  1  0
 10 38  1  0
 10 39  1  0
 12 40  1  0
 12 41  1  0
 13 42  1  0
 13 43  1  0
 16 44  1  0
 18 45  1  0
 18 46  1  0
 18 47  1  0
 25 48  1  0
 26 49  1  0
 29 50  1  0
 30 51  1  0
M  END
$$$$
