
     RDKit          3D

 59 62  0  0  0  0  0  0  0  0999 V2000
   -3.5549   -1.9308   -1.9600 O   0  0  0  0  0  0  0  0  0  0  0  0
   -3.8390   -1.1609   -0.9851 C   0  0  0  0  0  0  0  0  0  0  0  0
   -5.0858   -0.4263   -1.2146 C   0  0  0  0  0  0  0  0  0  0  0  0
   -5.4861    0.2362    0.0788 C   0  0  0  0  0  0  0  0  0  0  0  0
   -6.9795    0.3077    0.2249 C   0  0  0  0  0  0  0  0  0  0  0  0
   -7.3539    1.5975   -0.4606 C   0  0  0  0  0  0  0  0  0  0  0  0
   -6.1992    2.5269   -0.2593 C   0  0  0  0  0  0  0  0  0  0  0  0
   -5.0023    1.6796    0.0222 C   0  0  0  0  0  0  0  0  0  0  0  0
   -4.9586   -0.4553    1.3106 C   0  0  0  0  0  0  0  0  0  0  0  0
   -3.4630   -0.6031    1.2914 C   0  0  0  0  0  0  0  0  0  0  0  0
   -2.7231   -0.2505    2.2636 O   0  0  0  0  0  0  0  0  0  0  0  0
   -2.9151   -1.1732    0.0929 N   0  0  0  0  0  0  0  0  0  0  0  0
   -1.5889   -1.6655    0.0996 C   0  0  0  0  0  0  0  0  0  0  0  0
   -0.5252   -0.6777   -0.2865 C   0  0  0  0  0  0  0  0  0  0  0  0
    0.7969   -1.4186   -0.1907 C   0  0  0  0  0  0  0  0  0  0  0  0
    1.9850   -0.5513   -0.5666 C   0  0  0  0  0  0  0  0  0  0  0  0
    3.1489   -1.3339   -0.4290 N   0  0  0  0  0  0  0  0  0  0  0  0
    3.5635   -1.7204    0.8591 C   0  0  0  0  0  0  0  0  0  0  0  0
    4.8355   -1.0708    1.3406 C   0  0  0  0  0  0  0  0  0  0  0  0
    5.5643   -0.4957    0.2542 N   0  0  0  0  0  0  0  0  0  0  0  0
    5.5280   -1.2604   -1.0050 C   0  0  0  0  0  0  0  0  0  0  0  0
    4.0912   -1.3701   -1.4741 C   0  0  0  0  0  0  0  0  0  0  0  0
    6.2894    0.7248    0.3150 C   0  0  0  0  0  0  0  0  0  0  0  0
    6.3212    1.4540    1.4324 N   0  0  0  0  0  0  0  0  0  0  0  0
    7.0087    2.5934    1.4487 C   0  0  0  0  0  0  0  0  0  0  0  0
    7.7111    3.0766    0.3422 C   0  0  0  0  0  0  0  0  0  0  0  0
    7.6379    2.2664   -0.7960 C   0  0  0  0  0  0  0  0  0  0  0  0
    6.9526    1.1345   -0.8065 N   0  0  0  0  0  0  0  0  0  0  0  0
   -5.0072    0.3613   -1.9931 H   0  0  0  0  0  0  0  0  0  0  0  0
   -5.9186   -1.1033   -1.5282 H   0  0  0  0  0  0  0  0  0  0  0  0
   -7.2474    0.3537    1.3218 H   0  0  0  0  0  0  0  0  0  0  0  0
   -7.5074   -0.5601   -0.1904 H   0  0  0  0  0  0  0  0  0  0  0  0
   -8.3039    1.9664    0.0265 H   0  0  0  0  0  0  0  0  0  0  0  0
   -7.5505    1.3643   -1.5246 H   0  0  0  0  0  0  0  0  0  0  0  0
   -6.0930    3.1712   -1.1662 H   0  0  0  0  0  0  0  0  0  0  0  0
   -6.3556    3.1700    0.6544 H   0  0  0  0  0  0  0  0  0  0  0  0
   -4.2805    1.8115   -0.8112 H   0  0  0  0  0  0  0  0  0  0  0  0
   -4.4797    1.9577    0.9623 H   0  0  0  0  0  0  0  0  0  0  0  0
   -5.4518   -1.3963    1.5382 H   0  0  0  0  0  0  0  0  0  0  0  0
   -5.1793    0.2452    2.1678 H   0  0  0  0  0  0  0  0  0  0  0  0
   -1.3407   -2.0619    1.0950 H   0  0  0  0  0  0  0  0  0  0  0  0
   -1.5322   -2.5188   -0.6246 H   0  0  0  0  0  0  0  0  0  0  0  0
   -0.5918   -0.3298   -1.3237 H   0  0  0  0  0  0  0  0  0  0  0  0
   -0.5051    0.1268    0.4588 H   0  0  0  0  0  0  0  0  0  0  0  0
    0.9335   -1.8892    0.8006 H   0  0  0  0  0  0  0  0  0  0  0  0
    0.7732   -2.2828   -0.9107 H   0  0  0  0  0  0  0  0  0  0  0  0
    1.8441   -0.2181   -1.6304 H   0  0  0  0  0  0  0  0  0  0  0  0
    2.0171    0.3757    0.0279 H   0  0  0  0  0  0  0  0  0  0  0  0
    3.7182   -2.8311    0.9275 H   0  0  0  0  0  0  0  0  0  0  0  0
    2.7653   -1.4978    1.5963 H   0  0  0  0  0  0  0  0  0  0  0  0
    5.4716   -1.7758    1.9193 H   0  0  0  0  0  0  0  0  0  0  0  0
    4.5852   -0.2555    2.0464 H   0  0  0  0  0  0  0  0  0  0  0  0
    6.2035   -0.8179   -1.7430 H   0  0  0  0  0  0  0  0  0  0  0  0
    5.8685   -2.2835   -0.7318 H   0  0  0  0  0  0  0  0  0  0  0  0
    3.9747   -2.3272   -2.0627 H   0  0  0  0  0  0  0  0  0  0  0  0
    3.9083   -0.5330   -2.1783 H   0  0  0  0  0  0  0  0  0  0  0  0
    7.0979    3.2618    2.3075 H   0  0  0  0  0  0  0  0  0  0  0  0
    8.2887    3.9625    0.2372 H   0  0  0  0  0  0  0  0  0  0  0  0
    8.1353    2.5210   -1.7238 H   0  0  0  0  0  0  0  0  0  0  0  0
  1  2  2  0
  2  3  1  0
  3  4  1  0
  4  5  1  0
  5  6  1  0
  6  7  1  0
  7  8  1  0
  4  9  1  0
  9 10  1  0
 10 11  2  0
 10 12  1  0
 12 13  1  0
 13 14  1  0
 14 15  1  0
 15 16  1  0
 16 17  1  0
 17 18  1  0
 18 19  1  0
 19 20  1  0
 20 21  1  0
 21 22  1  0
 20 23  1  0
 23 24  2  0
 24 25  1  0
 25 26  2  0
 26 27  1  0
 27 28  2  0
 12  2  1  0
 22 17  1  0
 28 23  1  0
  8  4  1  0
  3 29  1  0
  3 30  1  0
  5 31  1  0
  5 32  1  0
  6 33  1  0
  6 34  1  0
  7 35  1  0
  7 36  1  0
  8 37  1  0
  8 38  1  0
  9 39  1  0
  9 40  1  0
 13 41  1  0
 13 42  1  0
 14 43  1  0
 14 44  1  0
 15 45  1  0
 15 46  1  0
 16 47  1  0
 16 48  1  0
 18 49  1  0
 18 50  1  0
 19 51  1  0
 19 52  1  0
 21 53  1  0
 21 54  1  0
 22 55  1  0
 22 56  1  0
 25 57  1  0
 26 58  1  0
 27 59  1  0
M  END
$$$$
