
     RDKit          3D

 44 45  0  0  0  0  0  0  0  0999 V2000
   -2.0893   -1.2438   -0.9356 C   0  0  0  0  0  0  0  0  0  0  0  0
   -3.4277   -0.6772   -0.6064 C   0  0  0  0  0  0  0  0  0  0  0  0
   -3.7479    0.4481   -1.5901 C   0  0  0  0  0  0  0  0  0  0  0  0
   -3.4428   -0.0778    0.7657 C   0  0  2  0  0  0  0  0  0  0  0  0
   -3.1291   -1.0594    1.7492 N   0  0  0  0  0  0  0  0  0  0  0  0
   -1.8145   -0.5745    2.7284 S   0  0  0  0  0  6  0  0  0  0  0  0
   -2.1737    0.7642    3.3596 O   0  0  0  0  0  0  0  0  0  0  0  0
   -1.5538   -1.5418    3.8462 O   0  0  0  0  0  0  0  0  0  0  0  0
   -0.3977   -0.3692    1.7685 C   0  0  0  0  0  0  0  0  0  0  0  0
   -0.0556    0.8691    1.2752 C   0  0  0  0  0  0  0  0  0  0  0  0
    1.0747    1.0378    0.5066 C   0  0  0  0  0  0  0  0  0  0  0  0
    1.9258    0.0030    0.1833 C   0  0  0  0  0  0  0  0  0  0  0  0
    3.1126    0.2007   -0.6274 C   0  0  0  0  0  0  0  0  0  0  0  0
    3.6152   -0.7664   -1.4620 C   0  0  0  0  0  0  0  0  0  0  0  0
    4.7598   -0.5092   -2.2115 C   0  0  0  0  0  0  0  0  0  0  0  0
    5.3997    0.7215   -2.1221 C   0  0  0  0  0  0  0  0  0  0  0  0
    6.5938    1.0107   -2.8941 C   0  0  0  0  0  0  0  0  0  0  0  0
    7.1422    2.1250   -2.7892 O   0  0  0  0  0  0  0  0  0  0  0  0
    4.8858    1.6877   -1.2792 C   0  0  0  0  0  0  0  0  0  0  0  0
    3.7640    1.4064   -0.5582 C   0  0  0  0  0  0  0  0  0  0  0  0
    1.5770   -1.2346    0.6811 C   0  0  0  0  0  0  0  0  0  0  0  0
    0.4549   -1.4271    1.4496 C   0  0  0  0  0  0  0  0  0  0  0  0
   -4.8054    0.4533    1.1006 C   0  0  0  0  0  0  0  0  0  0  0  0
   -5.3009    1.3390    0.3669 O   0  0  0  0  0  0  0  0  0  0  0  0
   -5.4951   -0.0182    2.1846 O   0  0  0  0  0  0  0  0  0  0  0  0
   -2.0990   -1.6964   -1.9694 H   0  0  0  0  0  0  0  0  0  0  0  0
   -1.3144   -0.4775   -0.9622 H   0  0  0  0  0  0  0  0  0  0  0  0
   -1.7815   -2.0458   -0.2524 H   0  0  0  0  0  0  0  0  0  0  0  0
   -4.1768   -1.4817   -0.6657 H   0  0  0  0  0  0  0  0  0  0  0  0
   -3.4521    1.4406   -1.1482 H   0  0  0  0  0  0  0  0  0  0  0  0
   -3.1949    0.3041   -2.5355 H   0  0  0  0  0  0  0  0  0  0  0  0
   -4.8160    0.4906   -1.8286 H   0  0  0  0  0  0  0  0  0  0  0  0
   -2.7124    0.7678    0.8509 H   0  0  0  0  0  0  0  0  0  0  0  0
   -3.9213   -1.3699    2.3307 H   0  0  0  0  0  0  0  0  0  0  0  0
   -0.6596    1.7375    1.4832 H   0  0  0  0  0  0  0  0  0  0  0  0
    1.3516    2.0260    0.1099 H   0  0  0  0  0  0  0  0  0  0  0  0
    3.1122   -1.7262   -1.5288 H   0  0  0  0  0  0  0  0  0  0  0  0
    5.1552   -1.2689   -2.8678 H   0  0  0  0  0  0  0  0  0  0  0  0
    6.9899    0.2603   -3.5466 H   0  0  0  0  0  0  0  0  0  0  0  0
    5.3588    2.6640   -1.1818 H   0  0  0  0  0  0  0  0  0  0  0  0
    3.3832    2.2003    0.1032 H   0  0  0  0  0  0  0  0  0  0  0  0
    2.2409   -2.0622    0.4338 H   0  0  0  0  0  0  0  0  0  0  0  0
    0.1830   -2.4040    1.8404 H   0  0  0  0  0  0  0  0  0  0  0  0
   -6.5187    0.0742    2.2349 H   0  0  0  0  0  0  0  0  0  0  0  0
  1  2  1  0
  2  3  1  0
  2  4  1  0
  4  5  1  0
  5  6  1  0
  6  7  2  0
  6  8  2  0
  6  9  1  0
  9 10  2  0
 10 11  1  0
 11 12  2  0
 12 13  1  0
 13 14  2  0
 14 15  1  0
 15 16  2  0
 16 17  1  0
 17 18  2  0
 16 19  1  0
 19 20  2  0
 12 21  1  0
 21 22  2  0
  4 23  1  0
 23 24  2  0
 23 25  1  0
 22  9  1  0
 20 13  1  0
  1 26  1  0
  1 27  1  0
  1 28  1  0
  2 29  1  0
  3 30  1  0
  3 31  1  0
  3 32  1  0
  4 33  1  6
  5 34  1  0
 10 35  1  0
 11 36  1  0
 14 37  1  0
 15 38  1  0
 17 39  1  0
 19 40  1  0
 20 41  1  0
 21 42  1  0
 22 43  1  0
 25 44  1  0
M  END
$$$$
