@<TRIPOS>MOLECULE
*****
 44 45 0 0 0
SMALL
GASTEIGER

@<TRIPOS>ATOM
      1 C          -2.0893   -1.2438   -0.9356 C.3     1  UNL1       -0.0607
      2 C          -3.4277   -0.6772   -0.6064 C.3     1  UNL1       -0.0194
      3 C          -3.7479    0.4481   -1.5901 C.3     1  UNL1       -0.0607
      4 C          -3.4428   -0.0778    0.7657 C.3     1  UNL1        0.1276
      5 N          -3.1291   -1.0594    1.7492 N.3     1  UNL1       -0.1759
      6 S          -1.8145   -0.5745    2.7284 S.O2    1  UNL1        0.0591
      7 O          -2.1737    0.7642    3.3596 O.2     1  UNL1       -0.1530
      8 O          -1.5538   -1.5418    3.8462 O.2     1  UNL1       -0.1530
      9 C          -0.3977   -0.3692    1.7685 C.ar    1  UNL1        0.1053
     10 C          -0.0556    0.8691    1.2752 C.ar    1  UNL1       -0.0348
     11 C           1.0747    1.0378    0.5066 C.ar    1  UNL1       -0.0522
     12 C           1.9258    0.0030    0.1833 C.ar    1  UNL1       -0.0178
     13 C           3.1126    0.2007   -0.6274 C.ar    1  UNL1       -0.0178
     14 C           3.6152   -0.7664   -1.4620 C.ar    1  UNL1       -0.0534
     15 C           4.7598   -0.5092   -2.2115 C.ar    1  UNL1       -0.0510
     16 C           5.3997    0.7215   -2.1221 C.ar    1  UNL1        0.0142
     17 C           6.5938    1.0107   -2.8941 C.2     1  UNL1        0.1502
     18 O           7.1422    2.1250   -2.7892 O.2     1  UNL1       -0.2957
     19 C           4.8858    1.6877   -1.2792 C.ar    1  UNL1       -0.0510
     20 C           3.7640    1.4064   -0.5582 C.ar    1  UNL1       -0.0534
     21 C           1.5770   -1.2346    0.6811 C.ar    1  UNL1       -0.0522
     22 C           0.4549   -1.4271    1.4496 C.ar    1  UNL1       -0.0348
     23 C          -4.8054    0.4533    1.1006 C.2     1  UNL1        0.3238
     24 O          -5.3009    1.3390    0.3669 O.2     1  UNL1       -0.2492
     25 O          -5.4951   -0.0182    2.1846 O.3     1  UNL1       -0.4795
     26 H          -2.0990   -1.6964   -1.9694 H       1  UNL1        0.0233
     27 H          -1.3144   -0.4775   -0.9622 H       1  UNL1        0.0233
     28 H          -1.7815   -2.0458   -0.2524 H       1  UNL1        0.0233
     29 H          -4.1768   -1.4817   -0.6657 H       1  UNL1        0.0316
     30 H          -3.4521    1.4406   -1.1482 H       1  UNL1        0.0233
     31 H          -3.1949    0.3041   -2.5355 H       1  UNL1        0.0233
     32 H          -4.8160    0.4906   -1.8286 H       1  UNL1        0.0233
     33 H          -2.7124    0.7678    0.8509 H       1  UNL1        0.0595
     34 H          -3.9213   -1.3699    2.3307 H       1  UNL1        0.1489
     35 H          -0.6596    1.7375    1.4832 H       1  UNL1        0.0637
     36 H           1.3516    2.0260    0.1099 H       1  UNL1        0.0624
     37 H           3.1122   -1.7262   -1.5288 H       1  UNL1        0.0624
     38 H           5.1552   -1.2689   -2.8678 H       1  UNL1        0.0625
     39 H           6.9899    0.2603   -3.5466 H       1  UNL1        0.1081
     40 H           5.3588    2.6640   -1.1818 H       1  UNL1        0.0625
     41 H           3.3832    2.2003    0.1032 H       1  UNL1        0.0624
     42 H           2.2409   -2.0622    0.4338 H       1  UNL1        0.0624
     43 H           0.1830   -2.4040    1.8404 H       1  UNL1        0.0637
     44 H          -6.5187    0.0742    2.2349 H       1  UNL1        0.2951
@<TRIPOS>BOND
     1     1     2    1
     2     2     3    1
     3     2     4    1
     4     4     5    1
     5     5     6    1
     6     6     7    2
     7     6     8    2
     8     6     9    1
     9     9    10   ar
    10    10    11   ar
    11    11    12   ar
    12    12    13    1
    13    13    14   ar
    14    14    15   ar
    15    15    16   ar
    16    16    17    1
    17    17    18    2
    18    16    19   ar
    19    19    20   ar
    20    12    21   ar
    21    21    22   ar
    22     4    23    1
    23    23    24    2
    24    23    25    1
    25    22     9   ar
    26    20    13   ar
    27     1    26    1
    28     1    27    1
    29     1    28    1
    30     2    29    1
    31     3    30    1
    32     3    31    1
    33     3    32    1
    34     4    33    1
    35     5    34    1
    36    10    35    1
    37    11    36    1
    38    14    37    1
    39    15    38    1
    40    17    39    1
    41    19    40    1
    42    20    41    1
    43    21    42    1
    44    22    43    1
    45    25    44    1
