@<TRIPOS>MOLECULE
*****
 23 24 0 0 0
SMALL
GASTEIGER

@<TRIPOS>ATOM
      1 F          -5.0813    0.0990   -0.6988 F       1  UNL1       -0.2055
      2 C          -3.7383   -0.0229   -0.4834 C.ar    1  UNL1        0.1234
      3 C          -2.6891    0.1668   -1.3573 C.ar    1  UNL1       -0.0258
      4 C          -1.3795    0.0109   -0.9322 C.ar    1  UNL1       -0.0482
      5 C          -1.0915   -0.3421    0.3983 C.ar    1  UNL1        0.0224
      6 C          -2.1470   -0.5229    1.2285 C.ar    1  UNL1       -0.0482
      7 C          -3.4511   -0.3698    0.8181 C.ar    1  UNL1       -0.0258
      8 C           0.2879   -0.4619    0.6473 C.2     1  UNL1        0.1932
      9 O           0.4016   -1.2413    1.6797 O.2     1  UNL1       -0.2867
     10 C           1.6039   -0.0866    0.2309 C.ar    1  UNL1        0.0251
     11 C           1.7405    1.1106   -0.4419 C.ar    1  UNL1       -0.0328
     12 C           2.9519    1.5322   -0.8984 C.ar    1  UNL1        0.0282
     13 N           4.0384    0.7544   -0.6833 N.ar    1  UNL1       -0.2632
     14 C           3.9512   -0.4103   -0.0372 C.ar    1  UNL1        0.0282
     15 C           2.7421   -0.8619    0.4355 C.ar    1  UNL1       -0.0328
     16 H          -3.0729    0.4342   -2.3333 H       1  UNL1        0.0646
     17 H          -0.7138    0.1985   -1.7573 H       1  UNL1        0.0625
     18 H          -1.8680   -0.8081    2.2525 H       1  UNL1        0.0625
     19 H          -4.1628   -0.5493    1.6095 H       1  UNL1        0.0646
     20 H           0.9480    1.8393   -0.6845 H       1  UNL1        0.0640
     21 H           3.2899    2.4206   -1.4362 H       1  UNL1        0.0830
     22 H           4.7933   -1.0887    0.1602 H       1  UNL1        0.0830
     23 H           2.6466   -1.8009    0.9661 H       1  UNL1        0.0640
@<TRIPOS>BOND
     1     1     2    1
     2     2     3   ar
     3     3     4   ar
     4     4     5   ar
     5     5     6   ar
     6     6     7   ar
     7     5     8    1
     8     8     9    2
     9     8    10    1
    10    10    11   ar
    11    11    12   ar
    12    12    13   ar
    13    13    14   ar
    14    14    15   ar
    15     7     2   ar
    16    15    10   ar
    17     3    16    1
    18     4    17    1
    19     6    18    1
    20     7    19    1
    21    11    20    1
    22    12    21    1
    23    14    22    1
    24    15    23    1
