
     RDKit          3D

 30 31  0  0  0  0  0  0  0  0999 V2000
   -4.2392   -0.9972    0.1214 C   0  0  0  0  0  0  0  0  0  0  0  0
   -3.8159    0.3919   -0.2607 C   0  0  0  0  0  0  0  0  0  0  0  0
   -2.3488    0.5371   -0.5492 C   0  0  0  0  0  0  0  0  0  0  0  0
   -1.9095   -0.3126   -1.6495 N   0  0  0  0  0  0  0  0  0  0  0  0
   -0.5035   -0.2766   -1.9093 C   0  0  0  0  0  0  0  0  0  0  0  0
    0.0225   -0.4865   -3.0206 O   0  0  0  0  0  0  0  0  0  0  0  0
    0.4422    0.0275   -0.8139 C   0  0  0  0  0  0  0  0  0  0  0  0
    1.7988    0.0683   -1.0369 C   0  0  0  0  0  0  0  0  0  0  0  0
    2.6039    0.3601    0.0452 C   0  0  0  0  0  0  0  0  0  0  0  0
    2.1325    0.6094    1.3183 C   0  0  0  0  0  0  0  0  0  0  0  0
    3.1422    0.9778    2.6866 Cl  0  0  0  0  0  0  0  0  0  0  0  0
    0.7480    0.5520    1.4749 C   0  0  0  0  0  0  0  0  0  0  0  0
   -0.1161    0.2647    0.4310 C   0  0  0  0  0  0  0  0  0  0  0  0
   -1.5278    0.2101    0.6080 N   0  0  0  0  0  0  0  0  0  0  0  0
    4.3444    0.4254   -0.1825 S   0  0  0  0  0  0  0  0  0  0  0  0
    5.1553   -0.7257    0.8087 N   0  0  0  0  0  0  0  0  0  0  0  0
    4.8457    1.8067    0.1457 O   0  0  0  0  0  0  0  0  0  0  0  0
    4.7133    0.1472   -1.6109 O   0  0  0  0  0  0  0  0  0  0  0  0
   -5.2792   -0.8960    0.5394 H   0  0  0  0  0  0  0  0  0  0  0  0
   -3.5587   -1.3563    0.9243 H   0  0  0  0  0  0  0  0  0  0  0  0
   -4.2562   -1.6691   -0.7571 H   0  0  0  0  0  0  0  0  0  0  0  0
   -4.3380    0.6028   -1.2293 H   0  0  0  0  0  0  0  0  0  0  0  0
   -4.0925    1.1392    0.4832 H   0  0  0  0  0  0  0  0  0  0  0  0
   -2.1843    1.6142   -0.7568 H   0  0  0  0  0  0  0  0  0  0  0  0
   -2.4359   -0.9621   -2.3051 H   0  0  0  0  0  0  0  0  0  0  0  0
    2.2036   -0.1195   -2.0112 H   0  0  0  0  0  0  0  0  0  0  0  0
    0.3552    0.7445    2.4669 H   0  0  0  0  0  0  0  0  0  0  0  0
   -1.8399   -0.0688    1.5844 H   0  0  0  0  0  0  0  0  0  0  0  0
    5.4904   -1.5397    0.2275 H   0  0  0  0  0  0  0  0  0  0  0  0
    4.4476   -1.0689    1.5130 H   0  0  0  0  0  0  0  0  0  0  0  0
  1  2  1  0
  2  3  1  0
  3  4  1  0
  4  5  1  0
  5  6  2  0
  5  7  1  0
  7  8  2  0
  8  9  1  0
  9 10  2  0
 10 11  1  0
 10 12  1  0
 12 13  2  0
 13 14  1  0
  9 15  1  0
 15 16  1  0
 15 17  2  0
 15 18  2  0
 14  3  1  0
 13  7  1  0
  1 19  1  0
  1 20  1  0
  1 21  1  0
  2 22  1  0
  2 23  1  0
  3 24  1  0
  4 25  1  0
  8 26  1  0
 12 27  1  0
 14 28  1  0
 16 29  1  0
 16 30  1  0
M  END
$$$$
