
     RDKit          3D

 77 81  0  0  0  0  0  0  0  0999 V2000
  -11.3158    0.3141   -1.9594 C   0  0  0  0  0  0  0  0  0  0  0  0
  -10.3227   -0.6621   -1.4114 C   0  0  0  0  0  0  0  0  0  0  0  0
   -9.2260    0.0717   -0.8154 N   0  0  0  0  0  0  0  0  0  0  0  0
   -8.4159    0.7815   -1.7525 C   0  0  0  0  0  0  0  0  0  0  0  0
   -7.1368    1.2152   -1.0563 C   0  0  0  0  0  0  0  0  0  0  0  0
   -7.3841    1.4240    0.3322 N   0  0  0  0  0  0  0  0  0  0  0  0
   -7.0629    0.2489    1.0964 C   0  0  0  0  0  0  0  0  0  0  0  0
   -5.5920   -0.0093    1.0333 C   0  0  0  0  0  0  0  0  0  0  0  0
   -4.7311    0.9426    0.5510 C   0  0  0  0  0  0  0  0  0  0  0  0
   -3.3819    0.7491    0.4945 C   0  0  0  0  0  0  0  0  0  0  0  0
   -2.8033   -0.4474    0.9325 C   0  0  0  0  0  0  0  0  0  0  0  0
   -1.4003   -0.5540    0.8439 N   0  0  0  0  0  0  0  0  0  0  0  0
   -0.6090   -1.6555    1.2182 C   0  0  0  0  0  0  0  0  0  0  0  0
   -1.2428   -2.6777    1.6918 O   0  0  0  0  0  0  0  0  0  0  0  0
    0.8677   -1.7606    1.1253 C   0  0  0  0  0  0  0  0  0  0  0  0
    1.4662   -0.5935    0.5975 N   0  0  0  0  0  0  0  0  0  0  0  0
    2.8922   -0.4622    0.4399 C   0  0  0  0  0  0  0  0  0  0  0  0
    3.7702   -1.4647    0.7958 C   0  0  0  0  0  0  0  0  0  0  0  0
    5.1257   -1.2902    0.6261 C   0  0  0  0  0  0  0  0  0  0  0  0
    5.6706   -0.1349    0.1048 C   0  0  0  0  0  0  0  0  0  0  0  0
    7.1169   -0.0340   -0.0394 C   0  0  0  0  0  0  0  0  0  0  0  0
    7.9348   -1.1092   -0.3023 C   0  0  0  0  0  0  0  0  0  0  0  0
    9.3065   -0.9908   -0.4354 C   0  0  0  0  0  0  0  0  0  0  0  0
    9.8534    0.2655   -0.2949 C   0  0  0  0  0  0  0  0  0  0  0  0
   11.2719    0.4853   -0.4129 N   0  0  0  0  0  0  0  0  0  0  0  0
   11.9155    0.7695   -1.6338 C   0  0  0  0  0  0  0  0  0  0  0  0
   11.2056    0.8312   -2.6639 O   0  0  0  0  0  0  0  0  0  0  0  0
   13.3747    0.9976   -1.7618 C   0  0  0  0  0  0  0  0  0  0  0  0
   14.2375    0.0528   -0.9572 C   0  0  0  0  0  0  0  0  0  0  0  0
   14.1430    1.5558   -0.6183 C   0  0  0  0  0  0  0  0  0  0  0  0
    9.0446    1.3281   -0.0351 N   0  0  0  0  0  0  0  0  0  0  0  0
    7.7054    1.2031    0.0935 C   0  0  0  0  0  0  0  0  0  0  0  0
    4.7945    0.8712   -0.2530 C   0  0  0  0  0  0  0  0  0  0  0  0
    3.4204    0.6929   -0.0808 C   0  0  0  0  0  0  0  0  0  0  0  0
   -3.6558   -1.3982    1.4131 C   0  0  0  0  0  0  0  0  0  0  0  0
   -5.0342   -1.1822    1.4630 C   0  0  0  0  0  0  0  0  0  0  0  0
   -5.9204   -2.2518    1.9952 C   0  0  0  0  0  0  0  0  0  0  0  0
   -6.6374   -1.7940    3.1059 F   0  0  0  0  0  0  0  0  0  0  0  0
   -5.1317   -3.3280    2.4222 F   0  0  0  0  0  0  0  0  0  0  0  0
   -6.7612   -2.7625    1.0362 F   0  0  0  0  0  0  0  0  0  0  0  0
   -8.6809    1.9670    0.5553 C   0  0  0  0  0  0  0  0  0  0  0  0
   -9.7511    0.9894    0.1856 C   0  0  0  0  0  0  0  0  0  0  0  0
  -11.8580   -0.1952   -2.7935 H   0  0  0  0  0  0  0  0  0  0  0  0
  -12.1032    0.4954   -1.1728 H   0  0  0  0  0  0  0  0  0  0  0  0
  -10.8648    1.2557   -2.2803 H   0  0  0  0  0  0  0  0  0  0  0  0
  -10.7936   -1.2991   -0.6487 H   0  0  0  0  0  0  0  0  0  0  0  0
   -9.9151   -1.2906   -2.2265 H   0  0  0  0  0  0  0  0  0  0  0  0
   -8.1693    0.1057   -2.6141 H   0  0  0  0  0  0  0  0  0  0  0  0
   -8.8867    1.7264   -2.1262 H   0  0  0  0  0  0  0  0  0  0  0  0
   -6.3921    0.4101   -1.1895 H   0  0  0  0  0  0  0  0  0  0  0  0
   -6.7138    2.1137   -1.5624 H   0  0  0  0  0  0  0  0  0  0  0  0
   -7.5659   -0.6525    0.7089 H   0  0  0  0  0  0  0  0  0  0  0  0
   -7.2930    0.3730    2.1819 H   0  0  0  0  0  0  0  0  0  0  0  0
   -5.1381    1.9001    0.2011 H   0  0  0  0  0  0  0  0  0  0  0  0
   -2.7568    1.5601    0.0953 H   0  0  0  0  0  0  0  0  0  0  0  0
   -0.9029    0.2905    0.4537 H   0  0  0  0  0  0  0  0  0  0  0  0
    1.2698   -2.0540    2.1267 H   0  0  0  0  0  0  0  0  0  0  0  0
    1.0701   -2.6122    0.4016 H   0  0  0  0  0  0  0  0  0  0  0  0
    0.9227    0.2191    0.2973 H   0  0  0  0  0  0  0  0  0  0  0  0
    3.3334   -2.3759    1.2073 H   0  0  0  0  0  0  0  0  0  0  0  0
    5.8115   -2.0963    0.9142 H   0  0  0  0  0  0  0  0  0  0  0  0
    7.5010   -2.0977   -0.4127 H   0  0  0  0  0  0  0  0  0  0  0  0
    9.9462   -1.8425   -0.6430 H   0  0  0  0  0  0  0  0  0  0  0  0
   11.8593    0.4311    0.4505 H   0  0  0  0  0  0  0  0  0  0  0  0
   13.7100    1.2010   -2.8076 H   0  0  0  0  0  0  0  0  0  0  0  0
   15.1568   -0.3013   -1.4385 H   0  0  0  0  0  0  0  0  0  0  0  0
   13.7909   -0.6130   -0.2021 H   0  0  0  0  0  0  0  0  0  0  0  0
   13.5927    1.8452    0.2892 H   0  0  0  0  0  0  0  0  0  0  0  0
   15.0451    2.1562   -0.8940 H   0  0  0  0  0  0  0  0  0  0  0  0
    7.1295    2.1117    0.3038 H   0  0  0  0  0  0  0  0  0  0  0  0
    5.1985    1.7821   -0.6623 H   0  0  0  0  0  0  0  0  0  0  0  0
    2.7553    1.5117   -0.3757 H   0  0  0  0  0  0  0  0  0  0  0  0
   -3.3036   -2.3613    1.7776 H   0  0  0  0  0  0  0  0  0  0  0  0
   -8.7771    2.8702   -0.0861 H   0  0  0  0  0  0  0  0  0  0  0  0
   -8.8342    2.2855    1.6083 H   0  0  0  0  0  0  0  0  0  0  0  0
  -10.6567    1.5301   -0.1776 H   0  0  0  0  0  0  0  0  0  0  0  0
  -10.0875    0.4233    1.0895 H   0  0  0  0  0  0  0  0  0  0  0  0
  1  2  1  0
  2  3  1  0
  3  4  1  0
  4  5  1  0
  5  6  1  0
  6  7  1  0
  7  8  1  0
  8  9  2  0
  9 10  1  0
 10 11  2  0
 11 12  1  0
 12 13  1  0
 13 14  2  0
 13 15  1  0
 15 16  1  0
 16 17  1  0
 17 18  2  0
 18 19  1  0
 19 20  2  0
 20 21  1  0
 21 22  2  0
 22 23  1  0
 23 24  2  0
 24 25  1  0
 25 26  1  0
 26 27  2  0
 26 28  1  0
 28 29  1  0
 29 30  1  0
 24 31  1  0
 31 32  2  0
 20 33  1  0
 33 34  2  0
 11 35  1  0
 35 36  2  0
 36 37  1  0
 37 38  1  0
 37 39  1  0
 37 40  1  0
  6 41  1  0
 41 42  1  0
 42  3  1  0
 36  8  1  0
 34 17  1  0
 32 21  1  0
 30 28  1  0
  1 43  1  0
  1 44  1  0
  1 45  1  0
  2 46  1  0
  2 47  1  0
  4 48  1  0
  4 49  1  0
  5 50  1  0
  5 51  1  0
  7 52  1  0
  7 53  1  0
  9 54  1  0
 10 55  1  0
 12 56  1  0
 15 57  1  0
 15 58  1  0
 16 59  1  0
 18 60  1  0
 19 61  1  0
 22 62  1  0
 23 63  1  0
 25 64  1  0
 28 65  1  0
 29 66  1  0
 29 67  1  0
 30 68  1  0
 30 69  1  0
 32 70  1  0
 33 71  1  0
 34 72  1  0
 35 73  1  0
 41 74  1  0
 41 75  1  0
 42 76  1  0
 42 77  1  0
M  END
$$$$
