@<TRIPOS>MOLECULE
*****
 77 81 0 0 0
SMALL
GASTEIGER

@<TRIPOS>ATOM
      1 C         -11.3158    0.3141   -1.9594 C.3     1  UNL1       -0.0524
      2 C         -10.3227   -0.6621   -1.4114 C.3     1  UNL1       -0.0039
      3 N          -9.2260    0.0717   -0.8154 N.3     1  UNL1       -0.3002
      4 C          -8.4159    0.7815   -1.7525 C.3     1  UNL1        0.0117
      5 C          -7.1368    1.2152   -1.0563 C.3     1  UNL1        0.0120
      6 N          -7.3841    1.4240    0.3322 N.3     1  UNL1       -0.2957
      7 C          -7.0629    0.2489    1.0964 C.3     1  UNL1        0.0247
      8 C          -5.5920   -0.0093    1.0333 C.ar    1  UNL1       -0.0216
      9 C          -4.7311    0.9426    0.5510 C.ar    1  UNL1       -0.0551
     10 C          -3.3819    0.7491    0.4945 C.ar    1  UNL1       -0.0402
     11 C          -2.8033   -0.4474    0.9325 C.ar    1  UNL1        0.0340
     12 N          -1.4003   -0.5540    0.8439 N.am    1  UNL1       -0.2842
     13 C          -0.6090   -1.6555    1.2182 C.2     1  UNL1        0.2343
     14 O          -1.2428   -2.6777    1.6918 O.2     1  UNL1       -0.2738
     15 C           0.8677   -1.7606    1.1253 C.3     1  UNL1        0.0861
     16 N           1.4662   -0.5935    0.5975 N.pl3   1  UNL1       -0.3354
     17 C           2.8922   -0.4622    0.4399 C.ar    1  UNL1        0.0275
     18 C           3.7702   -1.4647    0.7958 C.ar    1  UNL1       -0.0403
     19 C           5.1257   -1.2902    0.6261 C.ar    1  UNL1       -0.0522
     20 C           5.6706   -0.1349    0.1048 C.ar    1  UNL1       -0.0163
     21 C           7.1169   -0.0340   -0.0394 C.ar    1  UNL1        0.0004
     22 C           7.9348   -1.1092   -0.3023 C.ar    1  UNL1       -0.0493
     23 C           9.3065   -0.9908   -0.4354 C.ar    1  UNL1       -0.0209
     24 C           9.8534    0.2655   -0.2949 C.ar    1  UNL1        0.1249
     25 N          11.2719    0.4853   -0.4129 N.am    1  UNL1       -0.2702
     26 C          11.9155    0.7695   -1.6338 C.2     1  UNL1        0.2213
     27 O          11.2056    0.8312   -2.6639 O.2     1  UNL1       -0.2751
     28 C          13.3747    0.9976   -1.7618 C.3     1  UNL1        0.0360
     29 C          14.2375    0.0528   -0.9572 C.3     1  UNL1       -0.0412
     30 C          14.1430    1.5558   -0.6183 C.3     1  UNL1       -0.0412
     31 N           9.0446    1.3281   -0.0351 N.ar    1  UNL1       -0.2395
     32 C           7.7054    1.2031    0.0935 C.ar    1  UNL1        0.0374
     33 C           4.7945    0.8712   -0.2530 C.ar    1  UNL1       -0.0522
     34 C           3.4204    0.6929   -0.0808 C.ar    1  UNL1       -0.0403
     35 C          -3.6558   -1.3982    1.4131 C.ar    1  UNL1       -0.0285
     36 C          -5.0342   -1.1822    1.4630 C.ar    1  UNL1        0.0609
     37 C          -5.9204   -2.2518    1.9952 C.3     1  UNL1        0.4178
     38 F          -6.6374   -1.7940    3.1059 F       1  UNL1       -0.1659
     39 F          -5.1317   -3.3280    2.4222 F       1  UNL1       -0.1659
     40 F          -6.7612   -2.7625    1.0362 F       1  UNL1       -0.1659
     41 C          -8.6809    1.9670    0.5553 C.3     1  UNL1        0.0120
     42 C          -9.7511    0.9894    0.1856 C.3     1  UNL1        0.0117
     43 H         -11.8580   -0.1952   -2.7935 H       1  UNL1        0.0242
     44 H         -12.1032    0.4954   -1.1728 H       1  UNL1        0.0242
     45 H         -10.8648    1.2557   -2.2803 H       1  UNL1        0.0242
     46 H         -10.7936   -1.2991   -0.6487 H       1  UNL1        0.0424
     47 H          -9.9151   -1.2906   -2.2265 H       1  UNL1        0.0424
     48 H          -8.1693    0.1057   -2.6141 H       1  UNL1        0.0439
     49 H          -8.8867    1.7264   -2.1262 H       1  UNL1        0.0439
     50 H          -6.3921    0.4101   -1.1895 H       1  UNL1        0.0439
     51 H          -6.7138    2.1137   -1.5624 H       1  UNL1        0.0439
     52 H          -7.5659   -0.6525    0.7089 H       1  UNL1        0.0476
     53 H          -7.2930    0.3730    2.1819 H       1  UNL1        0.0476
     54 H          -5.1381    1.9001    0.2011 H       1  UNL1        0.0621
     55 H          -2.7568    1.5601    0.0953 H       1  UNL1        0.0636
     56 H          -0.9029    0.2905    0.4537 H       1  UNL1        0.1549
     57 H           1.2698   -2.0540    2.1267 H       1  UNL1        0.0557
     58 H           1.0701   -2.6122    0.4016 H       1  UNL1        0.0557
     59 H           0.9227    0.2191    0.2973 H       1  UNL1        0.1466
     60 H           3.3334   -2.3759    1.2073 H       1  UNL1        0.0636
     61 H           5.8115   -2.0963    0.9142 H       1  UNL1        0.0624
     62 H           7.5010   -2.0977   -0.4127 H       1  UNL1        0.0625
     63 H           9.9462   -1.8425   -0.6430 H       1  UNL1        0.0652
     64 H          11.8593    0.4311    0.4505 H       1  UNL1        0.1562
     65 H          13.7100    1.2010   -2.8076 H       1  UNL1        0.0394
     66 H          15.1568   -0.3013   -1.4385 H       1  UNL1        0.0273
     67 H          13.7909   -0.6130   -0.2021 H       1  UNL1        0.0273
     68 H          13.5927    1.8452    0.2892 H       1  UNL1        0.0273
     69 H          15.0451    2.1562   -0.8940 H       1  UNL1        0.0273
     70 H           7.1295    2.1117    0.3038 H       1  UNL1        0.0836
     71 H           5.1985    1.7821   -0.6623 H       1  UNL1        0.0624
     72 H           2.7553    1.5117   -0.3757 H       1  UNL1        0.0636
     73 H          -3.3036   -2.3613    1.7776 H       1  UNL1        0.0642
     74 H          -8.7771    2.8702   -0.0861 H       1  UNL1        0.0439
     75 H          -8.8342    2.2855    1.6083 H       1  UNL1        0.0439
     76 H         -10.6567    1.5301   -0.1776 H       1  UNL1        0.0439
     77 H         -10.0875    0.4233    1.0895 H       1  UNL1        0.0439
@<TRIPOS>BOND
     1     1     2    1
     2     2     3    1
     3     3     4    1
     4     4     5    1
     5     5     6    1
     6     6     7    1
     7     7     8    1
     8     8     9   ar
     9     9    10   ar
    10    10    11   ar
    11    11    12    1
    12    12    13   am
    13    13    14    2
    14    13    15    1
    15    15    16    1
    16    16    17    1
    17    17    18   ar
    18    18    19   ar
    19    19    20   ar
    20    20    21    1
    21    21    22   ar
    22    22    23   ar
    23    23    24   ar
    24    24    25    1
    25    25    26   am
    26    26    27    2
    27    26    28    1
    28    28    29    1
    29    29    30    1
    30    24    31   ar
    31    31    32   ar
    32    20    33   ar
    33    33    34   ar
    34    11    35   ar
    35    35    36   ar
    36    36    37    1
    37    37    38    1
    38    37    39    1
    39    37    40    1
    40     6    41    1
    41    41    42    1
    42    42     3    1
    43    36     8   ar
    44    34    17   ar
    45    32    21   ar
    46    30    28    1
    47     1    43    1
    48     1    44    1
    49     1    45    1
    50     2    46    1
    51     2    47    1
    52     4    48    1
    53     4    49    1
    54     5    50    1
    55     5    51    1
    56     7    52    1
    57     7    53    1
    58     9    54    1
    59    10    55    1
    60    12    56    1
    61    15    57    1
    62    15    58    1
    63    16    59    1
    64    18    60    1
    65    19    61    1
    66    22    62    1
    67    23    63    1
    68    25    64    1
    69    28    65    1
    70    29    66    1
    71    29    67    1
    72    30    68    1
    73    30    69    1
    74    32    70    1
    75    33    71    1
    76    34    72    1
    77    35    73    1
    78    41    74    1
    79    41    75    1
    80    42    76    1
    81    42    77    1
