
     RDKit          3D

 68 71  0  0  0  0  0  0  0  0999 V2000
   -8.4603   -0.5204    0.7897 C   0  0  0  0  0  0  0  0  0  0  0  0
   -7.8715    0.5287    1.4613 C   0  0  0  0  0  0  0  0  0  0  0  0
   -6.7934    1.2207    0.9483 C   0  0  0  0  0  0  0  0  0  0  0  0
   -6.2600    0.8678   -0.2919 C   0  0  0  0  0  0  0  0  0  0  0  0
   -5.1103    1.6399   -0.7830 C   0  0  0  0  0  0  0  0  0  0  0  0
   -3.7922    1.0433   -0.3367 C   0  0  0  0  0  0  0  0  0  0  0  0
   -3.6753   -0.3328   -0.8931 C   0  0  0  0  0  0  0  0  0  0  0  0
   -2.4609   -1.0247   -0.5197 N   0  0  0  0  0  0  0  0  0  0  0  0
   -2.4120   -1.3814    0.8540 C   0  0  0  0  0  0  0  0  0  0  0  0
   -1.5250   -0.5751    1.7310 C   0  0  0  0  0  0  0  0  0  0  0  0
   -0.0973   -1.0778    1.7464 C   0  0  0  0  0  0  0  0  0  0  0  0
    0.6093   -0.7074    0.5389 N   0  0  0  0  0  0  0  0  0  0  0  0
    0.9647    0.6887    0.5271 C   0  0  0  0  0  0  0  0  0  0  0  0
    1.7023    1.0955   -0.7015 C   0  0  0  0  0  0  0  0  0  0  0  0
    2.8912    0.4678   -0.9397 O   0  0  0  0  0  0  0  0  0  0  0  0
    3.8276    0.6272    0.0710 C   0  0  0  0  0  0  0  0  0  0  0  0
    5.0619    1.3218   -0.4499 C   0  0  0  0  0  0  0  0  0  0  0  0
    6.3129    0.8547   -0.1163 C   0  0  0  0  0  0  0  0  0  0  0  0
    7.4779    1.4392   -0.5501 C   0  0  0  0  0  0  0  0  0  0  0  0
    7.3667    2.5525   -1.3630 C   0  0  0  0  0  0  0  0  0  0  0  0
    6.1122    3.0303   -1.7047 C   0  0  0  0  0  0  0  0  0  0  0  0
    4.9429    2.4286   -1.2580 C   0  0  0  0  0  0  0  0  0  0  0  0
    4.2156   -0.7266    0.5351 C   0  0  0  0  0  0  0  0  0  0  0  0
    4.2790   -1.0658    1.8648 C   0  0  0  0  0  0  0  0  0  0  0  0
    4.6517   -2.3390    2.2288 C   0  0  0  0  0  0  0  0  0  0  0  0
    4.9721   -3.3095    1.2808 C   0  0  0  0  0  0  0  0  0  0  0  0
    4.9102   -2.9729   -0.0499 C   0  0  0  0  0  0  0  0  0  0  0  0
    4.5369   -1.6995   -0.4158 C   0  0  0  0  0  0  0  0  0  0  0  0
   -0.0775   -1.1492   -0.6504 C   0  0  0  0  0  0  0  0  0  0  0  0
   -1.2799   -0.3598   -1.0225 C   0  0  0  0  0  0  0  0  0  0  0  0
   -6.8405   -0.1734   -0.9637 C   0  0  0  0  0  0  0  0  0  0  0  0
   -7.9324   -0.8705   -0.4378 C   0  0  0  0  0  0  0  0  0  0  0  0
   -9.3011   -1.0333    1.2313 H   0  0  0  0  0  0  0  0  0  0  0  0
   -8.2668    0.8221    2.4230 H   0  0  0  0  0  0  0  0  0  0  0  0
   -6.3317    2.0509    1.4912 H   0  0  0  0  0  0  0  0  0  0  0  0
   -5.1291    1.5962   -1.9093 H   0  0  0  0  0  0  0  0  0  0  0  0
   -5.1462    2.7215   -0.4597 H   0  0  0  0  0  0  0  0  0  0  0  0
   -3.0135    1.6899   -0.7965 H   0  0  0  0  0  0  0  0  0  0  0  0
   -3.7416    1.0199    0.7575 H   0  0  0  0  0  0  0  0  0  0  0  0
   -4.5207   -0.9842   -0.5945 H   0  0  0  0  0  0  0  0  0  0  0  0
   -3.6818   -0.2759   -1.9981 H   0  0  0  0  0  0  0  0  0  0  0  0
   -3.4641   -1.3512    1.2471 H   0  0  0  0  0  0  0  0  0  0  0  0
   -2.1128   -2.4638    0.9908 H   0  0  0  0  0  0  0  0  0  0  0  0
   -1.5342    0.4980    1.5662 H   0  0  0  0  0  0  0  0  0  0  0  0
   -1.8901   -0.7306    2.7892 H   0  0  0  0  0  0  0  0  0  0  0  0
   -0.0840   -2.1646    1.9359 H   0  0  0  0  0  0  0  0  0  0  0  0
    0.4119   -0.5852    2.5944 H   0  0  0  0  0  0  0  0  0  0  0  0
    1.5515    0.8802    1.4669 H   0  0  0  0  0  0  0  0  0  0  0  0
    0.0785    1.3619    0.6222 H   0  0  0  0  0  0  0  0  0  0  0  0
    1.7778    2.2065   -0.7450 H   0  0  0  0  0  0  0  0  0  0  0  0
    1.0253    0.8362   -1.5708 H   0  0  0  0  0  0  0  0  0  0  0  0
    3.4842    1.2072    0.9265 H   0  0  0  0  0  0  0  0  0  0  0  0
    6.4037   -0.0266    0.5274 H   0  0  0  0  0  0  0  0  0  0  0  0
    8.4273    1.0303   -0.2576 H   0  0  0  0  0  0  0  0  0  0  0  0
    8.2914    2.9959   -1.6939 H   0  0  0  0  0  0  0  0  0  0  0  0
    6.0538    3.8889   -2.3327 H   0  0  0  0  0  0  0  0  0  0  0  0
    3.9922    2.8453   -1.5571 H   0  0  0  0  0  0  0  0  0  0  0  0
    4.0244   -0.2931    2.5869 H   0  0  0  0  0  0  0  0  0  0  0  0
    4.7000   -2.6086    3.2857 H   0  0  0  0  0  0  0  0  0  0  0  0
    5.2559   -4.2868    1.6472 H   0  0  0  0  0  0  0  0  0  0  0  0
    5.1559   -3.7160   -0.7858 H   0  0  0  0  0  0  0  0  0  0  0  0
    4.4780   -1.3951   -1.4575 H   0  0  0  0  0  0  0  0  0  0  0  0
   -0.3296   -2.2320   -0.4620 H   0  0  0  0  0  0  0  0  0  0  0  0
    0.6735   -1.1701   -1.4781 H   0  0  0  0  0  0  0  0  0  0  0  0
   -1.3729   -0.3768   -2.1339 H   0  0  0  0  0  0  0  0  0  0  0  0
   -1.2662    0.6842   -0.7227 H   0  0  0  0  0  0  0  0  0  0  0  0
   -6.4515   -0.4684   -1.9237 H   0  0  0  0  0  0  0  0  0  0  0  0
   -8.3939   -1.6937   -0.9641 H   0  0  0  0  0  0  0  0  0  0  0  0
  1  2  2  0
  2  3  1  0
  3  4  2  0
  4  5  1  0
  5  6  1  0
  6  7  1  0
  7  8  1  0
  8  9  1  0
  9 10  1  0
 10 11  1  0
 11 12  1  0
 12 13  1  0
 13 14  1  0
 14 15  1  0
 15 16  1  0
 16 17  1  0
 17 18  2  0
 18 19  1  0
 19 20  2  0
 20 21  1  0
 21 22  2  0
 16 23  1  0
 23 24  2  0
 24 25  1  0
 25 26  2  0
 26 27  1  0
 27 28  2  0
 12 29  1  0
 29 30  1  0
  4 31  1  0
 31 32  2  0
 32  1  1  0
 30  8  1  0
 22 17  1  0
 28 23  1  0
  1 33  1  0
  2 34  1  0
  3 35  1  0
  5 36  1  0
  5 37  1  0
  6 38  1  0
  6 39  1  0
  7 40  1  0
  7 41  1  0
  9 42  1  0
  9 43  1  0
 10 44  1  0
 10 45  1  0
 11 46  1  0
 11 47  1  0
 13 48  1  0
 13 49  1  0
 14 50  1  0
 14 51  1  0
 16 52  1  0
 18 53  1  0
 19 54  1  0
 20 55  1  0
 21 56  1  0
 22 57  1  0
 24 58  1  0
 25 59  1  0
 26 60  1  0
 27 61  1  0
 28 62  1  0
 29 63  1  0
 29 64  1  0
 30 65  1  0
 30 66  1  0
 31 67  1  0
 32 68  1  0
M  END
$$$$
