@<TRIPOS>MOLECULE
*****
 68 71 0 0 0
SMALL
GASTEIGER

@<TRIPOS>ATOM
      1 C          -8.4603   -0.5204    0.7897 C.ar    1  UNL1       -0.0617
      2 C          -7.8715    0.5287    1.4613 C.ar    1  UNL1       -0.0615
      3 C          -6.7934    1.2207    0.9483 C.ar    1  UNL1       -0.0586
      4 C          -6.2600    0.8678   -0.2919 C.ar    1  UNL1       -0.0473
      5 C          -5.1103    1.6399   -0.7830 C.3     1  UNL1       -0.0265
      6 C          -3.7922    1.0433   -0.3367 C.3     1  UNL1       -0.0362
      7 C          -3.6753   -0.3328   -0.8931 C.3     1  UNL1       -0.0008
      8 N          -2.4609   -1.0247   -0.5197 N.3     1  UNL1       -0.3011
      9 C          -2.4120   -1.3814    0.8540 C.3     1  UNL1        0.0001
     10 C          -1.5250   -0.5751    1.7310 C.3     1  UNL1       -0.0274
     11 C          -0.0973   -1.0778    1.7464 C.3     1  UNL1        0.0002
     12 N           0.6093   -0.7074    0.5389 N.3     1  UNL1       -0.2989
     13 C           0.9647    0.6887    0.5271 C.3     1  UNL1        0.0224
     14 C           1.7023    1.0955   -0.7015 C.3     1  UNL1        0.0616
     15 O           2.8912    0.4678   -0.9397 O.3     1  UNL1       -0.3661
     16 C           3.8276    0.6272    0.0710 C.3     1  UNL1        0.1087
     17 C           5.0619    1.3218   -0.4499 C.ar    1  UNL1       -0.0145
     18 C           6.3129    0.8547   -0.1163 C.ar    1  UNL1       -0.0558
     19 C           7.4779    1.4392   -0.5501 C.ar    1  UNL1       -0.0614
     20 C           7.3667    2.5525   -1.3630 C.ar    1  UNL1       -0.0617
     21 C           6.1122    3.0303   -1.7047 C.ar    1  UNL1       -0.0614
     22 C           4.9429    2.4286   -1.2580 C.ar    1  UNL1       -0.0558
     23 C           4.2156   -0.7266    0.5351 C.ar    1  UNL1       -0.0145
     24 C           4.2790   -1.0658    1.8648 C.ar    1  UNL1       -0.0558
     25 C           4.6517   -2.3390    2.2288 C.ar    1  UNL1       -0.0614
     26 C           4.9721   -3.3095    1.2808 C.ar    1  UNL1       -0.0617
     27 C           4.9102   -2.9729   -0.0499 C.ar    1  UNL1       -0.0614
     28 C           4.5369   -1.6995   -0.4158 C.ar    1  UNL1       -0.0558
     29 C          -0.0775   -1.1492   -0.6504 C.3     1  UNL1        0.0117
     30 C          -1.2799   -0.3598   -1.0225 C.3     1  UNL1        0.0117
     31 C          -6.8405   -0.1734   -0.9637 C.ar    1  UNL1       -0.0586
     32 C          -7.9324   -0.8705   -0.4378 C.ar    1  UNL1       -0.0615
     33 H          -9.3011   -1.0333    1.2313 H       1  UNL1        0.0618
     34 H          -8.2668    0.8221    2.4230 H       1  UNL1        0.0618
     35 H          -6.3317    2.0509    1.4912 H       1  UNL1        0.0620
     36 H          -5.1291    1.5962   -1.9093 H       1  UNL1        0.0314
     37 H          -5.1462    2.7215   -0.4597 H       1  UNL1        0.0314
     38 H          -3.0135    1.6899   -0.7965 H       1  UNL1        0.0281
     39 H          -3.7416    1.0199    0.7575 H       1  UNL1        0.0281
     40 H          -4.5207   -0.9842   -0.5945 H       1  UNL1        0.0427
     41 H          -3.6818   -0.2759   -1.9981 H       1  UNL1        0.0427
     42 H          -3.4641   -1.3512    1.2471 H       1  UNL1        0.0427
     43 H          -2.1128   -2.4638    0.9908 H       1  UNL1        0.0427
     44 H          -1.5342    0.4980    1.5662 H       1  UNL1        0.0290
     45 H          -1.8901   -0.7306    2.7892 H       1  UNL1        0.0290
     46 H          -0.0840   -2.1646    1.9359 H       1  UNL1        0.0427
     47 H           0.4119   -0.5852    2.5944 H       1  UNL1        0.0427
     48 H           1.5515    0.8802    1.4669 H       1  UNL1        0.0449
     49 H           0.0785    1.3619    0.6222 H       1  UNL1        0.0449
     50 H           1.7778    2.2065   -0.7450 H       1  UNL1        0.0573
     51 H           1.0253    0.8362   -1.5708 H       1  UNL1        0.0573
     52 H           3.4842    1.2072    0.9265 H       1  UNL1        0.0697
     53 H           6.4037   -0.0266    0.5274 H       1  UNL1        0.0621
     54 H           8.4273    1.0303   -0.2576 H       1  UNL1        0.0618
     55 H           8.2914    2.9959   -1.6939 H       1  UNL1        0.0618
     56 H           6.0538    3.8889   -2.3327 H       1  UNL1        0.0618
     57 H           3.9922    2.8453   -1.5571 H       1  UNL1        0.0621
     58 H           4.0244   -0.2931    2.5869 H       1  UNL1        0.0621
     59 H           4.7000   -2.6086    3.2857 H       1  UNL1        0.0618
     60 H           5.2559   -4.2868    1.6472 H       1  UNL1        0.0618
     61 H           5.1559   -3.7160   -0.7858 H       1  UNL1        0.0618
     62 H           4.4780   -1.3951   -1.4575 H       1  UNL1        0.0621
     63 H          -0.3296   -2.2320   -0.4620 H       1  UNL1        0.0439
     64 H           0.6735   -1.1701   -1.4781 H       1  UNL1        0.0439
     65 H          -1.3729   -0.3768   -2.1339 H       1  UNL1        0.0439
     66 H          -1.2662    0.6842   -0.7227 H       1  UNL1        0.0439
     67 H          -6.4515   -0.4684   -1.9237 H       1  UNL1        0.0620
     68 H          -8.3939   -1.6937   -0.9641 H       1  UNL1        0.0618
@<TRIPOS>BOND
     1     1     2   ar
     2     2     3   ar
     3     3     4   ar
     4     4     5    1
     5     5     6    1
     6     6     7    1
     7     7     8    1
     8     8     9    1
     9     9    10    1
    10    10    11    1
    11    11    12    1
    12    12    13    1
    13    13    14    1
    14    14    15    1
    15    15    16    1
    16    16    17    1
    17    17    18   ar
    18    18    19   ar
    19    19    20   ar
    20    20    21   ar
    21    21    22   ar
    22    16    23    1
    23    23    24   ar
    24    24    25   ar
    25    25    26   ar
    26    26    27   ar
    27    27    28   ar
    28    12    29    1
    29    29    30    1
    30     4    31   ar
    31    31    32   ar
    32    32     1   ar
    33    30     8    1
    34    22    17   ar
    35    28    23   ar
    36     1    33    1
    37     2    34    1
    38     3    35    1
    39     5    36    1
    40     5    37    1
    41     6    38    1
    42     6    39    1
    43     7    40    1
    44     7    41    1
    45     9    42    1
    46     9    43    1
    47    10    44    1
    48    10    45    1
    49    11    46    1
    50    11    47    1
    51    13    48    1
    52    13    49    1
    53    14    50    1
    54    14    51    1
    55    16    52    1
    56    18    53    1
    57    19    54    1
    58    20    55    1
    59    21    56    1
    60    22    57    1
    61    24    58    1
    62    25    59    1
    63    26    60    1
    64    27    61    1
    65    28    62    1
    66    29    63    1
    67    29    64    1
    68    30    65    1
    69    30    66    1
    70    31    67    1
    71    32    68    1
