
     RDKit          3D

 49 51  0  0  0  0  0  0  0  0999 V2000
    7.2427   -2.2617   -2.6009 C   0  0  0  0  0  0  0  0  0  0  0  0
    7.1573   -1.1674   -1.8911 C   0  0  0  0  0  0  0  0  0  0  0  0
    5.8690   -0.7444   -1.3747 C   0  0  0  0  0  0  0  0  0  0  0  0
    4.8538   -1.4315   -1.6143 O   0  0  0  0  0  0  0  0  0  0  0  0
    5.6919    0.4310   -0.5959 N   0  0  0  0  0  0  0  0  0  0  0  0
    4.4446    0.8587   -0.0845 C   0  0  0  0  0  0  0  0  0  0  0  0
    3.6172    1.6937   -0.7935 C   0  0  0  0  0  0  0  0  0  0  0  0
    2.3921    2.0954   -0.2561 C   0  0  0  0  0  0  0  0  0  0  0  0
    2.0084    1.6543    0.9907 C   0  0  0  0  0  0  0  0  0  0  0  0
    0.4627    2.1655    1.6604 S   0  0  0  0  0  6  0  0  0  0  0  0
    0.1897    3.5321    1.1012 O   0  0  0  0  0  0  0  0  0  0  0  0
    0.6027    2.2705    3.1526 O   0  0  0  0  0  0  0  0  0  0  0  0
   -0.7152    1.0542    1.1984 N   0  0  0  0  0  0  0  0  0  0  0  0
   -0.9764    0.8781   -0.1571 C   0  0  0  0  0  0  0  0  0  0  0  0
   -1.5264   -0.5234   -0.3921 C   0  0  0  0  0  0  0  0  0  0  0  0
   -2.7626   -0.5519    0.4342 N   0  0  0  0  0  0  0  0  0  0  0  0
   -3.9820   -0.5678   -0.2598 C   0  0  0  0  0  0  0  0  0  0  0  0
   -3.9740   -0.2639   -1.6105 N   0  0  0  0  0  0  0  0  0  0  0  0
   -5.0352   -0.2117   -2.3824 C   0  0  0  0  0  0  0  0  0  0  0  0
   -6.2695   -0.4800   -1.8141 C   0  0  0  0  0  0  0  0  0  0  0  0
   -6.3299   -0.7874   -0.4769 C   0  0  0  0  0  0  0  0  0  0  0  0
   -5.1717   -0.8353    0.3232 C   0  0  0  0  0  0  0  0  0  0  0  0
   -5.3470   -1.1933    1.7318 C   0  0  0  0  0  0  0  0  0  0  0  0
   -2.4973   -0.5246    1.8278 C   0  0  0  0  0  0  0  0  0  0  0  0
   -1.1370    0.1062    2.1323 C   0  0  0  0  0  0  0  0  0  0  0  0
    2.8346    0.8155    1.7084 C   0  0  0  0  0  0  0  0  0  0  0  0
    4.0467    0.4277    1.1582 C   0  0  0  0  0  0  0  0  0  0  0  0
    6.3666   -2.8474   -2.8031 H   0  0  0  0  0  0  0  0  0  0  0  0
    8.1915   -2.5774   -2.9839 H   0  0  0  0  0  0  0  0  0  0  0  0
    8.0449   -0.5823   -1.6916 H   0  0  0  0  0  0  0  0  0  0  0  0
    6.5515    0.9934   -0.4054 H   0  0  0  0  0  0  0  0  0  0  0  0
    3.9236    2.0373   -1.7727 H   0  0  0  0  0  0  0  0  0  0  0  0
    1.7540    2.7489   -0.8213 H   0  0  0  0  0  0  0  0  0  0  0  0
   -1.7441    1.5728   -0.5955 H   0  0  0  0  0  0  0  0  0  0  0  0
   -0.0584    1.0131   -0.7994 H   0  0  0  0  0  0  0  0  0  0  0  0
   -0.7902   -1.2175    0.0592 H   0  0  0  0  0  0  0  0  0  0  0  0
   -1.7428   -0.7318   -1.4381 H   0  0  0  0  0  0  0  0  0  0  0  0
   -5.0030    0.0265   -3.4282 H   0  0  0  0  0  0  0  0  0  0  0  0
   -7.1844   -0.4556   -2.3860 H   0  0  0  0  0  0  0  0  0  0  0  0
   -7.3036   -0.9997   -0.0226 H   0  0  0  0  0  0  0  0  0  0  0  0
   -4.6573   -1.9111    2.1562 H   0  0  0  0  0  0  0  0  0  0  0  0
   -5.5620   -0.2856    2.3446 H   0  0  0  0  0  0  0  0  0  0  0  0
   -6.3580   -1.7458    1.8020 H   0  0  0  0  0  0  0  0  0  0  0  0
   -2.4033   -1.5708    2.1920 H   0  0  0  0  0  0  0  0  0  0  0  0
   -3.2842   -0.0335    2.4149 H   0  0  0  0  0  0  0  0  0  0  0  0
   -1.2423    0.5664    3.1354 H   0  0  0  0  0  0  0  0  0  0  0  0
   -0.3702   -0.6884    2.2274 H   0  0  0  0  0  0  0  0  0  0  0  0
    2.5146    0.4830    2.6808 H   0  0  0  0  0  0  0  0  0  0  0  0
    4.6678   -0.2333    1.7556 H   0  0  0  0  0  0  0  0  0  0  0  0
  1  2  2  3
  2  3  1  0
  3  4  2  0
  3  5  1  0
  5  6  1  0
  6  7  2  0
  7  8  1  0
  8  9  2  0
  9 10  1  0
 10 11  2  0
 10 12  2  0
 10 13  1  0
 13 14  1  0
 14 15  1  0
 15 16  1  0
 16 17  1  0
 17 18  2  0
 18 19  1  0
 19 20  2  0
 20 21  1  0
 21 22  2  0
 22 23  1  0
 16 24  1  0
 24 25  1  0
  9 26  1  0
 26 27  2  0
 27  6  1  0
 25 13  1  0
 22 17  1  0
  1 28  1  0
  1 29  1  0
  2 30  1  0
  5 31  1  0
  7 32  1  0
  8 33  1  0
 14 34  1  0
 14 35  1  0
 15 36  1  0
 15 37  1  0
 19 38  1  0
 20 39  1  0
 21 40  1  0
 23 41  1  0
 23 42  1  0
 23 43  1  0
 24 44  1  0
 24 45  1  0
 25 46  1  0
 25 47  1  0
 26 48  1  0
 27 49  1  0
M  END
$$$$
