@<TRIPOS>MOLECULE
*****
 49 51 0 0 0
SMALL
GASTEIGER

@<TRIPOS>ATOM
      1 C           7.2427   -2.2617   -2.6009 C.2     1  UNL1       -0.0938
      2 C           7.1573   -1.1674   -1.8911 C.2     1  UNL1       -0.0066
      3 C           5.8690   -0.7444   -1.3747 C.2     1  UNL1        0.2405
      4 O           4.8538   -1.4315   -1.6143 O.2     1  UNL1       -0.2705
      5 N           5.6919    0.4310   -0.5959 N.am    1  UNL1       -0.2820
      6 C           4.4446    0.8587   -0.0845 C.ar    1  UNL1        0.0338
      7 C           3.6172    1.6937   -0.7935 C.ar    1  UNL1       -0.0386
      8 C           2.3921    2.0954   -0.2561 C.ar    1  UNL1       -0.0336
      9 C           2.0084    1.6543    0.9907 C.ar    1  UNL1        0.1056
     10 S           0.4627    2.1655    1.6604 S.O2    1  UNL1        0.0609
     11 O           0.1897    3.5321    1.1012 O.2     1  UNL1       -0.1528
     12 O           0.6027    2.2705    3.1526 O.2     1  UNL1       -0.1528
     13 N          -0.7152    1.0542    1.1984 N.3     1  UNL1       -0.1736
     14 C          -0.9764    0.8781   -0.1571 C.3     1  UNL1        0.0363
     15 C          -1.5264   -0.5234   -0.3921 C.3     1  UNL1        0.0280
     16 N          -2.7626   -0.5519    0.4342 N.pl3   1  UNL1       -0.3124
     17 C          -3.9820   -0.5678   -0.2598 C.ar    1  UNL1        0.1242
     18 N          -3.9740   -0.2639   -1.6105 N.ar    1  UNL1       -0.2400
     19 C          -5.0352   -0.2117   -2.3824 C.ar    1  UNL1        0.0297
     20 C          -6.2695   -0.4800   -1.8141 C.ar    1  UNL1       -0.0432
     21 C          -6.3299   -0.7874   -0.4769 C.ar    1  UNL1       -0.0542
     22 C          -5.1717   -0.8353    0.3232 C.ar    1  UNL1       -0.0105
     23 C          -5.3470   -1.1933    1.7318 C.3     1  UNL1       -0.0365
     24 C          -2.4973   -0.5246    1.8278 C.3     1  UNL1        0.0280
     25 C          -1.1370    0.1062    2.1323 C.3     1  UNL1        0.0363
     26 C           2.8346    0.8155    1.7084 C.ar    1  UNL1       -0.0336
     27 C           4.0467    0.4277    1.1582 C.ar    1  UNL1       -0.0386
     28 H           6.3666   -2.8474   -2.8031 H       1  UNL1        0.0536
     29 H           8.1915   -2.5774   -2.9839 H       1  UNL1        0.0536
     30 H           8.0449   -0.5823   -1.6916 H       1  UNL1        0.0663
     31 H           6.5515    0.9934   -0.4054 H       1  UNL1        0.1551
     32 H           3.9236    2.0373   -1.7727 H       1  UNL1        0.0637
     33 H           1.7540    2.7489   -0.8213 H       1  UNL1        0.0638
     34 H          -1.7441    1.5728   -0.5955 H       1  UNL1        0.0459
     35 H          -0.0584    1.0131   -0.7994 H       1  UNL1        0.0459
     36 H          -0.7902   -1.2175    0.0592 H       1  UNL1        0.0477
     37 H          -1.7428   -0.7318   -1.4381 H       1  UNL1        0.0477
     38 H          -5.0030    0.0265   -3.4282 H       1  UNL1        0.0830
     39 H          -7.1844   -0.4556   -2.3860 H       1  UNL1        0.0633
     40 H          -7.3036   -0.9997   -0.0226 H       1  UNL1        0.0622
     41 H          -4.6573   -1.9111    2.1562 H       1  UNL1        0.0279
     42 H          -5.5620   -0.2856    2.3446 H       1  UNL1        0.0279
     43 H          -6.3580   -1.7458    1.8020 H       1  UNL1        0.0279
     44 H          -2.4033   -1.5708    2.1920 H       1  UNL1        0.0477
     45 H          -3.2842   -0.0335    2.4149 H       1  UNL1        0.0477
     46 H          -1.2423    0.5664    3.1354 H       1  UNL1        0.0459
     47 H          -0.3702   -0.6884    2.2274 H       1  UNL1        0.0459
     48 H           2.5146    0.4830    2.6808 H       1  UNL1        0.0638
     49 H           4.6678   -0.2333    1.7556 H       1  UNL1        0.0637
@<TRIPOS>BOND
     1     1     2    2
     2     2     3    1
     3     3     4    2
     4     3     5   am
     5     5     6    1
     6     6     7   ar
     7     7     8   ar
     8     8     9   ar
     9     9    10    1
    10    10    11    2
    11    10    12    2
    12    10    13    1
    13    13    14    1
    14    14    15    1
    15    15    16    1
    16    16    17    1
    17    17    18   ar
    18    18    19   ar
    19    19    20   ar
    20    20    21   ar
    21    21    22   ar
    22    22    23    1
    23    16    24    1
    24    24    25    1
    25     9    26   ar
    26    26    27   ar
    27    27     6   ar
    28    25    13    1
    29    22    17   ar
    30     1    28    1
    31     1    29    1
    32     2    30    1
    33     5    31    1
    34     7    32    1
    35     8    33    1
    36    14    34    1
    37    14    35    1
    38    15    36    1
    39    15    37    1
    40    19    38    1
    41    20    39    1
    42    21    40    1
    43    23    41    1
    44    23    42    1
    45    23    43    1
    46    24    44    1
    47    24    45    1
    48    25    46    1
    49    25    47    1
    50    26    48    1
    51    27    49    1
