@<TRIPOS>MOLECULE
*****
 27 27 0 0 0
SMALL
GASTEIGER

@<TRIPOS>ATOM
      1 C           1.9226    0.2141   -0.5045 C.3     1  UNL1        0.1853
      2 O           3.0825    0.1125   -1.2948 O.3     1  UNL1       -0.3649
      3 O           0.9092    0.5857   -1.3586 O.3     1  UNL1       -0.3422
      4 C          -0.2983    0.8681   -0.7273 C.3     1  UNL1        0.0989
      5 C          -0.4455    2.3407   -0.4174 C.3     1  UNL1        0.0716
      6 O          -1.6601    2.6193    0.2168 O.3     1  UNL1       -0.3924
      7 C          -0.3753    0.0249    0.5402 C.3     1  UNL1        0.0619
      8 S          -1.9986   -0.0397    1.2688 S.3     1  UNL1       -0.1555
      9 C          -3.1761   -0.9093    0.2024 C.3     1  UNL1       -0.0177
     10 C           0.1743   -1.3259    0.1221 C.3     1  UNL1        0.1000
     11 O          -0.2372   -2.3568    0.9188 O.3     1  UNL1       -0.3879
     12 C           1.6962   -1.1464    0.1339 C.3     1  UNL1        0.1325
     13 O           2.3227   -2.1649   -0.5782 O.3     1  UNL1       -0.3842
     14 H           2.0633    0.9723    0.2964 H       1  UNL1        0.0935
     15 H           3.8434    0.5630   -0.8065 H       1  UNL1        0.2126
     16 H          -1.1308    0.5553   -1.3874 H       1  UNL1        0.0632
     17 H          -0.4385    2.8881   -1.3707 H       1  UNL1        0.0583
     18 H           0.3639    2.7137    0.2384 H       1  UNL1        0.0583
     19 H          -1.5329    2.9089    1.1629 H       1  UNL1        0.2095
     20 H           0.3292    0.5038    1.2565 H       1  UNL1        0.0464
     21 H          -3.5823   -1.8274    0.7093 H       1  UNL1        0.0341
     22 H          -4.0618   -0.2499    0.0340 H       1  UNL1        0.0341
     23 H          -2.6775   -1.2214   -0.7181 H       1  UNL1        0.0341
     24 H          -0.0847   -1.5607   -0.9180 H       1  UNL1        0.0633
     25 H          -0.2452   -2.1654    1.8769 H       1  UNL1        0.2099
     26 H           2.0392   -1.1302    1.1756 H       1  UNL1        0.0670
     27 H           3.1980   -1.7723   -0.8683 H       1  UNL1        0.2101
@<TRIPOS>BOND
     1     1     2    1
     2     1     3    1
     3     3     4    1
     4     4     5    1
     5     5     6    1
     6     4     7    1
     7     7     8    1
     8     8     9    1
     9     7    10    1
    10    10    11    1
    11    10    12    1
    12    12    13    1
    13    12     1    1
    14     1    14    1
    15     2    15    1
    16     4    16    1
    17     5    17    1
    18     5    18    1
    19     6    19    1
    20     7    20    1
    21     9    21    1
    22     9    22    1
    23     9    23    1
    24    10    24    1
    25    11    25    1
    26    12    26    1
    27    13    27    1
