@<TRIPOS>MOLECULE
*****
 61 64 0 0 0
SMALL
GASTEIGER

@<TRIPOS>ATOM
      1 C           9.1815    1.9683   -0.0296 C.3     1  UNL1       -0.0307
      2 C           7.6794    1.8770   -0.0934 C.3     1  UNL1        0.0868
      3 O           7.3141    0.5175   -0.0672 O.3     1  UNL1       -0.4922
      4 C           5.9674    0.1959   -0.1169 C.ar    1  UNL1        0.1208
      5 C           5.0026    1.1675   -0.1899 C.ar    1  UNL1       -0.0182
      6 C           3.6813    0.7761   -0.2362 C.ar    1  UNL1       -0.0369
      7 C           3.2754   -0.5352   -0.2134 C.ar    1  UNL1        0.0330
      8 N           1.9161   -0.9277   -0.2576 N.pl3   1  UNL1       -0.3264
      9 C           1.3986   -1.6639    0.8918 C.3     1  UNL1        0.0281
     10 C           0.1146   -1.0869    1.3964 C.3     1  UNL1        0.0310
     11 N          -0.7154   -0.5512    0.3373 N.pl3   1  UNL1       -0.2914
     12 C          -2.1250   -0.6186    0.5125 C.ar    1  UNL1        0.2584
     13 N          -2.7910   -1.1307    1.5560 N.ar    1  UNL1       -0.0399
     14 O          -4.0816   -1.0150    1.3634 O.2     1  UNL1       -0.3341
     15 C          -4.2986   -0.4350    0.2107 C.ar    1  UNL1        0.2522
     16 C          -5.6480   -0.1218   -0.3747 C.3     1  UNL1        0.1131
     17 N          -6.5883    0.1789    0.6250 N.am    1  UNL1       -0.3014
     18 C          -6.4362    1.2398    1.5588 C.2     1  UNL1        0.2107
     19 C          -7.4201    1.5605    2.6105 C.3     1  UNL1        0.0122
     20 O          -5.3958    1.9213    1.4544 O.2     1  UNL1       -0.2761
     21 C          -6.1008   -1.3052   -1.2066 C.3     1  UNL1       -0.0228
     22 C          -6.6337   -0.2707   -2.2107 C.3     1  UNL1       -0.0482
     23 C          -5.6108    0.6659   -1.6333 C.3     1  UNL1       -0.0228
     24 N          -3.0972   -0.1794   -0.3361 N.ar    1  UNL1       -0.1765
     25 C          -0.2106    0.0379   -0.8614 C.3     1  UNL1        0.0392
     26 C           0.0882    1.5094   -0.7224 C.3     1  UNL1       -0.0449
     27 C           1.0193   -0.6672   -1.3433 C.3     1  UNL1        0.0306
     28 C           4.2594   -1.4919   -0.1401 C.ar    1  UNL1       -0.0260
     29 C           3.8846   -2.9172   -0.1152 C.3     1  UNL1       -0.0378
     30 C           5.6075   -1.1153   -0.0921 C.ar    1  UNL1       -0.0153
     31 H           9.5215    1.3211    0.7982 H       1  UNL1        0.0262
     32 H           9.6245    1.6092   -0.9867 H       1  UNL1        0.0262
     33 H           9.4323    3.0344    0.1649 H       1  UNL1        0.0262
     34 H           7.2767    2.4348    0.7784 H       1  UNL1        0.0694
     35 H           7.3185    2.2974   -1.0535 H       1  UNL1        0.0694
     36 H           5.2725    2.1964   -0.2097 H       1  UNL1        0.0655
     37 H           2.9318    1.5787   -0.2939 H       1  UNL1        0.0637
     38 H           2.1160   -1.6560    1.7459 H       1  UNL1        0.0479
     39 H           1.3014   -2.7280    0.5821 H       1  UNL1        0.0479
     40 H           0.2493   -0.3299    2.1954 H       1  UNL1        0.0480
     41 H          -0.4488   -1.9286    1.8913 H       1  UNL1        0.0480
     42 H          -7.4592   -0.3855    0.7185 H       1  UNL1        0.1497
     43 H          -7.9108    0.6104    2.9436 H       1  UNL1        0.0322
     44 H          -8.2320    2.2287    2.2616 H       1  UNL1        0.0322
     45 H          -6.9250    2.0936    3.4522 H       1  UNL1        0.0322
     46 H          -5.2729   -1.8621   -1.6525 H       1  UNL1        0.0291
     47 H          -6.9179   -1.9006   -0.7518 H       1  UNL1        0.0291
     48 H          -6.4964   -0.5413   -3.2570 H       1  UNL1        0.0267
     49 H          -7.6598    0.0679   -1.9155 H       1  UNL1        0.0267
     50 H          -5.8607    1.7247   -1.6035 H       1  UNL1        0.0291
     51 H          -4.6349    0.5249   -2.1484 H       1  UNL1        0.0291
     52 H          -1.0075   -0.0400   -1.6655 H       1  UNL1        0.0513
     53 H           0.8505    1.8054   -1.4734 H       1  UNL1        0.0248
     54 H          -0.8012    2.1454   -0.9038 H       1  UNL1        0.0248
     55 H           0.4403    1.7082    0.2889 H       1  UNL1        0.0248
     56 H           0.7515   -1.6770   -1.7747 H       1  UNL1        0.0482
     57 H           1.4701   -0.0423   -2.1419 H       1  UNL1        0.0482
     58 H           3.6100   -3.3078    0.8643 H       1  UNL1        0.0278
     59 H           4.7774   -3.5247   -0.4515 H       1  UNL1        0.0278
     60 H           3.1276   -3.1076   -0.9185 H       1  UNL1        0.0278
     61 H           6.3184   -1.9327   -0.0351 H       1  UNL1        0.0657
@<TRIPOS>BOND
     1     1     2    1
     2     2     3    1
     3     3     4    1
     4     4     5   ar
     5     5     6   ar
     6     6     7   ar
     7     7     8    1
     8     8     9    1
     9     9    10    1
    10    10    11    1
    11    11    12    1
    12    12    13   ar
    13    13    14   ar
    14    14    15   ar
    15    15    16    1
    16    16    17    1
    17    17    18   am
    18    18    19    1
    19    18    20    2
    20    16    21    1
    21    21    22    1
    22    22    23    1
    23    15    24   ar
    24    11    25    1
    25    25    26    1
    26    25    27    1
    27     7    28   ar
    28    28    29    1
    29    28    30   ar
    30    30     4   ar
    31    27     8    1
    32    24    12   ar
    33    23    16    1
    34     1    31    1
    35     1    32    1
    36     1    33    1
    37     2    34    1
    38     2    35    1
    39     5    36    1
    40     6    37    1
    41     9    38    1
    42     9    39    1
    43    10    40    1
    44    10    41    1
    45    17    42    1
    46    19    43    1
    47    19    44    1
    48    19    45    1
    49    21    46    1
    50    21    47    1
    51    22    48    1
    52    22    49    1
    53    23    50    1
    54    23    51    1
    55    25    52    1
    56    26    53    1
    57    26    54    1
    58    26    55    1
    59    27    56    1
    60    27    57    1
    61    29    58    1
    62    29    59    1
    63    29    60    1
    64    30    61    1
