
     RDKit          3D

 61 64  0  0  0  0  0  0  0  0999 V2000
    9.1815    1.9683   -0.0296 C   0  0  0  0  0  0  0  0  0  0  0  0
    7.6794    1.8770   -0.0934 C   0  0  0  0  0  0  0  0  0  0  0  0
    7.3141    0.5175   -0.0672 O   0  0  0  0  0  0  0  0  0  0  0  0
    5.9674    0.1959   -0.1169 C   0  0  0  0  0  0  0  0  0  0  0  0
    5.0026    1.1675   -0.1899 C   0  0  0  0  0  0  0  0  0  0  0  0
    3.6813    0.7761   -0.2362 C   0  0  0  0  0  0  0  0  0  0  0  0
    3.2754   -0.5352   -0.2134 C   0  0  0  0  0  0  0  0  0  0  0  0
    1.9161   -0.9277   -0.2576 N   0  0  0  0  0  0  0  0  0  0  0  0
    1.3986   -1.6639    0.8918 C   0  0  0  0  0  0  0  0  0  0  0  0
    0.1146   -1.0869    1.3964 C   0  0  0  0  0  0  0  0  0  0  0  0
   -0.7154   -0.5512    0.3373 N   0  0  0  0  0  0  0  0  0  0  0  0
   -2.1250   -0.6186    0.5125 C   0  0  0  0  0  0  0  0  0  0  0  0
   -2.7910   -1.1307    1.5560 N   0  0  0  0  0  0  0  0  0  0  0  0
   -4.0816   -1.0150    1.3634 O   0  0  0  0  0  0  0  0  0  0  0  0
   -4.2986   -0.4350    0.2107 C   0  0  0  0  0  0  0  0  0  0  0  0
   -5.6480   -0.1218   -0.3747 C   0  0  0  0  0  0  0  0  0  0  0  0
   -6.5883    0.1789    0.6250 N   0  0  0  0  0  0  0  0  0  0  0  0
   -6.4362    1.2398    1.5588 C   0  0  0  0  0  0  0  0  0  0  0  0
   -7.4201    1.5605    2.6105 C   0  0  0  0  0  0  0  0  0  0  0  0
   -5.3958    1.9213    1.4544 O   0  0  0  0  0  0  0  0  0  0  0  0
   -6.1008   -1.3052   -1.2066 C   0  0  0  0  0  0  0  0  0  0  0  0
   -6.6337   -0.2707   -2.2107 C   0  0  0  0  0  0  0  0  0  0  0  0
   -5.6108    0.6659   -1.6333 C   0  0  0  0  0  0  0  0  0  0  0  0
   -3.0972   -0.1794   -0.3361 N   0  0  0  0  0  0  0  0  0  0  0  0
   -0.2106    0.0379   -0.8614 C   0  0  1  0  0  0  0  0  0  0  0  0
    0.0882    1.5094   -0.7224 C   0  0  0  0  0  0  0  0  0  0  0  0
    1.0193   -0.6672   -1.3433 C   0  0  0  0  0  0  0  0  0  0  0  0
    4.2594   -1.4919   -0.1401 C   0  0  0  0  0  0  0  0  0  0  0  0
    3.8846   -2.9172   -0.1152 C   0  0  0  0  0  0  0  0  0  0  0  0
    5.6075   -1.1153   -0.0921 C   0  0  0  0  0  0  0  0  0  0  0  0
    9.5215    1.3211    0.7982 H   0  0  0  0  0  0  0  0  0  0  0  0
    9.6245    1.6092   -0.9867 H   0  0  0  0  0  0  0  0  0  0  0  0
    9.4323    3.0344    0.1649 H   0  0  0  0  0  0  0  0  0  0  0  0
    7.2767    2.4348    0.7784 H   0  0  0  0  0  0  0  0  0  0  0  0
    7.3185    2.2974   -1.0535 H   0  0  0  0  0  0  0  0  0  0  0  0
    5.2725    2.1964   -0.2097 H   0  0  0  0  0  0  0  0  0  0  0  0
    2.9318    1.5787   -0.2939 H   0  0  0  0  0  0  0  0  0  0  0  0
    2.1160   -1.6560    1.7459 H   0  0  0  0  0  0  0  0  0  0  0  0
    1.3014   -2.7280    0.5821 H   0  0  0  0  0  0  0  0  0  0  0  0
    0.2493   -0.3299    2.1954 H   0  0  0  0  0  0  0  0  0  0  0  0
   -0.4488   -1.9286    1.8913 H   0  0  0  0  0  0  0  0  0  0  0  0
   -7.4592   -0.3855    0.7185 H   0  0  0  0  0  0  0  0  0  0  0  0
   -7.9108    0.6104    2.9436 H   0  0  0  0  0  0  0  0  0  0  0  0
   -8.2320    2.2287    2.2616 H   0  0  0  0  0  0  0  0  0  0  0  0
   -6.9250    2.0936    3.4522 H   0  0  0  0  0  0  0  0  0  0  0  0
   -5.2729   -1.8621   -1.6525 H   0  0  0  0  0  0  0  0  0  0  0  0
   -6.9179   -1.9006   -0.7518 H   0  0  0  0  0  0  0  0  0  0  0  0
   -6.4964   -0.5413   -3.2570 H   0  0  0  0  0  0  0  0  0  0  0  0
   -7.6598    0.0679   -1.9155 H   0  0  0  0  0  0  0  0  0  0  0  0
   -5.8607    1.7247   -1.6035 H   0  0  0  0  0  0  0  0  0  0  0  0
   -4.6349    0.5249   -2.1484 H   0  0  0  0  0  0  0  0  0  0  0  0
   -1.0075   -0.0400   -1.6655 H   0  0  0  0  0  0  0  0  0  0  0  0
    0.8505    1.8054   -1.4734 H   0  0  0  0  0  0  0  0  0  0  0  0
   -0.8012    2.1454   -0.9038 H   0  0  0  0  0  0  0  0  0  0  0  0
    0.4403    1.7082    0.2889 H   0  0  0  0  0  0  0  0  0  0  0  0
    0.7515   -1.6770   -1.7747 H   0  0  0  0  0  0  0  0  0  0  0  0
    1.4701   -0.0423   -2.1419 H   0  0  0  0  0  0  0  0  0  0  0  0
    3.6100   -3.3078    0.8643 H   0  0  0  0  0  0  0  0  0  0  0  0
    4.7774   -3.5247   -0.4515 H   0  0  0  0  0  0  0  0  0  0  0  0
    3.1276   -3.1076   -0.9185 H   0  0  0  0  0  0  0  0  0  0  0  0
    6.3184   -1.9327   -0.0351 H   0  0  0  0  0  0  0  0  0  0  0  0
  1  2  1  0
  2  3  1  0
  3  4  1  0
  4  5  2  0
  5  6  1  0
  6  7  2  0
  7  8  1  0
  8  9  1  0
  9 10  1  0
 10 11  1  0
 11 12  1  0
 12 13  2  0
 13 14  1  0
 14 15  1  0
 15 16  1  0
 16 17  1  0
 17 18  1  0
 18 19  1  0
 18 20  2  0
 16 21  1  0
 21 22  1  0
 22 23  1  0
 15 24  2  0
 11 25  1  0
 25 26  1  0
 25 27  1  0
  7 28  1  0
 28 29  1  0
 28 30  2  0
 30  4  1  0
 27  8  1  0
 24 12  1  0
 23 16  1  0
  1 31  1  0
  1 32  1  0
  1 33  1  0
  2 34  1  0
  2 35  1  0
  5 36  1  0
  6 37  1  0
  9 38  1  0
  9 39  1  0
 10 40  1  0
 10 41  1  0
 17 42  1  0
 19 43  1  0
 19 44  1  0
 19 45  1  0
 21 46  1  0
 21 47  1  0
 22 48  1  0
 22 49  1  0
 23 50  1  0
 23 51  1  0
 25 52  1  6
 26 53  1  0
 26 54  1  0
 26 55  1  0
 27 56  1  0
 27 57  1  0
 29 58  1  0
 29 59  1  0
 29 60  1  0
 30 61  1  0
M  END
$$$$
