@<TRIPOS>MOLECULE
*****
 42 42 0 0 0
SMALL
GASTEIGER

@<TRIPOS>ATOM
      1 O           4.4406    3.0702   -1.5745 O.3     1  UNL1       -0.4806
      2 C           3.6961    1.9974   -1.0997 C.2     1  UNL1        0.3047
      3 O           4.0420    1.0287   -1.8594 O.2     1  UNL1       -0.2510
      4 C           2.6776    1.5918   -0.0607 C.3     1  UNL1        0.0448
      5 C           3.2606    0.5384    0.8440 C.3     1  UNL1       -0.0418
      6 C           2.3797    0.0091    1.9083 C.3     1  UNL1       -0.0397
      7 C           1.2118   -0.8336    1.5903 C.3     1  UNL1       -0.0002
      8 N           0.2172   -0.3703    0.6765 N.3     1  UNL1       -0.2875
      9 C          -1.1337   -0.8045    1.1086 C.3     1  UNL1        0.0246
     10 C          -2.1937   -0.0669    0.3787 C.ar    1  UNL1       -0.0329
     11 C          -2.6260    1.1344    0.9701 C.ar    1  UNL1       -0.0509
     12 C          -3.6170    1.9496    0.4110 C.ar    1  UNL1        0.0159
     13 C          -4.1893    1.5508   -0.7713 C.ar    1  UNL1        0.2732
     14 C          -3.8188    0.3782   -1.4194 C.ar    1  UNL1        0.0159
     15 C          -2.8397   -0.3551   -0.7948 C.ar    1  UNL1       -0.0509
     16 N          -5.1986    2.3485   -1.3800 N.pl3   1  UNL1        0.0796
     17 O          -5.8116    3.5220   -1.0547 O.co2   1  UNL1       -0.5760
     18 O          -5.7328    2.0227   -2.4576 O.2     1  UNL1        0.0414
     19 C           0.4348   -1.0697   -0.6333 C.3     1  UNL1        0.1015
     20 P           0.2871   -2.8313   -0.5803 P.3     1  UNL1        0.3416
     21 O           0.2197   -3.5254    0.9292 O.3     1  UNL1       -0.3232
     22 O           1.6627   -3.5140   -1.3709 O.3     1  UNL1       -0.3232
     23 O          -0.8809   -3.3822   -1.4207 O.2     1  UNL1       -0.2575
     24 H           5.4704    3.0159   -1.6041 H       1  UNL1        0.2951
     25 H           1.7006    1.4033   -0.4545 H       1  UNL1        0.0377
     26 H           2.6269    2.5376    0.5955 H       1  UNL1        0.0377
     27 H           4.1967    0.9799    1.3141 H       1  UNL1        0.0271
     28 H           3.6800   -0.3129    0.2337 H       1  UNL1        0.0271
     29 H           2.0480    0.9515    2.4973 H       1  UNL1        0.0278
     30 H           3.0264   -0.5117    2.6966 H       1  UNL1        0.0278
     31 H           0.6866   -1.0920    2.5550 H       1  UNL1        0.0427
     32 H           1.6115   -1.8311    1.2559 H       1  UNL1        0.0427
     33 H          -1.1935   -0.5208    2.1767 H       1  UNL1        0.0476
     34 H          -1.2858   -1.8708    1.0618 H       1  UNL1        0.0476
     35 H          -2.1791    1.4683    1.9180 H       1  UNL1        0.0623
     36 H          -3.8934    2.8556    0.9258 H       1  UNL1        0.0685
     37 H          -4.2284    0.0105   -2.3458 H       1  UNL1        0.0685
     38 H          -2.5271   -1.2725   -1.2629 H       1  UNL1        0.0623
     39 H           1.4736   -0.8239   -0.9165 H       1  UNL1        0.0552
     40 H          -0.2380   -0.5860   -1.3392 H       1  UNL1        0.0552
     41 H           0.6905   -4.3772    0.9571 H       1  UNL1        0.2198
     42 H           1.8463   -4.4124   -1.0558 H       1  UNL1        0.2198
@<TRIPOS>UNITY_ATOM_ATTR
16 1
charge 1
17 1
charge -1
@<TRIPOS>BOND
     1     1     2    1
     2     2     3    2
     3     2     4    1
     4     4     5    1
     5     5     6    1
     6     6     7    1
     7     7     8    1
     8     8     9    1
     9     9    10    1
    10    10    11   ar
    11    11    12   ar
    12    12    13   ar
    13    13    14   ar
    14    14    15   ar
    15    13    16    1
    16    16    17    1
    17    16    18    2
    18     8    19    1
    19    19    20    1
    20    20    21    1
    21    20    22    1
    22    20    23    2
    23    15    10   ar
    24     1    24    1
    25     4    25    1
    26     4    26    1
    27     5    27    1
    28     5    28    1
    29     6    29    1
    30     6    30    1
    31     7    31    1
    32     7    32    1
    33     9    33    1
    34     9    34    1
    35    11    35    1
    36    12    36    1
    37    14    37    1
    38    15    38    1
    39    19    39    1
    40    19    40    1
    41    21    41    1
    42    22    42    1
