
     RDKit          3D

 73 77  0  0  0  0  0  0  0  0999 V2000
   -9.3366    3.8660   -0.6872 C   0  0  0  0  0  0  0  0  0  0  0  0
   -8.2829    2.9384   -0.5781 O   0  0  0  0  0  0  0  0  0  0  0  0
   -8.5261    1.5763   -0.4749 C   0  0  0  0  0  0  0  0  0  0  0  0
   -9.7045    0.9693   -0.4635 N   0  0  0  0  0  0  0  0  0  0  0  0
   -9.5822   -0.3328   -0.3533 N   0  0  0  0  0  0  0  0  0  0  0  0
  -10.6394   -1.3223   -0.3078 C   0  0  0  0  0  0  0  0  0  0  0  0
   -8.2387   -0.5792   -0.2897 C   0  0  0  0  0  0  0  0  0  0  0  0
   -7.5315    0.5981   -0.3629 C   0  0  0  0  0  0  0  0  0  0  0  0
   -6.1332    0.8110   -0.3350 N   0  0  0  0  0  0  0  0  0  0  0  0
   -5.1544   -0.2061   -0.2184 C   0  0  0  0  0  0  0  0  0  0  0  0
   -5.5272   -1.4770   -0.1271 N   0  0  0  0  0  0  0  0  0  0  0  0
   -4.6801   -2.5090   -0.0137 C   0  0  0  0  0  0  0  0  0  0  0  0
   -3.3169   -2.1946    0.0072 C   0  0  0  0  0  0  0  0  0  0  0  0
   -2.2884   -3.2592    0.1329 C   0  0  0  0  0  0  0  0  0  0  0  0
   -2.9019   -0.8868   -0.0858 C   0  0  0  0  0  0  0  0  0  0  0  0
   -1.4754   -0.5850   -0.0576 C   0  0  0  0  0  0  0  0  0  0  0  0
   -0.5493   -1.1359   -0.9160 C   0  0  0  0  0  0  0  0  0  0  0  0
    0.6790   -0.6666   -0.6516 N   0  0  0  0  0  0  0  0  0  0  0  0
    0.5618    0.1936    0.3810 C   0  0  0  0  0  0  0  0  0  0  0  0
    1.4638    0.9597    1.0690 C   0  0  0  0  0  0  0  0  0  0  0  0
    2.8334    0.9253    0.7168 N   0  0  0  0  0  0  0  0  0  0  0  0
    3.4111    1.7914   -0.2382 C   0  0  0  0  0  0  0  0  0  0  0  0
    2.6837    2.6383   -0.8067 O   0  0  0  0  0  0  0  0  0  0  0  0
    4.8383    1.7296   -0.5804 C   0  0  1  0  0  0  0  0  0  0  0  0
    5.4829    2.9752   -0.0018 C   0  0  0  0  0  0  0  0  0  0  0  0
    5.4227    0.5297   -0.1011 N   0  0  0  0  0  0  0  0  0  0  0  0
    5.0142   -0.6436   -0.8087 C   0  0  0  0  0  0  0  0  0  0  0  0
    5.6812   -1.8581   -0.1521 C   0  0  0  0  0  0  0  0  0  0  0  0
    7.1081   -1.8149   -0.3576 N   0  0  0  0  0  0  0  0  0  0  0  0
    7.7986   -2.6270    0.6041 C   0  0  0  0  0  0  0  0  0  0  0  0
    7.6274   -0.4928   -0.5069 C   0  0  2  0  0  0  0  0  0  0  0  0
    9.0517   -0.3661    0.0098 C   0  0  0  0  0  0  0  0  0  0  0  0
    6.8140    0.5586    0.1967 C   0  0  0  0  0  0  0  0  0  0  0  0
    1.0461    1.7602    2.1021 C   0  0  0  0  0  0  0  0  0  0  0  0
   -0.2979    1.8185    2.4807 C   0  0  0  0  0  0  0  0  0  0  0  0
   -1.2178    1.0501    1.7942 C   0  0  0  0  0  0  0  0  0  0  0  0
   -0.7821    0.2583    0.7674 C   0  0  0  0  0  0  0  0  0  0  0  0
   -3.8282    0.0926   -0.1975 N   0  0  0  0  0  0  0  0  0  0  0  0
   -9.0768    4.7382   -0.0227 H   0  0  0  0  0  0  0  0  0  0  0  0
   -9.4118    4.1794   -1.7388 H   0  0  0  0  0  0  0  0  0  0  0  0
  -10.2599    3.4113   -0.2999 H   0  0  0  0  0  0  0  0  0  0  0  0
  -10.5830   -1.9487   -1.2434 H   0  0  0  0  0  0  0  0  0  0  0  0
  -10.5338   -2.0187    0.5506 H   0  0  0  0  0  0  0  0  0  0  0  0
  -11.6060   -0.8016   -0.2790 H   0  0  0  0  0  0  0  0  0  0  0  0
   -7.8396   -1.5841   -0.1949 H   0  0  0  0  0  0  0  0  0  0  0  0
   -5.8276    1.8349   -0.4106 H   0  0  0  0  0  0  0  0  0  0  0  0
   -5.0148   -3.5205    0.0574 H   0  0  0  0  0  0  0  0  0  0  0  0
   -2.6447   -4.0574    0.8495 H   0  0  0  0  0  0  0  0  0  0  0  0
   -1.3840   -2.8462    0.6235 H   0  0  0  0  0  0  0  0  0  0  0  0
   -2.0929   -3.7057   -0.8570 H   0  0  0  0  0  0  0  0  0  0  0  0
   -0.7414   -1.8539   -1.7112 H   0  0  0  0  0  0  0  0  0  0  0  0
    1.5693   -0.9082   -1.1412 H   0  0  0  0  0  0  0  0  0  0  0  0
    3.4586    0.2205    1.2053 H   0  0  0  0  0  0  0  0  0  0  0  0
    4.9521    1.8100   -1.7048 H   0  0  0  0  0  0  0  0  0  0  0  0
    4.7530    3.8056   -0.0902 H   0  0  0  0  0  0  0  0  0  0  0  0
    5.6652    2.8072    1.0683 H   0  0  0  0  0  0  0  0  0  0  0  0
    6.3759    3.2766   -0.5665 H   0  0  0  0  0  0  0  0  0  0  0  0
    3.9319   -0.8327   -0.8137 H   0  0  0  0  0  0  0  0  0  0  0  0
    5.3547   -0.6137   -1.8860 H   0  0  0  0  0  0  0  0  0  0  0  0
    5.2266   -2.7809   -0.5842 H   0  0  0  0  0  0  0  0  0  0  0  0
    5.3931   -1.8321    0.9181 H   0  0  0  0  0  0  0  0  0  0  0  0
    8.0600   -2.0254    1.4968 H   0  0  0  0  0  0  0  0  0  0  0  0
    7.1893   -3.5067    0.8946 H   0  0  0  0  0  0  0  0  0  0  0  0
    8.7123   -3.0271    0.0825 H   0  0  0  0  0  0  0  0  0  0  0  0
    7.5999   -0.2347   -1.6037 H   0  0  0  0  0  0  0  0  0  0  0  0
    9.4499    0.6070   -0.3606 H   0  0  0  0  0  0  0  0  0  0  0  0
    8.9891   -0.2424    1.1274 H   0  0  0  0  0  0  0  0  0  0  0  0
    9.6917   -1.2039   -0.2657 H   0  0  0  0  0  0  0  0  0  0  0  0
    7.2916    1.5446    0.0243 H   0  0  0  0  0  0  0  0  0  0  0  0
    6.9459    0.3580    1.3003 H   0  0  0  0  0  0  0  0  0  0  0  0
    1.7734    2.3597    2.6352 H   0  0  0  0  0  0  0  0  0  0  0  0
   -0.6162    2.4538    3.2976 H   0  0  0  0  0  0  0  0  0  0  0  0
   -2.2741    1.0546    2.0435 H   0  0  0  0  0  0  0  0  0  0  0  0
  1  2  1  0
  2  3  1  0
  3  4  2  0
  4  5  1  0
  5  6  1  0
  5  7  1  0
  7  8  2  0
  8  9  1  0
  9 10  1  0
 10 11  2  0
 11 12  1  0
 12 13  2  0
 13 14  1  0
 13 15  1  0
 15 16  1  0
 16 17  2  0
 17 18  1  0
 18 19  1  0
 19 20  2  0
 20 21  1  0
 21 22  1  0
 22 23  2  0
 22 24  1  0
 24 25  1  0
 24 26  1  0
 26 27  1  0
 27 28  1  0
 28 29  1  0
 29 30  1  0
 29 31  1  0
 31 32  1  0
 31 33  1  0
 20 34  1  0
 34 35  2  0
 35 36  1  0
 36 37  2  0
 15 38  2  0
  8  3  1  0
 38 10  1  0
 37 16  1  0
 37 19  1  0
 33 26  1  0
  1 39  1  0
  1 40  1  0
  1 41  1  0
  6 42  1  0
  6 43  1  0
  6 44  1  0
  7 45  1  0
  9 46  1  0
 12 47  1  0
 14 48  1  0
 14 49  1  0
 14 50  1  0
 17 51  1  0
 18 52  1  0
 21 53  1  0
 24 54  1  6
 25 55  1  0
 25 56  1  0
 25 57  1  0
 27 58  1  0
 27 59  1  0
 28 60  1  0
 28 61  1  0
 30 62  1  0
 30 63  1  0
 30 64  1  0
 31 65  1  6
 32 66  1  0
 32 67  1  0
 32 68  1  0
 33 69  1  0
 33 70  1  0
 34 71  1  0
 35 72  1  0
 36 73  1  0
M  END
$$$$
