@<TRIPOS>MOLECULE
*****
 73 77 0 0 0
SMALL
GASTEIGER

@<TRIPOS>ATOM
      1 C          -9.3366    3.8660   -0.6872 C.3     1  UNL1        0.0805
      2 O          -8.2829    2.9384   -0.5781 O.3     1  UNL1       -0.4774
      3 C          -8.5261    1.5763   -0.4749 C.ar    1  UNL1        0.2552
      4 N          -9.7045    0.9693   -0.4635 N.ar    1  UNL1       -0.1317
      5 N          -9.5822   -0.3328   -0.3533 N.ar    1  UNL1       -0.2692
      6 C         -10.6394   -1.3223   -0.3078 C.3     1  UNL1        0.0304
      7 C          -8.2387   -0.5792   -0.2897 C.ar    1  UNL1        0.0503
      8 C          -7.5315    0.5981   -0.3629 C.ar    1  UNL1        0.1152
      9 N          -6.1332    0.8110   -0.3350 N.pl3   1  UNL1       -0.2782
     10 C          -5.1544   -0.2061   -0.2184 C.ar    1  UNL1        0.2202
     11 N          -5.5272   -1.4770   -0.1271 N.ar    1  UNL1       -0.2224
     12 C          -4.6801   -2.5090   -0.0137 C.ar    1  UNL1        0.0361
     13 C          -3.3169   -2.1946    0.0072 C.ar    1  UNL1       -0.0062
     14 C          -2.2884   -3.2592    0.1329 C.3     1  UNL1       -0.0362
     15 C          -2.9019   -0.8868   -0.0858 C.ar    1  UNL1        0.0809
     16 C          -1.4754   -0.5850   -0.0576 C.ar    1  UNL1        0.0258
     17 C          -0.5493   -1.1359   -0.9160 C.ar    1  UNL1        0.0120
     18 N           0.6790   -0.6666   -0.6516 N.ar    1  UNL1       -0.3586
     19 C           0.5618    0.1936    0.3810 C.ar    1  UNL1        0.0686
     20 C           1.4638    0.9597    1.0690 C.ar    1  UNL1        0.0576
     21 N           2.8334    0.9253    0.7168 N.am    1  UNL1       -0.2825
     22 C           3.4111    1.7914   -0.2382 C.2     1  UNL1        0.2342
     23 O           2.6837    2.6383   -0.8067 O.2     1  UNL1       -0.2738
     24 C           4.8383    1.7296   -0.5804 C.3     1  UNL1        0.0848
     25 C           5.4829    2.9752   -0.0018 C.3     1  UNL1       -0.0409
     26 N           5.4227    0.5297   -0.1011 N.3     1  UNL1       -0.2890
     27 C           5.0142   -0.6436   -0.8087 C.3     1  UNL1        0.0124
     28 C           5.6812   -1.8581   -0.1521 C.3     1  UNL1        0.0117
     29 N           7.1081   -1.8149   -0.3576 N.3     1  UNL1       -0.3002
     30 C           7.7986   -2.6270    0.6041 C.3     1  UNL1       -0.0124
     31 C           7.6274   -0.4928   -0.5069 C.3     1  UNL1        0.0201
     32 C           9.0517   -0.3661    0.0098 C.3     1  UNL1       -0.0483
     33 C           6.8140    0.5586    0.1967 C.3     1  UNL1        0.0150
     34 C           1.0461    1.7602    2.1021 C.ar    1  UNL1       -0.0384
     35 C          -0.2979    1.8185    2.4807 C.ar    1  UNL1       -0.0593
     36 C          -1.2178    1.0501    1.7942 C.ar    1  UNL1       -0.0518
     37 C          -0.7821    0.2583    0.7674 C.ar    1  UNL1        0.0107
     38 N          -3.8282    0.0926   -0.1975 N.ar    1  UNL1       -0.2139
     39 H          -9.0768    4.7382   -0.0227 H       1  UNL1        0.0660
     40 H          -9.4118    4.1794   -1.7388 H       1  UNL1        0.0660
     41 H         -10.2599    3.4113   -0.2999 H       1  UNL1        0.0660
     42 H         -10.5830   -1.9487   -1.2434 H       1  UNL1        0.0473
     43 H         -10.5338   -2.0187    0.5506 H       1  UNL1        0.0473
     44 H         -11.6060   -0.8016   -0.2790 H       1  UNL1        0.0473
     45 H          -7.8396   -1.5841   -0.1949 H       1  UNL1        0.0846
     46 H          -5.8276    1.8349   -0.4106 H       1  UNL1        0.1552
     47 H          -5.0148   -3.5205    0.0574 H       1  UNL1        0.0834
     48 H          -2.6447   -4.0574    0.8495 H       1  UNL1        0.0279
     49 H          -1.3840   -2.8462    0.6235 H       1  UNL1        0.0279
     50 H          -2.0929   -3.7057   -0.8570 H       1  UNL1        0.0279
     51 H          -0.7414   -1.8539   -1.7112 H       1  UNL1        0.0814
     52 H           1.5693   -0.9082   -1.1412 H       1  UNL1        0.1654
     53 H           3.4586    0.2205    1.2053 H       1  UNL1        0.1549
     54 H           4.9521    1.8100   -1.7048 H       1  UNL1        0.0556
     55 H           4.7530    3.8056   -0.0902 H       1  UNL1        0.0249
     56 H           5.6652    2.8072    1.0683 H       1  UNL1        0.0249
     57 H           6.3759    3.2766   -0.5665 H       1  UNL1        0.0249
     58 H           3.9319   -0.8327   -0.8137 H       1  UNL1        0.0439
     59 H           5.3547   -0.6137   -1.8860 H       1  UNL1        0.0439
     60 H           5.2266   -2.7809   -0.5842 H       1  UNL1        0.0439
     61 H           5.3931   -1.8321    0.9181 H       1  UNL1        0.0439
     62 H           8.0600   -2.0254    1.4968 H       1  UNL1        0.0391
     63 H           7.1893   -3.5067    0.8946 H       1  UNL1        0.0391
     64 H           8.7123   -3.0271    0.0825 H       1  UNL1        0.0391
     65 H           7.5999   -0.2347   -1.6037 H       1  UNL1        0.0472
     66 H           9.4499    0.6070   -0.3606 H       1  UNL1        0.0245
     67 H           8.9891   -0.2424    1.1274 H       1  UNL1        0.0245
     68 H           9.6917   -1.2039   -0.2657 H       1  UNL1        0.0245
     69 H           7.2916    1.5446    0.0243 H       1  UNL1        0.0442
     70 H           6.9459    0.3580    1.3003 H       1  UNL1        0.0442
     71 H           1.7734    2.3597    2.6352 H       1  UNL1        0.0637
     72 H          -0.6162    2.4538    3.2976 H       1  UNL1        0.0618
     73 H          -2.2741    1.0546    2.0435 H       1  UNL1        0.0624
@<TRIPOS>BOND
     1     1     2    1
     2     2     3    1
     3     3     4   ar
     4     4     5   ar
     5     5     6    1
     6     5     7   ar
     7     7     8   ar
     8     8     9    1
     9     9    10    1
    10    10    11   ar
    11    11    12   ar
    12    12    13   ar
    13    13    14    1
    14    13    15   ar
    15    15    16    1
    16    16    17   ar
    17    17    18   ar
    18    18    19   ar
    19    19    20   ar
    20    20    21    1
    21    21    22   am
    22    22    23    2
    23    22    24    1
    24    24    25    1
    25    24    26    1
    26    26    27    1
    27    27    28    1
    28    28    29    1
    29    29    30    1
    30    29    31    1
    31    31    32    1
    32    31    33    1
    33    20    34   ar
    34    34    35   ar
    35    35    36   ar
    36    36    37   ar
    37    15    38   ar
    38     8     3   ar
    39    38    10   ar
    40    37    16   ar
    41    37    19   ar
    42    33    26    1
    43     1    39    1
    44     1    40    1
    45     1    41    1
    46     6    42    1
    47     6    43    1
    48     6    44    1
    49     7    45    1
    50     9    46    1
    51    12    47    1
    52    14    48    1
    53    14    49    1
    54    14    50    1
    55    17    51    1
    56    18    52    1
    57    21    53    1
    58    24    54    1
    59    25    55    1
    60    25    56    1
    61    25    57    1
    62    27    58    1
    63    27    59    1
    64    28    60    1
    65    28    61    1
    66    30    62    1
    67    30    63    1
    68    30    64    1
    69    31    65    1
    70    32    66    1
    71    32    67    1
    72    32    68    1
    73    33    69    1
    74    33    70    1
    75    34    71    1
    76    35    72    1
    77    36    73    1
