
     RDKit          3D

 66 70  0  0  0  0  0  0  0  0999 V2000
    9.5669   -2.0540   -0.3712 C   0  0  0  0  0  0  0  0  0  0  0  0
    9.1211   -1.6883    0.9596 N   0  0  0  0  0  0  0  0  0  0  0  0
    7.7902   -1.2650    1.1841 C   0  0  0  0  0  0  0  0  0  0  0  0
    7.3882   -0.9292    2.4179 N   0  0  0  0  0  0  0  0  0  0  0  0
    6.1212   -0.5274    2.6257 C   0  0  0  0  0  0  0  0  0  0  0  0
    5.2614   -0.4630    1.5986 N   0  0  0  0  0  0  0  0  0  0  0  0
    5.6481   -0.7956    0.3576 C   0  0  0  0  0  0  0  0  0  0  0  0
    4.6973   -0.7171   -0.7368 C   0  0  0  0  0  0  0  0  0  0  0  0
    5.0446   -1.0457   -2.0188 C   0  0  0  0  0  0  0  0  0  0  0  0
    4.1224   -0.9608   -3.0312 C   0  0  0  0  0  0  0  0  0  0  0  0
    2.8502   -0.5467   -2.7620 C   0  0  0  0  0  0  0  0  0  0  0  0
    2.5312   -0.2335   -1.5205 N   0  0  0  0  0  0  0  0  0  0  0  0
    3.3737   -0.2934   -0.4973 C   0  0  0  0  0  0  0  0  0  0  0  0
    3.0460    0.0254    0.7607 O   0  0  0  0  0  0  0  0  0  0  0  0
    1.8563    0.4569    1.2637 C   0  0  0  0  0  0  0  0  0  0  0  0
    1.8621    0.7105    2.6529 C   0  0  0  0  0  0  0  0  0  0  0  0
    0.7165    1.1432    3.2316 C   0  0  0  0  0  0  0  0  0  0  0  0
   -0.4536    1.3392    2.4846 C   0  0  0  0  0  0  0  0  0  0  0  0
   -1.5738    1.7664    3.0996 F   0  0  0  0  0  0  0  0  0  0  0  0
   -0.4827    1.1007    1.1407 C   0  0  0  0  0  0  0  0  0  0  0  0
   -1.6170    1.2709    0.2677 C   0  0  0  0  0  0  0  0  0  0  0  0
   -1.5201    0.9346   -0.9571 O   0  0  0  0  0  0  0  0  0  0  0  0
   -2.8895    1.7899    0.6111 N   0  0  0  0  0  0  0  0  0  0  0  0
   -3.9459    1.9138   -0.3205 C   0  0  0  0  0  0  0  0  0  0  0  0
   -4.0423    3.1318   -1.0146 C   0  0  0  0  0  0  0  0  0  0  0  0
   -5.0226    3.3615   -1.9512 C   0  0  0  0  0  0  0  0  0  0  0  0
   -5.0775    4.6797   -2.6606 C   0  0  0  0  0  0  0  0  0  0  0  0
   -3.8814    4.8941   -3.3026 F   0  0  0  0  0  0  0  0  0  0  0  0
   -5.3744    5.6394   -1.7265 F   0  0  0  0  0  0  0  0  0  0  0  0
   -6.1096    4.6517   -3.5829 F   0  0  0  0  0  0  0  0  0  0  0  0
   -5.9143    2.3579   -2.1926 C   0  0  0  0  0  0  0  0  0  0  0  0
   -5.8217    1.1695   -1.5165 C   0  0  0  0  0  0  0  0  0  0  0  0
   -4.8234    0.9127   -0.5510 C   0  0  0  0  0  0  0  0  0  0  0  0
   -4.7945   -0.3103    0.1042 N   0  0  0  0  0  0  0  0  0  0  0  0
   -5.7447   -1.3440   -0.4049 C   0  0  0  0  0  0  0  0  0  0  0  0
   -5.4132   -2.6710    0.2133 C   0  0  0  0  0  0  0  0  0  0  0  0
   -3.9542   -3.0063    0.2110 C   0  0  0  0  0  0  0  0  0  0  0  0
   -3.0771   -1.8479    0.6569 C   0  0  0  0  0  0  0  0  0  0  0  0
   -4.0269   -0.7800    1.1957 C   0  0  0  0  0  0  0  0  0  0  0  0
    0.7048    0.6547    0.5548 C   0  0  0  0  0  0  0  0  0  0  0  0
    6.9080   -1.1936    0.1601 N   0  0  0  0  0  0  0  0  0  0  0  0
    9.6916   -3.1495   -0.4731 H   0  0  0  0  0  0  0  0  0  0  0  0
   10.5241   -1.5274   -0.5661 H   0  0  0  0  0  0  0  0  0  0  0  0
    8.8002   -1.7097   -1.1094 H   0  0  0  0  0  0  0  0  0  0  0  0
    9.7958   -1.7417    1.7493 H   0  0  0  0  0  0  0  0  0  0  0  0
    5.8405   -0.2661    3.6374 H   0  0  0  0  0  0  0  0  0  0  0  0
    6.0797   -1.3789   -2.2170 H   0  0  0  0  0  0  0  0  0  0  0  0
    4.4210   -1.2291   -4.0536 H   0  0  0  0  0  0  0  0  0  0  0  0
    2.1394   -0.4897   -3.5899 H   0  0  0  0  0  0  0  0  0  0  0  0
    2.7745    0.5575    3.2355 H   0  0  0  0  0  0  0  0  0  0  0  0
    0.6750    1.3535    4.3118 H   0  0  0  0  0  0  0  0  0  0  0  0
   -3.0423    2.1156    1.5849 H   0  0  0  0  0  0  0  0  0  0  0  0
   -3.3315    3.9322   -0.8224 H   0  0  0  0  0  0  0  0  0  0  0  0
   -6.6941    2.5222   -2.9286 H   0  0  0  0  0  0  0  0  0  0  0  0
   -6.5492    0.3884   -1.7300 H   0  0  0  0  0  0  0  0  0  0  0  0
   -5.6442   -1.4164   -1.5108 H   0  0  0  0  0  0  0  0  0  0  0  0
   -6.7424   -1.0059   -0.0694 H   0  0  0  0  0  0  0  0  0  0  0  0
   -5.9004   -3.4389   -0.4692 H   0  0  0  0  0  0  0  0  0  0  0  0
   -5.9216   -2.8527    1.1874 H   0  0  0  0  0  0  0  0  0  0  0  0
   -3.6794   -3.3713   -0.7982 H   0  0  0  0  0  0  0  0  0  0  0  0
   -3.8195   -3.8830    0.8920 H   0  0  0  0  0  0  0  0  0  0  0  0
   -2.5886   -1.4773   -0.2589 H   0  0  0  0  0  0  0  0  0  0  0  0
   -2.3184   -2.1417    1.3929 H   0  0  0  0  0  0  0  0  0  0  0  0
   -3.5587   -0.0882    1.8694 H   0  0  0  0  0  0  0  0  0  0  0  0
   -4.7222   -1.3882    1.8711 H   0  0  0  0  0  0  0  0  0  0  0  0
    0.7212    0.4541   -0.5120 H   0  0  0  0  0  0  0  0  0  0  0  0
  1  2  1  0
  2  3  1  0
  3  4  2  0
  4  5  1  0
  5  6  2  0
  6  7  1  0
  7  8  1  0
  8  9  2  0
  9 10  1  0
 10 11  2  0
 11 12  1  0
 12 13  2  0
 13 14  1  0
 14 15  1  0
 15 16  2  0
 16 17  1  0
 17 18  2  0
 18 19  1  0
 18 20  1  0
 20 21  1  0
 21 22  2  0
 21 23  1  0
 23 24  1  0
 24 25  2  0
 25 26  1  0
 26 27  1  0
 27 28  1  0
 27 29  1  0
 27 30  1  0
 26 31  2  0
 31 32  1  0
 32 33  2  0
 33 34  1  0
 34 35  1  0
 35 36  1  0
 36 37  1  0
 37 38  1  0
 38 39  1  0
 20 40  2  0
  7 41  2  0
 41  3  1  0
 13  8  1  0
 40 15  1  0
 33 24  1  0
 39 34  1  0
  1 42  1  0
  1 43  1  0
  1 44  1  0
  2 45  1  0
  5 46  1  0
  9 47  1  0
 10 48  1  0
 11 49  1  0
 16 50  1  0
 17 51  1  0
 23 52  1  0
 25 53  1  0
 31 54  1  0
 32 55  1  0
 35 56  1  0
 35 57  1  0
 36 58  1  0
 36 59  1  0
 37 60  1  0
 37 61  1  0
 38 62  1  0
 38 63  1  0
 39 64  1  0
 39 65  1  0
 40 66  1  0
M  END
$$$$
