@<TRIPOS>MOLECULE
*****
 66 70 0 0 0
SMALL
GASTEIGER

@<TRIPOS>ATOM
      1 C           9.5669   -2.0540   -0.3712 C.3     1  UNL1        0.0003
      2 N           9.1211   -1.6883    0.9596 N.pl3   1  UNL1       -0.3164
      3 C           7.7902   -1.2650    1.1841 C.ar    1  UNL1        0.2183
      4 N           7.3882   -0.9292    2.4179 N.ar    1  UNL1       -0.2030
      5 C           6.1212   -0.5274    2.6257 C.ar    1  UNL1        0.1219
      6 N           5.2614   -0.4630    1.5986 N.ar    1  UNL1       -0.2157
      7 C           5.6481   -0.7956    0.3576 C.ar    1  UNL1        0.1700
      8 C           4.6973   -0.7171   -0.7368 C.ar    1  UNL1        0.0811
      9 C           5.0446   -1.0457   -2.0188 C.ar    1  UNL1       -0.0445
     10 C           4.1224   -0.9608   -3.0312 C.ar    1  UNL1       -0.0427
     11 C           2.8502   -0.5467   -2.7620 C.ar    1  UNL1        0.0314
     12 N           2.5312   -0.2335   -1.5205 N.ar    1  UNL1       -0.2204
     13 C           3.3737   -0.2934   -0.4973 C.ar    1  UNL1        0.2312
     14 O           3.0460    0.0254    0.7607 O.3     1  UNL1       -0.4373
     15 C           1.8563    0.4569    1.2637 C.ar    1  UNL1        0.1313
     16 C           1.8621    0.7105    2.6529 C.ar    1  UNL1       -0.0165
     17 C           0.7165    1.1432    3.2316 C.ar    1  UNL1       -0.0222
     18 C          -0.4536    1.3392    2.4846 C.ar    1  UNL1        0.1357
     19 F          -1.5738    1.7664    3.0996 F       1  UNL1       -0.2047
     20 C          -0.4827    1.1007    1.1407 C.ar    1  UNL1        0.0756
     21 C          -1.6170    1.2709    0.2677 C.2     1  UNL1        0.2512
     22 O          -1.5201    0.9346   -0.9571 O.2     1  UNL1       -0.2698
     23 N          -2.8895    1.7899    0.6111 N.am    1  UNL1       -0.2799
     24 C          -3.9459    1.9138   -0.3205 C.ar    1  UNL1        0.0554
     25 C          -4.0423    3.1318   -1.0146 C.ar    1  UNL1       -0.0270
     26 C          -5.0226    3.3615   -1.9512 C.ar    1  UNL1        0.0567
     27 C          -5.0775    4.6797   -2.6606 C.3     1  UNL1        0.4175
     28 F          -3.8814    4.8941   -3.3026 F       1  UNL1       -0.1659
     29 F          -5.3744    5.6394   -1.7265 F       1  UNL1       -0.1659
     30 F          -6.1096    4.6517   -3.5829 F       1  UNL1       -0.1659
     31 C          -5.9143    2.3579   -2.1926 C.ar    1  UNL1       -0.0483
     32 C          -5.8217    1.1695   -1.5165 C.ar    1  UNL1       -0.0383
     33 C          -4.8234    0.9127   -0.5510 C.ar    1  UNL1        0.0512
     34 N          -4.7945   -0.3103    0.1042 N.pl3   1  UNL1       -0.3285
     35 C          -5.7447   -1.3440   -0.4049 C.3     1  UNL1        0.0122
     36 C          -5.4132   -2.6710    0.2133 C.3     1  UNL1       -0.0372
     37 C          -3.9542   -3.0063    0.2110 C.3     1  UNL1       -0.0502
     38 C          -3.0771   -1.8479    0.6569 C.3     1  UNL1       -0.0372
     39 C          -4.0269   -0.7800    1.1957 C.3     1  UNL1        0.0122
     40 C           0.7048    0.6547    0.5548 C.ar    1  UNL1       -0.0044
     41 N           6.9080   -1.1936    0.1601 N.ar    1  UNL1       -0.1946
     42 H           9.6916   -3.1495   -0.4731 H       1  UNL1        0.0426
     43 H          10.5241   -1.5274   -0.5661 H       1  UNL1        0.0426
     44 H           8.8002   -1.7097   -1.1094 H       1  UNL1        0.0426
     45 H           9.7958   -1.7417    1.7493 H       1  UNL1        0.1486
     46 H           5.8405   -0.2661    3.6374 H       1  UNL1        0.1049
     47 H           6.0797   -1.3789   -2.2170 H       1  UNL1        0.0627
     48 H           4.4210   -1.2291   -4.0536 H       1  UNL1        0.0633
     49 H           2.1394   -0.4897   -3.5899 H       1  UNL1        0.0831
     50 H           2.7745    0.5575    3.2355 H       1  UNL1        0.0655
     51 H           0.6750    1.3535    4.3118 H       1  UNL1        0.0647
     52 H          -3.0423    2.1156    1.5849 H       1  UNL1        0.1552
     53 H          -3.3315    3.9322   -0.8224 H       1  UNL1        0.0642
     54 H          -6.6941    2.5222   -2.9286 H       1  UNL1        0.0624
     55 H          -6.5492    0.3884   -1.7300 H       1  UNL1        0.0637
     56 H          -5.6442   -1.4164   -1.5108 H       1  UNL1        0.0464
     57 H          -6.7424   -1.0059   -0.0694 H       1  UNL1        0.0464
     58 H          -5.9004   -3.4389   -0.4692 H       1  UNL1        0.0280
     59 H          -5.9216   -2.8527    1.1874 H       1  UNL1        0.0280
     60 H          -3.6794   -3.3713   -0.7982 H       1  UNL1        0.0266
     61 H          -3.8195   -3.8830    0.8920 H       1  UNL1        0.0266
     62 H          -2.5886   -1.4773   -0.2589 H       1  UNL1        0.0280
     63 H          -2.3184   -2.1417    1.3929 H       1  UNL1        0.0280
     64 H          -3.5587   -0.0882    1.8694 H       1  UNL1        0.0464
     65 H          -4.7222   -1.3882    1.8711 H       1  UNL1        0.0464
     66 H           0.7212    0.4541   -0.5120 H       1  UNL1        0.0663
@<TRIPOS>BOND
     1     1     2    1
     2     2     3    1
     3     3     4   ar
     4     4     5   ar
     5     5     6   ar
     6     6     7   ar
     7     7     8    1
     8     8     9   ar
     9     9    10   ar
    10    10    11   ar
    11    11    12   ar
    12    12    13   ar
    13    13    14    1
    14    14    15    1
    15    15    16   ar
    16    16    17   ar
    17    17    18   ar
    18    18    19    1
    19    18    20   ar
    20    20    21    1
    21    21    22    2
    22    21    23   am
    23    23    24    1
    24    24    25   ar
    25    25    26   ar
    26    26    27    1
    27    27    28    1
    28    27    29    1
    29    27    30    1
    30    26    31   ar
    31    31    32   ar
    32    32    33   ar
    33    33    34    1
    34    34    35    1
    35    35    36    1
    36    36    37    1
    37    37    38    1
    38    38    39    1
    39    20    40   ar
    40     7    41   ar
    41    41     3   ar
    42    13     8   ar
    43    40    15   ar
    44    33    24   ar
    45    39    34    1
    46     1    42    1
    47     1    43    1
    48     1    44    1
    49     2    45    1
    50     5    46    1
    51     9    47    1
    52    10    48    1
    53    11    49    1
    54    16    50    1
    55    17    51    1
    56    23    52    1
    57    25    53    1
    58    31    54    1
    59    32    55    1
    60    35    56    1
    61    35    57    1
    62    36    58    1
    63    36    59    1
    64    37    60    1
    65    37    61    1
    66    38    62    1
    67    38    63    1
    68    39    64    1
    69    39    65    1
    70    40    66    1
