
     RDKit          3D

 61 66  0  0  0  0  0  0  0  0999 V2000
   -8.3352   -0.3057    2.7707 C   0  0  0  0  0  0  0  0  0  0  0  0
   -7.2493   -0.9207    2.1337 C   0  0  0  0  0  0  0  0  0  0  0  0
   -6.9199   -0.6420    0.8368 C   0  0  0  0  0  0  0  0  0  0  0  0
   -5.7928   -1.2871    0.2113 C   0  0  0  0  0  0  0  0  0  0  0  0
   -5.7181   -2.4600   -0.5027 C   0  0  0  0  0  0  0  0  0  0  0  0
   -4.4336   -2.6053   -0.8578 N   0  0  0  0  0  0  0  0  0  0  0  0
   -3.6965   -1.6005   -0.4141 N   0  0  0  0  0  0  0  0  0  0  0  0
   -2.3877   -1.2644   -0.4848 C   0  0  0  0  0  0  0  0  0  0  0  0
   -1.8904   -0.1137    0.0978 C   0  0  0  0  0  0  0  0  0  0  0  0
   -0.4769    0.2578    0.0464 C   0  0  0  0  0  0  0  0  0  0  0  0
   -0.1225    1.5867    0.0264 C   0  0  0  0  0  0  0  0  0  0  0  0
    1.2206    1.9044   -0.0015 C   0  0  0  0  0  0  0  0  0  0  0  0
    2.2148    0.9214   -0.0102 C   0  0  0  0  0  0  0  0  0  0  0  0
    3.5516    1.2912   -0.0373 O   0  0  0  0  0  0  0  0  0  0  0  0
    4.6337    0.4091   -0.0477 C   0  0  0  0  0  0  0  0  0  0  0  0
    5.8958    1.2451   -0.0667 C   0  0  0  0  0  0  0  0  0  0  0  0
    7.1068    0.5098   -0.0715 N   0  0  0  0  0  0  0  0  0  0  0  0
    7.4098   -0.2405   -1.2427 C   0  0  0  0  0  0  0  0  0  0  0  0
    8.9411   -0.2282   -1.3711 C   0  0  0  0  0  0  0  0  0  0  0  0
    9.5304   -0.7882   -0.1185 C   0  0  0  0  0  0  0  0  0  0  0  0
    8.5216   -1.2279    0.9090 C   0  0  0  0  0  0  0  0  0  0  0  0
    7.4478   -0.1830    1.1295 C   0  0  0  0  0  0  0  0  0  0  0  0
    1.7908   -0.3907    0.0101 C   0  0  0  0  0  0  0  0  0  0  0  0
    0.4730   -0.7674    0.0384 C   0  0  0  0  0  0  0  0  0  0  0  0
   -2.7368    0.7353    0.7786 C   0  0  0  0  0  0  0  0  0  0  0  0
   -4.0317    0.3800    0.8356 N   0  0  0  0  0  0  0  0  0  0  0  0
   -4.4963   -0.7591    0.2539 C   0  0  0  0  0  0  0  0  0  0  0  0
   -7.6690    0.2656    0.1291 C   0  0  0  0  0  0  0  0  0  0  0  0
   -7.3334    0.5440   -1.1800 C   0  0  0  0  0  0  0  0  0  0  0  0
   -8.0605    1.4492   -1.9229 C   0  0  0  0  0  0  0  0  0  0  0  0
   -9.1274    2.0493   -1.2853 C   0  0  0  0  0  0  0  0  0  0  0  0
   -9.4512    1.7763   -0.0119 N   0  0  0  0  0  0  0  0  0  0  0  0
   -8.7628    0.9016    0.7323 C   0  0  0  0  0  0  0  0  0  0  0  0
   -9.0713    0.6012    2.0412 C   0  0  0  0  0  0  0  0  0  0  0  0
   -8.5405   -0.5646    3.7842 H   0  0  0  0  0  0  0  0  0  0  0  0
   -6.6854   -1.6360    2.7410 H   0  0  0  0  0  0  0  0  0  0  0  0
   -6.5612   -3.1113   -0.7148 H   0  0  0  0  0  0  0  0  0  0  0  0
   -1.7039   -1.9036   -1.0068 H   0  0  0  0  0  0  0  0  0  0  0  0
   -0.8941    2.3729    0.0307 H   0  0  0  0  0  0  0  0  0  0  0  0
    1.5341    2.9455   -0.0193 H   0  0  0  0  0  0  0  0  0  0  0  0
    4.5525   -0.2273   -0.9638 H   0  0  0  0  0  0  0  0  0  0  0  0
    4.6619   -0.2929    0.8112 H   0  0  0  0  0  0  0  0  0  0  0  0
    5.8850    1.8508    0.8804 H   0  0  0  0  0  0  0  0  0  0  0  0
    5.8819    1.9706   -0.9024 H   0  0  0  0  0  0  0  0  0  0  0  0
    6.9310    0.1947   -2.1306 H   0  0  0  0  0  0  0  0  0  0  0  0
    7.1408   -1.3243   -1.1097 H   0  0  0  0  0  0  0  0  0  0  0  0
    9.2110   -0.7959   -2.2877 H   0  0  0  0  0  0  0  0  0  0  0  0
    9.2891    0.8182   -1.5567 H   0  0  0  0  0  0  0  0  0  0  0  0
   10.2861   -0.0822    0.3416 H   0  0  0  0  0  0  0  0  0  0  0  0
   10.1314   -1.6923   -0.3989 H   0  0  0  0  0  0  0  0  0  0  0  0
    8.0762   -2.2026    0.6324 H   0  0  0  0  0  0  0  0  0  0  0  0
    9.0642   -1.3624    1.8659 H   0  0  0  0  0  0  0  0  0  0  0  0
    7.7680    0.5381    1.9247 H   0  0  0  0  0  0  0  0  0  0  0  0
    6.5508   -0.7026    1.5179 H   0  0  0  0  0  0  0  0  0  0  0  0
    2.5221   -1.1874    0.0037 H   0  0  0  0  0  0  0  0  0  0  0  0
    0.1443   -1.8132    0.0545 H   0  0  0  0  0  0  0  0  0  0  0  0
   -2.3549    1.6371    1.2370 H   0  0  0  0  0  0  0  0  0  0  0  0
   -6.4759    0.0375   -1.6400 H   0  0  0  0  0  0  0  0  0  0  0  0
   -7.7824    1.6580   -2.9596 H   0  0  0  0  0  0  0  0  0  0  0  0
   -9.6978    2.7571   -1.8603 H   0  0  0  0  0  0  0  0  0  0  0  0
   -9.9090    1.0742    2.5417 H   0  0  0  0  0  0  0  0  0  0  0  0
  1  2  2  0
  2  3  1  0
  3  4  1  0
  4  5  1  0
  5  6  2  0
  6  7  1  0
  7  8  1  0
  8  9  2  0
  9 10  1  0
 10 11  2  0
 11 12  1  0
 12 13  2  0
 13 14  1  0
 14 15  1  0
 15 16  1  0
 16 17  1  0
 17 18  1  0
 18 19  1  0
 19 20  1  0
 20 21  1  0
 21 22  1  0
 13 23  1  0
 23 24  2  0
  9 25  1  0
 25 26  2  0
 26 27  1  0
  3 28  2  0
 28 29  1  0
 29 30  2  0
 30 31  1  0
 31 32  2  0
 32 33  1  0
 33 34  2  0
 34  1  1  0
 27  4  2  0
 33 28  1  0
 27  7  1  0
 24 10  1  0
 22 17  1  0
  1 35  1  0
  2 36  1  0
  5 37  1  0
  8 38  1  0
 11 39  1  0
 12 40  1  0
 15 41  1  0
 15 42  1  0
 16 43  1  0
 16 44  1  0
 18 45  1  0
 18 46  1  0
 19 47  1  0
 19 48  1  0
 20 49  1  0
 20 50  1  0
 21 51  1  0
 21 52  1  0
 22 53  1  0
 22 54  1  0
 23 55  1  0
 24 56  1  0
 25 57  1  0
 29 58  1  0
 30 59  1  0
 31 60  1  0
 34 61  1  0
M  END
$$$$
