@<TRIPOS>MOLECULE
*****
 61 66 0 0 0
SMALL
GASTEIGER

@<TRIPOS>ATOM
      1 C          -8.3352   -0.3057    2.7707 C.ar    1  UNL1       -0.0591
      2 C          -7.2493   -0.9207    2.1337 C.ar    1  UNL1       -0.0532
      3 C          -6.9199   -0.6420    0.8368 C.ar    1  UNL1       -0.0037
      4 C          -5.7928   -1.2871    0.2113 C.ar    1  UNL1        0.0466
      5 C          -5.7181   -2.4600   -0.5027 C.ar    1  UNL1        0.0597
      6 N          -4.4336   -2.6053   -0.8578 N.ar    1  UNL1       -0.1727
      7 N          -3.6965   -1.6005   -0.4141 N.ar    1  UNL1       -0.2206
      8 C          -2.3877   -1.2644   -0.4848 C.ar    1  UNL1        0.0406
      9 C          -1.8904   -0.1137    0.0978 C.ar    1  UNL1        0.0184
     10 C          -0.4769    0.2578    0.0464 C.ar    1  UNL1       -0.0148
     11 C          -0.1225    1.5867    0.0264 C.ar    1  UNL1       -0.0505
     12 C           1.2206    1.9044   -0.0015 C.ar    1  UNL1       -0.0194
     13 C           2.2148    0.9214   -0.0102 C.ar    1  UNL1        0.1206
     14 O           3.5516    1.2912   -0.0373 O.3     1  UNL1       -0.4907
     15 C           4.6337    0.4091   -0.0477 C.3     1  UNL1        0.1022
     16 C           5.8958    1.2451   -0.0667 C.3     1  UNL1        0.0331
     17 N           7.1068    0.5098   -0.0715 N.3     1  UNL1       -0.2991
     18 C           7.4098   -0.2405   -1.2427 C.3     1  UNL1       -0.0010
     19 C           8.9411   -0.2282   -1.3711 C.3     1  UNL1       -0.0402
     20 C           9.5304   -0.7882   -0.1185 C.3     1  UNL1       -0.0507
     21 C           8.5216   -1.2279    0.9090 C.3     1  UNL1       -0.0402
     22 C           7.4478   -0.1830    1.1295 C.3     1  UNL1       -0.0010
     23 C           1.7908   -0.3907    0.0101 C.ar    1  UNL1       -0.0194
     24 C           0.4730   -0.7674    0.0384 C.ar    1  UNL1       -0.0505
     25 C          -2.7368    0.7353    0.7786 C.ar    1  UNL1        0.0391
     26 N          -4.0317    0.3800    0.8356 N.ar    1  UNL1       -0.2350
     27 C          -4.4963   -0.7591    0.2539 C.ar    1  UNL1        0.1632
     28 C          -7.6690    0.2656    0.1291 C.ar    1  UNL1        0.0082
     29 C          -7.3334    0.5440   -1.1800 C.ar    1  UNL1       -0.0506
     30 C          -8.0605    1.4492   -1.9229 C.ar    1  UNL1       -0.0430
     31 C          -9.1274    2.0493   -1.2853 C.ar    1  UNL1        0.0283
     32 N          -9.4512    1.7763   -0.0119 N.ar    1  UNL1       -0.2550
     33 C          -8.7628    0.9016    0.7323 C.ar    1  UNL1        0.0715
     34 C          -9.0713    0.6012    2.0412 C.ar    1  UNL1       -0.0357
     35 H          -8.5405   -0.5646    3.7842 H       1  UNL1        0.0618
     36 H          -6.6854   -1.6360    2.7410 H       1  UNL1        0.0624
     37 H          -6.5612   -3.1113   -0.7148 H       1  UNL1        0.0855
     38 H          -1.7039   -1.9036   -1.0068 H       1  UNL1        0.0837
     39 H          -0.8941    2.3729    0.0307 H       1  UNL1        0.0625
     40 H           1.5341    2.9455   -0.0193 H       1  UNL1        0.0654
     41 H           4.5525   -0.2273   -0.9638 H       1  UNL1        0.0709
     42 H           4.6619   -0.2929    0.8112 H       1  UNL1        0.0709
     43 H           5.8850    1.8508    0.8804 H       1  UNL1        0.0460
     44 H           5.8819    1.9706   -0.9024 H       1  UNL1        0.0460
     45 H           6.9310    0.1947   -2.1306 H       1  UNL1        0.0427
     46 H           7.1408   -1.3243   -1.1097 H       1  UNL1        0.0427
     47 H           9.2110   -0.7959   -2.2877 H       1  UNL1        0.0278
     48 H           9.2891    0.8182   -1.5567 H       1  UNL1        0.0278
     49 H          10.2861   -0.0822    0.3416 H       1  UNL1        0.0266
     50 H          10.1314   -1.6923   -0.3989 H       1  UNL1        0.0266
     51 H           8.0762   -2.2026    0.6324 H       1  UNL1        0.0278
     52 H           9.0642   -1.3624    1.8659 H       1  UNL1        0.0278
     53 H           7.7680    0.5381    1.9247 H       1  UNL1        0.0427
     54 H           6.5508   -0.7026    1.5179 H       1  UNL1        0.0427
     55 H           2.5221   -1.1874    0.0037 H       1  UNL1        0.0654
     56 H           0.1443   -1.8132    0.0545 H       1  UNL1        0.0625
     57 H          -2.3549    1.6371    1.2370 H       1  UNL1        0.0837
     58 H          -6.4759    0.0375   -1.6400 H       1  UNL1        0.0625
     59 H          -7.7824    1.6580   -2.9596 H       1  UNL1        0.0633
     60 H          -9.6978    2.7571   -1.8603 H       1  UNL1        0.0830
     61 H          -9.9090    1.0742    2.5417 H       1  UNL1        0.0639
@<TRIPOS>BOND
     1     1     2   ar
     2     2     3   ar
     3     3     4    1
     4     4     5   ar
     5     5     6   ar
     6     6     7   ar
     7     7     8   ar
     8     8     9   ar
     9     9    10    1
    10    10    11   ar
    11    11    12   ar
    12    12    13   ar
    13    13    14    1
    14    14    15    1
    15    15    16    1
    16    16    17    1
    17    17    18    1
    18    18    19    1
    19    19    20    1
    20    20    21    1
    21    21    22    1
    22    13    23   ar
    23    23    24   ar
    24     9    25   ar
    25    25    26   ar
    26    26    27   ar
    27     3    28   ar
    28    28    29   ar
    29    29    30   ar
    30    30    31   ar
    31    31    32   ar
    32    32    33   ar
    33    33    34   ar
    34    34     1   ar
    35    27     4   ar
    36    33    28   ar
    37    27     7   ar
    38    24    10   ar
    39    22    17    1
    40     1    35    1
    41     2    36    1
    42     5    37    1
    43     8    38    1
    44    11    39    1
    45    12    40    1
    46    15    41    1
    47    15    42    1
    48    16    43    1
    49    16    44    1
    50    18    45    1
    51    18    46    1
    52    19    47    1
    53    19    48    1
    54    20    49    1
    55    20    50    1
    56    21    51    1
    57    21    52    1
    58    22    53    1
    59    22    54    1
    60    23    55    1
    61    24    56    1
    62    25    57    1
    63    29    58    1
    64    30    59    1
    65    31    60    1
    66    34    61    1
