@<TRIPOS>MOLECULE
*****
 37 40 0 0 0
SMALL
GASTEIGER

@<TRIPOS>ATOM
      1 C           4.2785   -0.4851    1.8365 C.3     1  UNL1       -0.0041
      2 C           4.1779    0.3074    0.5888 C.ar    1  UNL1        0.1346
      3 N           5.1575    1.0533    0.0571 N.ar    1  UNL1       -0.1340
      4 N           4.6828    1.5984   -1.0438 N.ar    1  UNL1       -0.1294
      5 C           3.4106    1.1955   -1.2014 C.ar    1  UNL1        0.1611
      6 C           2.4918    1.4858   -2.1865 C.ar    1  UNL1       -0.0164
      7 C           1.2029    0.9402   -2.1404 C.ar    1  UNL1       -0.0491
      8 C           0.8691    0.1091   -1.0947 C.ar    1  UNL1       -0.0005
      9 C          -0.4743   -0.5093   -0.9958 C.ar    1  UNL1       -0.0039
     10 C          -0.8382   -1.5150   -1.8530 C.ar    1  UNL1       -0.0532
     11 C          -2.0415   -2.1471   -1.8105 C.ar    1  UNL1       -0.0593
     12 C          -2.9279   -1.7327   -0.8392 C.ar    1  UNL1       -0.0346
     13 C          -2.6241   -0.7097    0.0719 C.ar    1  UNL1        0.1163
     14 S          -3.8171   -0.2976    1.2392 S.O2    1  UNL1        0.0566
     15 N          -5.3094   -1.1718    0.8320 N.3     1  UNL1       -0.2035
     16 O          -3.4670   -0.8003    2.6369 O.2     1  UNL1       -0.1532
     17 O          -4.2435    1.1209    1.2742 O.2     1  UNL1       -0.1532
     18 C          -1.3895   -0.0944   -0.0079 C.ar    1  UNL1        0.0545
     19 C          -0.9526    1.0290    0.7890 C.ar    1  UNL1        0.1818
     20 N           0.0252    1.8839    0.3627 N.ar    1  UNL1       -0.1083
     21 N           0.2098    2.8544    1.1949 N.ar    1  UNL1       -0.0229
     22 N          -0.6299    2.6613    2.1722 N.ar    1  UNL1       -0.0464
     23 N          -1.3542    1.5350    1.9335 N.ar    1  UNL1       -0.2388
     24 C           1.8362   -0.1412   -0.1407 C.ar    1  UNL1        0.0206
     25 N           3.0728    0.3751   -0.1739 N.ar    1  UNL1       -0.2860
     26 H           4.3039    0.2032    2.7165 H       1  UNL1        0.0308
     27 H           5.1705   -1.1694    1.8323 H       1  UNL1        0.0308
     28 H           3.4028   -1.1877    1.9381 H       1  UNL1        0.0308
     29 H           2.7229    2.1372   -3.0250 H       1  UNL1        0.0655
     30 H           0.4886    1.1653   -2.9062 H       1  UNL1        0.0625
     31 H          -0.1290   -1.8290   -2.6111 H       1  UNL1        0.0624
     32 H          -2.3328   -2.9457   -2.4895 H       1  UNL1        0.0618
     33 H          -3.9117   -2.2101   -0.7594 H       1  UNL1        0.0637
     34 H          -5.0725   -2.1664    0.9364 H       1  UNL1        0.1442
     35 H          -5.4786   -0.9390   -0.1713 H       1  UNL1        0.1442
     36 H          -2.0669    1.1972    2.6124 H       1  UNL1        0.1923
     37 H           1.5568   -0.8008    0.6799 H       1  UNL1        0.0820
@<TRIPOS>BOND
     1     1     2    1
     2     2     3   ar
     3     3     4   ar
     4     4     5   ar
     5     5     6   ar
     6     6     7   ar
     7     7     8   ar
     8     8     9    1
     9     9    10   ar
    10    10    11   ar
    11    11    12   ar
    12    12    13   ar
    13    13    14    1
    14    14    15    1
    15    14    16    2
    16    14    17    2
    17    13    18   ar
    18    18    19    1
    19    19    20   ar
    20    20    21   ar
    21    21    22   ar
    22    22    23   ar
    23     8    24   ar
    24    24    25   ar
    25    25     2   ar
    26    25     5   ar
    27    18     9   ar
    28    23    19   ar
    29     1    26    1
    30     1    27    1
    31     1    28    1
    32     6    29    1
    33     7    30    1
    34    10    31    1
    35    11    32    1
    36    12    33    1
    37    15    34    1
    38    15    35    1
    39    23    36    1
    40    24    37    1
