@<TRIPOS>MOLECULE
*****
 55 59 0 0 0
SMALL
GASTEIGER

@<TRIPOS>ATOM
      1 C           9.2788   -0.5408   -1.9329 C.ar    1  UNL1        0.0281
      2 C           8.3287   -0.2627   -0.9580 C.ar    1  UNL1       -0.0357
      3 C           7.0882    0.2316   -1.2727 C.ar    1  UNL1       -0.0100
      4 C           6.1352    0.5066   -0.1959 C.ar    1  UNL1        0.0461
      5 C           6.3654    1.1638    0.9914 C.ar    1  UNL1        0.0596
      6 N           5.2312    1.2016    1.6887 N.ar    1  UNL1       -0.1727
      7 N           4.2799    0.5979    1.0041 N.ar    1  UNL1       -0.2206
      8 C           2.9858    0.3704    1.2641 C.ar    1  UNL1        0.0406
      9 C           2.1504   -0.3061    0.3756 C.ar    1  UNL1        0.0184
     10 C           0.7569   -0.5056    0.7531 C.ar    1  UNL1       -0.0148
     11 C           0.0584   -1.6045    0.3418 C.ar    1  UNL1       -0.0505
     12 C          -1.2516   -1.8109    0.6895 C.ar    1  UNL1       -0.0194
     13 C          -1.9540   -0.8977    1.4935 C.ar    1  UNL1        0.1206
     14 O          -3.2512   -1.1756    1.7987 O.3     1  UNL1       -0.4907
     15 C          -4.1706   -0.4538    2.5314 C.3     1  UNL1        0.1022
     16 C          -4.5963    0.8626    1.9917 C.3     1  UNL1        0.0331
     17 N          -5.2277    0.7962    0.7013 N.3     1  UNL1       -0.2991
     18 C          -6.5161    0.1499    0.7308 C.3     1  UNL1       -0.0010
     19 C          -7.2978    0.7226   -0.4605 C.3     1  UNL1       -0.0402
     20 C          -6.5563    0.1786   -1.6884 C.3     1  UNL1       -0.0507
     21 C          -5.1398    0.6617   -1.6817 C.3     1  UNL1       -0.0402
     22 C          -4.4056    0.3948   -0.3838 C.3     1  UNL1       -0.0010
     23 C          -1.2288    0.1974    1.8934 C.ar    1  UNL1       -0.0194
     24 C           0.1006    0.4019    1.5372 C.ar    1  UNL1       -0.0505
     25 C           2.6980   -0.7471   -0.8071 C.ar    1  UNL1        0.0391
     26 N           3.9936   -0.5041   -1.0370 N.ar    1  UNL1       -0.2350
     27 C           4.7836    0.1547   -0.1579 C.ar    1  UNL1        0.1632
     28 C           6.8066    0.4473   -2.5976 C.ar    1  UNL1       -0.0357
     29 C           7.7489    0.1743   -3.5952 C.ar    1  UNL1        0.0281
     30 N           8.9547   -0.3124   -3.2156 N.ar    1  UNL1       -0.2632
     31 H          10.2493   -0.9286   -1.6790 H       1  UNL1        0.0830
     32 H           8.5973   -0.4494    0.0742 H       1  UNL1        0.0639
     33 H           7.3140    1.5693    1.2812 H       1  UNL1        0.0855
     34 H           2.6052    0.7415    2.2144 H       1  UNL1        0.0837
     35 H           0.5101   -2.3840   -0.2916 H       1  UNL1        0.0625
     36 H          -1.7837   -2.6974    0.3472 H       1  UNL1        0.0654
     37 H          -5.0384   -1.0924    2.8446 H       1  UNL1        0.0709
     38 H          -3.6776   -0.2262    3.5374 H       1  UNL1        0.0709
     39 H          -3.7861    1.5762    1.9278 H       1  UNL1        0.0460
     40 H          -5.3935    1.2727    2.6877 H       1  UNL1        0.0460
     41 H          -7.0291    0.4049    1.6567 H       1  UNL1        0.0427
     42 H          -6.4705   -0.9318    0.6110 H       1  UNL1        0.0427
     43 H          -7.1549    1.8254   -0.4968 H       1  UNL1        0.0278
     44 H          -8.3453    0.4008   -0.4540 H       1  UNL1        0.0278
     45 H          -7.0600    0.6687   -2.5613 H       1  UNL1        0.0266
     46 H          -6.6723   -0.9034   -1.7186 H       1  UNL1        0.0266
     47 H          -5.1403    1.7543   -1.8576 H       1  UNL1        0.0278
     48 H          -4.6195    0.1917   -2.5431 H       1  UNL1        0.0278
     49 H          -3.4928    1.0200   -0.4006 H       1  UNL1        0.0427
     50 H          -4.1396   -0.6831   -0.3786 H       1  UNL1        0.0427
     51 H          -1.7202    0.9329    2.5398 H       1  UNL1        0.0654
     52 H           0.6219    1.2763    1.8770 H       1  UNL1        0.0625
     53 H           2.0579   -1.2737   -1.5054 H       1  UNL1        0.0837
     54 H           5.8541    0.8304   -2.8807 H       1  UNL1        0.0639
     55 H           7.5649    0.3301   -4.6336 H       1  UNL1        0.0830
@<TRIPOS>BOND
     1     1     2   ar
     2     2     3   ar
     3     3     4    1
     4     4     5   ar
     5     5     6   ar
     6     6     7   ar
     7     7     8   ar
     8     8     9   ar
     9     9    10    1
    10    10    11   ar
    11    11    12   ar
    12    12    13   ar
    13    13    14    1
    14    14    15    1
    15    15    16    1
    16    16    17    1
    17    17    18    1
    18    18    19    1
    19    19    20    1
    20    20    21    1
    21    21    22    1
    22    13    23   ar
    23    23    24   ar
    24     9    25   ar
    25    25    26   ar
    26    26    27   ar
    27     3    28   ar
    28    28    29   ar
    29    29    30   ar
    30    30     1   ar
    31    27     4   ar
    32    27     7   ar
    33    24    10   ar
    34    22    17    1
    35     1    31    1
    36     2    32    1
    37     5    33    1
    38     8    34    1
    39    11    35    1
    40    12    36    1
    41    15    37    1
    42    15    38    1
    43    16    39    1
    44    16    40    1
    45    18    41    1
    46    18    42    1
    47    19    43    1
    48    19    44    1
    49    20    45    1
    50    20    46    1
    51    21    47    1
    52    21    48    1
    53    22    49    1
    54    22    50    1
    55    23    51    1
    56    24    52    1
    57    25    53    1
    58    28    54    1
    59    29    55    1
