
     RDKit          3D

 55 59  0  0  0  0  0  0  0  0999 V2000
    9.2788   -0.5408   -1.9329 C   0  0  0  0  0  0  0  0  0  0  0  0
    8.3287   -0.2627   -0.9580 C   0  0  0  0  0  0  0  0  0  0  0  0
    7.0882    0.2316   -1.2727 C   0  0  0  0  0  0  0  0  0  0  0  0
    6.1352    0.5066   -0.1959 C   0  0  0  0  0  0  0  0  0  0  0  0
    6.3654    1.1638    0.9914 C   0  0  0  0  0  0  0  0  0  0  0  0
    5.2312    1.2016    1.6887 N   0  0  0  0  0  0  0  0  0  0  0  0
    4.2799    0.5979    1.0041 N   0  0  0  0  0  0  0  0  0  0  0  0
    2.9858    0.3704    1.2641 C   0  0  0  0  0  0  0  0  0  0  0  0
    2.1504   -0.3061    0.3756 C   0  0  0  0  0  0  0  0  0  0  0  0
    0.7569   -0.5056    0.7531 C   0  0  0  0  0  0  0  0  0  0  0  0
    0.0584   -1.6045    0.3418 C   0  0  0  0  0  0  0  0  0  0  0  0
   -1.2516   -1.8109    0.6895 C   0  0  0  0  0  0  0  0  0  0  0  0
   -1.9540   -0.8977    1.4935 C   0  0  0  0  0  0  0  0  0  0  0  0
   -3.2512   -1.1756    1.7987 O   0  0  0  0  0  0  0  0  0  0  0  0
   -4.1706   -0.4538    2.5314 C   0  0  0  0  0  0  0  0  0  0  0  0
   -4.5963    0.8626    1.9917 C   0  0  0  0  0  0  0  0  0  0  0  0
   -5.2277    0.7962    0.7013 N   0  0  0  0  0  0  0  0  0  0  0  0
   -6.5161    0.1499    0.7308 C   0  0  0  0  0  0  0  0  0  0  0  0
   -7.2978    0.7226   -0.4605 C   0  0  0  0  0  0  0  0  0  0  0  0
   -6.5563    0.1786   -1.6884 C   0  0  0  0  0  0  0  0  0  0  0  0
   -5.1398    0.6617   -1.6817 C   0  0  0  0  0  0  0  0  0  0  0  0
   -4.4056    0.3948   -0.3838 C   0  0  0  0  0  0  0  0  0  0  0  0
   -1.2288    0.1974    1.8934 C   0  0  0  0  0  0  0  0  0  0  0  0
    0.1006    0.4019    1.5372 C   0  0  0  0  0  0  0  0  0  0  0  0
    2.6980   -0.7471   -0.8071 C   0  0  0  0  0  0  0  0  0  0  0  0
    3.9936   -0.5041   -1.0370 N   0  0  0  0  0  0  0  0  0  0  0  0
    4.7836    0.1547   -0.1579 C   0  0  0  0  0  0  0  0  0  0  0  0
    6.8066    0.4473   -2.5976 C   0  0  0  0  0  0  0  0  0  0  0  0
    7.7489    0.1743   -3.5952 C   0  0  0  0  0  0  0  0  0  0  0  0
    8.9547   -0.3124   -3.2156 N   0  0  0  0  0  0  0  0  0  0  0  0
   10.2493   -0.9286   -1.6790 H   0  0  0  0  0  0  0  0  0  0  0  0
    8.5973   -0.4494    0.0742 H   0  0  0  0  0  0  0  0  0  0  0  0
    7.3140    1.5693    1.2812 H   0  0  0  0  0  0  0  0  0  0  0  0
    2.6052    0.7415    2.2144 H   0  0  0  0  0  0  0  0  0  0  0  0
    0.5101   -2.3840   -0.2916 H   0  0  0  0  0  0  0  0  0  0  0  0
   -1.7837   -2.6974    0.3472 H   0  0  0  0  0  0  0  0  0  0  0  0
   -5.0384   -1.0924    2.8446 H   0  0  0  0  0  0  0  0  0  0  0  0
   -3.6776   -0.2262    3.5374 H   0  0  0  0  0  0  0  0  0  0  0  0
   -3.7861    1.5762    1.9278 H   0  0  0  0  0  0  0  0  0  0  0  0
   -5.3935    1.2727    2.6877 H   0  0  0  0  0  0  0  0  0  0  0  0
   -7.0291    0.4049    1.6567 H   0  0  0  0  0  0  0  0  0  0  0  0
   -6.4705   -0.9318    0.6110 H   0  0  0  0  0  0  0  0  0  0  0  0
   -7.1549    1.8254   -0.4968 H   0  0  0  0  0  0  0  0  0  0  0  0
   -8.3453    0.4008   -0.4540 H   0  0  0  0  0  0  0  0  0  0  0  0
   -7.0600    0.6687   -2.5613 H   0  0  0  0  0  0  0  0  0  0  0  0
   -6.6723   -0.9034   -1.7186 H   0  0  0  0  0  0  0  0  0  0  0  0
   -5.1403    1.7543   -1.8576 H   0  0  0  0  0  0  0  0  0  0  0  0
   -4.6195    0.1917   -2.5431 H   0  0  0  0  0  0  0  0  0  0  0  0
   -3.4928    1.0200   -0.4006 H   0  0  0  0  0  0  0  0  0  0  0  0
   -4.1396   -0.6831   -0.3786 H   0  0  0  0  0  0  0  0  0  0  0  0
   -1.7202    0.9329    2.5398 H   0  0  0  0  0  0  0  0  0  0  0  0
    0.6219    1.2763    1.8770 H   0  0  0  0  0  0  0  0  0  0  0  0
    2.0579   -1.2737   -1.5054 H   0  0  0  0  0  0  0  0  0  0  0  0
    5.8541    0.8304   -2.8807 H   0  0  0  0  0  0  0  0  0  0  0  0
    7.5649    0.3301   -4.6336 H   0  0  0  0  0  0  0  0  0  0  0  0
  1  2  2  0
  2  3  1  0
  3  4  1  0
  4  5  1  0
  5  6  2  0
  6  7  1  0
  7  8  1  0
  8  9  2  0
  9 10  1  0
 10 11  2  0
 11 12  1  0
 12 13  2  0
 13 14  1  0
 14 15  1  0
 15 16  1  0
 16 17  1  0
 17 18  1  0
 18 19  1  0
 19 20  1  0
 20 21  1  0
 21 22  1  0
 13 23  1  0
 23 24  2  0
  9 25  1  0
 25 26  2  0
 26 27  1  0
  3 28  2  0
 28 29  1  0
 29 30  2  0
 30  1  1  0
 27  4  2  0
 27  7  1  0
 24 10  1  0
 22 17  1  0
  1 31  1  0
  2 32  1  0
  5 33  1  0
  8 34  1  0
 11 35  1  0
 12 36  1  0
 15 37  1  0
 15 38  1  0
 16 39  1  0
 16 40  1  0
 18 41  1  0
 18 42  1  0
 19 43  1  0
 19 44  1  0
 20 45  1  0
 20 46  1  0
 21 47  1  0
 21 48  1  0
 22 49  1  0
 22 50  1  0
 23 51  1  0
 24 52  1  0
 25 53  1  0
 28 54  1  0
 29 55  1  0
M  END
$$$$
