
     RDKit          3D

 53 55  0  0  0  0  0  0  0  0999 V2000
    8.2969   -1.1591    0.5112 C   0  0  0  0  0  0  0  0  0  0  0  0
    7.5710   -0.7849    1.6813 N   0  0  0  0  0  0  0  0  0  0  0  0
    6.1759   -1.7608    1.9611 S   0  0  0  0  0  6  0  0  0  0  0  0
    5.4904   -1.2406    3.2063 O   0  0  0  0  0  0  0  0  0  0  0  0
    6.5120   -3.1950    2.2037 O   0  0  0  0  0  0  0  0  0  0  0  0
    5.0379   -1.6453    0.6858 N   0  0  0  0  0  0  0  0  0  0  0  0
    4.4567   -0.3688    0.4079 C   0  0  0  0  0  0  0  0  0  0  0  0
    3.5084   -0.2722   -0.6284 C   0  0  0  0  0  0  0  0  0  0  0  0
    2.9274    0.9294   -0.9098 C   0  0  0  0  0  0  0  0  0  0  0  0
    1.9244    1.0826   -1.9647 C   0  0  0  0  0  0  0  0  0  0  0  0
    0.5367    1.0601   -1.4747 C   0  0  0  0  0  0  0  0  0  0  0  0
   -0.1345   -0.0891   -1.1630 C   0  0  0  0  0  0  0  0  0  0  0  0
    0.4674   -1.4060   -1.3897 C   0  0  0  0  0  0  0  0  0  0  0  0
   -1.4416   -0.0552   -0.6493 C   0  0  0  0  0  0  0  0  0  0  0  0
   -2.1346   -1.1935   -0.3227 C   0  0  0  0  0  0  0  0  0  0  0  0
   -3.4126   -1.0934    0.1796 C   0  0  0  0  0  0  0  0  0  0  0  0
   -4.0354    0.1295    0.3712 C   0  0  0  0  0  0  0  0  0  0  0  0
   -5.3230    0.2150    0.8784 O   0  0  0  0  0  0  0  0  0  0  0  0
   -6.3801    0.2000   -0.0234 C   0  0  0  0  0  0  0  0  0  0  0  0
   -6.1149    0.1101   -1.2579 O   0  0  0  0  0  0  0  0  0  0  0  0
   -7.7335    0.2810    0.3882 N   0  0  0  0  0  0  0  0  0  0  0  0
   -8.7873    0.2599   -0.5739 C   0  0  0  0  0  0  0  0  0  0  0  0
   -7.9887    0.3849    1.8084 C   0  0  0  0  0  0  0  0  0  0  0  0
   -3.3042    1.2474    0.0308 C   0  0  0  0  0  0  0  0  0  0  0  0
   -2.0087    1.1957   -0.4799 C   0  0  0  0  0  0  0  0  0  0  0  0
   -1.3640    2.3064   -0.7825 O   0  0  0  0  0  0  0  0  0  0  0  0
   -0.1473    2.2601   -1.2586 C   0  0  0  0  0  0  0  0  0  0  0  0
    0.4575    3.3176   -1.5429 O   0  0  0  0  0  0  0  0  0  0  0  0
    3.2891    2.0302   -0.1645 C   0  0  0  0  0  0  0  0  0  0  0  0
    4.2376    1.9126    0.8648 C   0  0  0  0  0  0  0  0  0  0  0  0
    4.7835    0.7224    1.1112 N   0  0  0  0  0  0  0  0  0  0  0  0
    8.0252   -2.1649    0.1284 H   0  0  0  0  0  0  0  0  0  0  0  0
    8.2030   -0.4506   -0.3382 H   0  0  0  0  0  0  0  0  0  0  0  0
    9.3755   -1.2208    0.7604 H   0  0  0  0  0  0  0  0  0  0  0  0
    8.1894   -0.7604    2.4951 H   0  0  0  0  0  0  0  0  0  0  0  0
    4.7917   -2.4875    0.1433 H   0  0  0  0  0  0  0  0  0  0  0  0
    3.3206   -1.1865   -1.1361 H   0  0  0  0  0  0  0  0  0  0  0  0
    2.1139    0.3821   -2.8182 H   0  0  0  0  0  0  0  0  0  0  0  0
    2.0386    2.0993   -2.4743 H   0  0  0  0  0  0  0  0  0  0  0  0
    1.0031   -1.8312   -0.5203 H   0  0  0  0  0  0  0  0  0  0  0  0
   -0.2824   -2.1374   -1.7771 H   0  0  0  0  0  0  0  0  0  0  0  0
    1.2583   -1.2764   -2.1931 H   0  0  0  0  0  0  0  0  0  0  0  0
   -1.6942   -2.1547   -0.4455 H   0  0  0  0  0  0  0  0  0  0  0  0
   -3.9473   -2.0175    0.4336 H   0  0  0  0  0  0  0  0  0  0  0  0
   -8.7289    1.0587   -1.3419 H   0  0  0  0  0  0  0  0  0  0  0  0
   -8.7727   -0.7084   -1.1424 H   0  0  0  0  0  0  0  0  0  0  0  0
   -9.7858    0.3735   -0.1013 H   0  0  0  0  0  0  0  0  0  0  0  0
   -8.2502    1.4004    2.1073 H   0  0  0  0  0  0  0  0  0  0  0  0
   -7.0950    0.0573    2.4037 H   0  0  0  0  0  0  0  0  0  0  0  0
   -8.7943   -0.3404    2.0579 H   0  0  0  0  0  0  0  0  0  0  0  0
   -3.7529    2.2017    0.1651 H   0  0  0  0  0  0  0  0  0  0  0  0
    2.8883    3.0236   -0.3098 H   0  0  0  0  0  0  0  0  0  0  0  0
    4.5337    2.7594    1.4578 H   0  0  0  0  0  0  0  0  0  0  0  0
  1  2  1  0
  2  3  1  0
  3  4  2  0
  3  5  2  0
  3  6  1  0
  6  7  1  0
  7  8  2  0
  8  9  1  0
  9 10  1  0
 10 11  1  0
 11 12  2  0
 12 13  1  0
 12 14  1  0
 14 15  2  0
 15 16  1  0
 16 17  2  0
 17 18  1  0
 18 19  1  0
 19 20  2  0
 19 21  1  0
 21 22  1  0
 21 23  1  0
 17 24  1  0
 24 25  2  0
 25 26  1  0
 26 27  1  0
 27 28  2  0
  9 29  2  0
 29 30  1  0
 30 31  2  0
 31  7  1  0
 27 11  1  0
 25 14  1  0
  1 32  1  0
  1 33  1  0
  1 34  1  0
  2 35  1  0
  6 36  1  0
  8 37  1  0
 10 38  1  0
 10 39  1  0
 13 40  1  0
 13 41  1  0
 13 42  1  0
 15 43  1  0
 16 44  1  0
 22 45  1  0
 22 46  1  0
 22 47  1  0
 23 48  1  0
 23 49  1  0
 23 50  1  0
 24 51  1  0
 29 52  1  0
 30 53  1  0
M  END
$$$$
