@<TRIPOS>MOLECULE
*****
 53 55 0 0 0
SMALL
GASTEIGER

@<TRIPOS>ATOM
      1 C           8.2969   -1.1591    0.5112 C.3     1  UNL1        0.0071
      2 N           7.5710   -0.7849    1.6813 N.3     1  UNL1       -0.1802
      3 S           6.1759   -1.7608    1.9611 S.O2    1  UNL1        0.1101
      4 O           5.4904   -1.2406    3.2063 O.2     1  UNL1       -0.1381
      5 O           6.5120   -3.1950    2.2037 O.2     1  UNL1       -0.1381
      6 N           5.0379   -1.6453    0.6858 N.pl3   1  UNL1       -0.1897
      7 C           4.4567   -0.3688    0.4079 C.ar    1  UNL1        0.1388
      8 C           3.5084   -0.2722   -0.6284 C.ar    1  UNL1       -0.0169
      9 C           2.9274    0.9294   -0.9098 C.ar    1  UNL1       -0.0381
     10 C           1.9244    1.0826   -1.9647 C.3     1  UNL1        0.0048
     11 C           0.5367    1.0601   -1.4747 C.ar    1  UNL1        0.0448
     12 C          -0.1345   -0.0891   -1.1630 C.ar    1  UNL1       -0.0295
     13 C           0.4674   -1.4060   -1.3897 C.3     1  UNL1       -0.0385
     14 C          -1.4416   -0.0552   -0.6493 C.ar    1  UNL1        0.0210
     15 C          -2.1346   -1.1935   -0.3227 C.ar    1  UNL1       -0.0473
     16 C          -3.4126   -1.0934    0.1796 C.ar    1  UNL1       -0.0184
     17 C          -4.0354    0.1295    0.3712 C.ar    1  UNL1        0.1368
     18 O          -5.3230    0.2150    0.8784 O.3     1  UNL1       -0.4113
     19 C          -6.3801    0.2000   -0.0234 C.2     1  UNL1        0.4077
     20 O          -6.1149    0.1101   -1.2579 O.2     1  UNL1       -0.2258
     21 N          -7.7335    0.2810    0.3882 N.am    1  UNL1       -0.2732
     22 C          -8.7873    0.2599   -0.5739 C.3     1  UNL1        0.0060
     23 C          -7.9887    0.3849    1.8084 C.3     1  UNL1        0.0060
     24 C          -3.3042    1.2474    0.0308 C.ar    1  UNL1        0.0239
     25 C          -2.0087    1.1957   -0.4799 C.ar    1  UNL1        0.1428
     26 O          -1.3640    2.3064   -0.7825 O.2     1  UNL1       -0.4218
     27 C          -0.1473    2.2601   -1.2586 C.ar    1  UNL1        0.3410
     28 O           0.4575    3.3176   -1.5429 O.2     1  UNL1       -0.2449
     29 C           3.2891    2.0302   -0.1645 C.ar    1  UNL1       -0.0400
     30 C           4.2376    1.9126    0.8648 C.ar    1  UNL1        0.0300
     31 N           4.7835    0.7224    1.1112 N.ar    1  UNL1       -0.2390
     32 H           8.0252   -2.1649    0.1284 H       1  UNL1        0.0406
     33 H           8.2030   -0.4506   -0.3382 H       1  UNL1        0.0406
     34 H           9.3755   -1.2208    0.7604 H       1  UNL1        0.0406
     35 H           8.1894   -0.7604    2.4951 H       1  UNL1        0.1490
     36 H           4.7917   -2.4875    0.1433 H       1  UNL1        0.1763
     37 H           3.3206   -1.1865   -1.1361 H       1  UNL1        0.0655
     38 H           2.1139    0.3821   -2.8182 H       1  UNL1        0.0364
     39 H           2.0386    2.0993   -2.4743 H       1  UNL1        0.0364
     40 H           1.0031   -1.8312   -0.5203 H       1  UNL1        0.0278
     41 H          -0.2824   -2.1374   -1.7771 H       1  UNL1        0.0278
     42 H           1.2583   -1.2764   -2.1931 H       1  UNL1        0.0278
     43 H          -1.6942   -2.1547   -0.4455 H       1  UNL1        0.0626
     44 H          -3.9473   -2.0175    0.4336 H       1  UNL1        0.0654
     45 H          -8.7289    1.0587   -1.3419 H       1  UNL1        0.0429
     46 H          -8.7727   -0.7084   -1.1424 H       1  UNL1        0.0429
     47 H          -9.7858    0.3735   -0.1013 H       1  UNL1        0.0429
     48 H          -8.2502    1.4004    2.1073 H       1  UNL1        0.0429
     49 H          -7.0950    0.0573    2.4037 H       1  UNL1        0.0429
     50 H          -8.7943   -0.3404    2.0579 H       1  UNL1        0.0429
     51 H          -3.7529    2.2017    0.1651 H       1  UNL1        0.0691
     52 H           2.8883    3.0236   -0.3098 H       1  UNL1        0.0635
     53 H           4.5337    2.7594    1.4578 H       1  UNL1        0.0830
@<TRIPOS>BOND
     1     1     2    1
     2     2     3    1
     3     3     4    2
     4     3     5    2
     5     3     6    1
     6     6     7    1
     7     7     8   ar
     8     8     9   ar
     9     9    10    1
    10    10    11    1
    11    11    12   ar
    12    12    13    1
    13    12    14   ar
    14    14    15   ar
    15    15    16   ar
    16    16    17   ar
    17    17    18    1
    18    18    19    1
    19    19    20    2
    20    19    21   am
    21    21    22    1
    22    21    23    1
    23    17    24   ar
    24    24    25   ar
    25    25    26   ar
    26    26    27   ar
    27    27    28    2
    28     9    29   ar
    29    29    30   ar
    30    30    31   ar
    31    31     7   ar
    32    27    11   ar
    33    25    14   ar
    34     1    32    1
    35     1    33    1
    36     1    34    1
    37     2    35    1
    38     6    36    1
    39     8    37    1
    40    10    38    1
    41    10    39    1
    42    13    40    1
    43    13    41    1
    44    13    42    1
    45    15    43    1
    46    16    44    1
    47    22    45    1
    48    22    46    1
    49    22    47    1
    50    23    48    1
    51    23    49    1
    52    23    50    1
    53    24    51    1
    54    29    52    1
    55    30    53    1
