@<TRIPOS>MOLECULE
*****
 58 62 0 0 0
SMALL
GASTEIGER

@<TRIPOS>ATOM
      1 C          -3.4223    1.9542    3.7757 C.3     1  UNL1       -0.0397
      2 C          -3.6681    1.2183    2.5057 C.ar    1  UNL1       -0.0496
      3 C          -4.8800    1.4280    1.8808 C.ar    1  UNL1       -0.0567
      4 C          -5.1315    0.7516    0.6938 C.ar    1  UNL1       -0.0336
      5 C          -4.2073   -0.1089    0.1415 C.ar    1  UNL1        0.0982
      6 N          -4.4618   -0.8044   -1.0708 N.ar    1  UNL1       -0.1496
      7 N          -4.1883   -0.4636   -2.3072 N.ar    1  UNL1       -0.1556
      8 C          -4.6215   -1.4457   -3.1192 C.ar    1  UNL1        0.0697
      9 C          -5.1787   -2.4146   -2.3188 C.ar    1  UNL1        0.0697
     10 N          -5.0645   -1.9902   -1.0674 N.ar    1  UNL1       -0.1556
     11 C          -3.0042   -0.3082    0.7747 C.ar    1  UNL1        0.0642
     12 C          -2.0503   -1.2211    0.1619 C.2     1  UNL1        0.2491
     13 O          -2.0774   -2.4594    0.4576 O.2     1  UNL1       -0.2699
     14 N          -1.0719   -0.7859   -0.7684 N.am    1  UNL1       -0.2897
     15 C          -1.0449    0.6148   -1.0981 C.3     1  UNL1        0.0388
     16 C           0.3208    1.1127   -1.4732 C.3     1  UNL1        0.0635
     17 O           1.1134    0.2327   -2.1440 O.3     1  UNL1       -0.3764
     18 C           0.5520   -0.9578   -2.5058 C.3     1  UNL1        0.0666
     19 C          -0.1369   -1.6824   -1.3695 C.3     1  UNL1        0.0537
     20 C           0.8590   -2.2573   -0.3958 C.3     1  UNL1       -0.0068
     21 C           1.6765   -1.2411    0.2713 C.ar    1  UNL1       -0.0449
     22 C           1.2260   -0.7121    1.4531 C.ar    1  UNL1       -0.0585
     23 C           1.9080    0.2461    2.1659 C.ar    1  UNL1       -0.0609
     24 C           3.1139    0.6570    1.6005 C.ar    1  UNL1       -0.0525
     25 C           3.5899    0.1473    0.4214 C.ar    1  UNL1        0.0006
     26 C           4.8557    0.5708   -0.1841 C.ar    1  UNL1        0.0710
     27 C           5.6731    1.5180    0.3835 C.ar    1  UNL1       -0.0357
     28 C           6.8791    1.9059   -0.2155 C.ar    1  UNL1       -0.0583
     29 C           7.2718    1.3358   -1.4014 C.ar    1  UNL1       -0.0436
     30 C           6.4380    0.3902   -1.9509 C.ar    1  UNL1        0.0283
     31 N           5.2783    0.0335   -1.3518 N.ar    1  UNL1       -0.2550
     32 C           2.8680   -0.8107   -0.2528 C.ar    1  UNL1       -0.0493
     33 C          -2.7267    0.3581    1.9670 C.ar    1  UNL1       -0.0446
     34 H          -3.2529    3.0318    3.5653 H       1  UNL1        0.0278
     35 H          -2.4811    1.5924    4.2619 H       1  UNL1        0.0278
     36 H          -4.2432    1.7891    4.4982 H       1  UNL1        0.0278
     37 H          -5.6347    2.1016    2.2890 H       1  UNL1        0.0621
     38 H          -6.0754    0.8931    0.1751 H       1  UNL1        0.0640
     39 H          -4.5646   -1.5071   -4.2040 H       1  UNL1        0.0864
     40 H          -5.6384   -3.3626   -2.5881 H       1  UNL1        0.0864
     41 H          -1.3529    1.1787   -0.1950 H       1  UNL1        0.0487
     42 H          -1.7178    0.7982   -1.9604 H       1  UNL1        0.0487
     43 H           0.8612    1.4218   -0.5368 H       1  UNL1        0.0575
     44 H           0.1754    2.0153   -2.1185 H       1  UNL1        0.0575
     45 H          -0.1182   -0.8962   -3.3883 H       1  UNL1        0.0578
     46 H           1.3963   -1.6356   -2.8288 H       1  UNL1        0.0578
     47 H          -0.6756   -2.5460   -1.8355 H       1  UNL1        0.0526
     48 H           0.3131   -2.9194    0.3079 H       1  UNL1        0.0332
     49 H           1.5210   -2.9416   -0.9894 H       1  UNL1        0.0332
     50 H           0.2741   -1.0459    1.8860 H       1  UNL1        0.0620
     51 H           1.5489    0.6613    3.0995 H       1  UNL1        0.0618
     52 H           3.6708    1.4108    2.1416 H       1  UNL1        0.0624
     53 H           5.3956    1.9840    1.3117 H       1  UNL1        0.0639
     54 H           7.5081    2.6587    0.2547 H       1  UNL1        0.0619
     55 H           8.1868    1.6027   -1.8953 H       1  UNL1        0.0633
     56 H           6.7434   -0.0633   -2.8869 H       1  UNL1        0.0830
     57 H           3.2493   -1.2275   -1.2096 H       1  UNL1        0.0627
     58 H          -1.7766    0.1940    2.4575 H       1  UNL1        0.0628
@<TRIPOS>BOND
     1     1     2    1
     2     2     3   ar
     3     3     4   ar
     4     4     5   ar
     5     5     6    1
     6     6     7   ar
     7     7     8   ar
     8     8     9   ar
     9     9    10   ar
    10     5    11   ar
    11    11    12    1
    12    12    13    2
    13    12    14   am
    14    14    15    1
    15    15    16    1
    16    16    17    1
    17    17    18    1
    18    18    19    1
    19    19    20    1
    20    20    21    1
    21    21    22   ar
    22    22    23   ar
    23    23    24   ar
    24    24    25   ar
    25    25    26    1
    26    26    27   ar
    27    27    28   ar
    28    28    29   ar
    29    29    30   ar
    30    30    31   ar
    31    25    32   ar
    32    11    33   ar
    33    33     2   ar
    34    10     6   ar
    35    19    14    1
    36    32    21   ar
    37    31    26   ar
    38     1    34    1
    39     1    35    1
    40     1    36    1
    41     3    37    1
    42     4    38    1
    43     8    39    1
    44     9    40    1
    45    15    41    1
    46    15    42    1
    47    16    43    1
    48    16    44    1
    49    18    45    1
    50    18    46    1
    51    19    47    1
    52    20    48    1
    53    20    49    1
    54    22    50    1
    55    23    51    1
    56    24    52    1
    57    27    53    1
    58    28    54    1
    59    29    55    1
    60    30    56    1
    61    32    57    1
    62    33    58    1
