
     RDKit          3D

 47 50  0  0  0  0  0  0  0  0999 V2000
    6.8654   -1.9467    0.2614 C   0  0  0  0  0  0  0  0  0  0  0  0
    6.1831   -0.9405    1.1617 C   0  0  0  0  0  0  0  0  0  0  0  0
    6.2684    0.4481    0.6121 C   0  0  0  0  0  0  0  0  0  0  0  0
    5.4804    0.5632   -0.9707 S   0  0  0  0  0  6  0  0  0  0  0  0
    5.5731    1.9751   -1.4803 O   0  0  0  0  0  0  0  0  0  0  0  0
    6.1439   -0.4005   -1.9197 O   0  0  0  0  0  0  0  0  0  0  0  0
    3.8048    0.1522   -0.8576 C   0  0  0  0  0  0  0  0  0  0  0  0
    3.3536   -1.1323   -1.0603 C   0  0  0  0  0  0  0  0  0  0  0  0
    1.9849   -1.4017   -0.9520 C   0  0  0  0  0  0  0  0  0  0  0  0
    1.0742   -0.4267   -0.6499 C   0  0  0  0  0  0  0  0  0  0  0  0
   -0.2690   -0.3870   -0.4830 N   0  0  0  0  0  0  0  0  0  0  0  0
   -0.6416    0.8702   -0.1883 C   0  0  0  0  0  0  0  0  0  0  0  0
   -2.0041    1.3547    0.0696 C   0  0  0  0  0  0  0  0  0  0  0  0
   -2.2280    2.6668    0.3576 C   0  0  0  0  0  0  0  0  0  0  0  0
   -3.5325    3.0605    0.5905 C   0  0  0  0  0  0  0  0  0  0  0  0
   -4.6031    2.1933    0.5444 C   0  0  0  0  0  0  0  0  0  0  0  0
   -5.7821    2.6078    0.7666 O   0  0  0  0  0  0  0  0  0  0  0  0
   -4.3475    0.8972    0.2558 N   0  0  0  0  0  0  0  0  0  0  0  0
   -5.4086   -0.0324    0.1960 C   0  0  0  0  0  0  0  0  0  0  0  0
   -5.9962   -0.3297   -1.0128 C   0  0  0  0  0  0  0  0  0  0  0  0
   -7.0276   -1.2303   -1.0870 C   0  0  0  0  0  0  0  0  0  0  0  0
   -7.4779   -1.8434    0.0696 C   0  0  0  0  0  0  0  0  0  0  0  0
   -6.8865   -1.5445    1.2880 C   0  0  0  0  0  0  0  0  0  0  0  0
   -5.8494   -0.6372    1.3537 C   0  0  0  0  0  0  0  0  0  0  0  0
   -3.0860    0.4871    0.0247 C   0  0  0  0  0  0  0  0  0  0  0  0
    0.4630    1.6166   -0.1702 N   0  0  0  0  0  0  0  0  0  0  0  0
    1.5522    0.8728   -0.4474 C   0  0  0  0  0  0  0  0  0  0  0  0
    2.8979    1.1359   -0.5542 C   0  0  0  0  0  0  0  0  0  0  0  0
    7.4317   -2.6944    0.8821 H   0  0  0  0  0  0  0  0  0  0  0  0
    6.1529   -2.5028   -0.3712 H   0  0  0  0  0  0  0  0  0  0  0  0
    7.5981   -1.3874   -0.3886 H   0  0  0  0  0  0  0  0  0  0  0  0
    5.1554   -1.2613    1.3859 H   0  0  0  0  0  0  0  0  0  0  0  0
    6.7153   -0.9621    2.1575 H   0  0  0  0  0  0  0  0  0  0  0  0
    7.2994    0.8332    0.5737 H   0  0  0  0  0  0  0  0  0  0  0  0
    5.7062    1.1313    1.2911 H   0  0  0  0  0  0  0  0  0  0  0  0
    4.0341   -1.9456   -1.3051 H   0  0  0  0  0  0  0  0  0  0  0  0
    1.6539   -2.4131   -1.1145 H   0  0  0  0  0  0  0  0  0  0  0  0
   -1.4028    3.3619    0.3985 H   0  0  0  0  0  0  0  0  0  0  0  0
   -3.6814    4.1236    0.8201 H   0  0  0  0  0  0  0  0  0  0  0  0
   -5.6598    0.1417   -1.9492 H   0  0  0  0  0  0  0  0  0  0  0  0
   -7.4748   -1.4491   -2.0473 H   0  0  0  0  0  0  0  0  0  0  0  0
   -8.2962   -2.5538   -0.0115 H   0  0  0  0  0  0  0  0  0  0  0  0
   -7.2309   -2.0198    2.2072 H   0  0  0  0  0  0  0  0  0  0  0  0
   -5.3893   -0.4098    2.3291 H   0  0  0  0  0  0  0  0  0  0  0  0
   -2.8353   -0.5476   -0.2112 H   0  0  0  0  0  0  0  0  0  0  0  0
    0.4714    2.6323    0.0313 H   0  0  0  0  0  0  0  0  0  0  0  0
    3.2475    2.1351   -0.3963 H   0  0  0  0  0  0  0  0  0  0  0  0
  1  2  1  0
  2  3  1  0
  3  4  1  0
  4  5  2  0
  4  6  2  0
  4  7  1  0
  7  8  2  0
  8  9  1  0
  9 10  2  0
 10 11  1  0
 11 12  2  0
 12 13  1  0
 13 14  1  0
 14 15  2  0
 15 16  1  0
 16 17  2  0
 16 18  1  0
 18 19  1  0
 19 20  2  0
 20 21  1  0
 21 22  2  0
 22 23  1  0
 23 24  2  0
 18 25  1  0
 12 26  1  0
 26 27  1  0
 27 28  2  0
 28  7  1  0
 27 10  1  0
 25 13  2  0
 24 19  1  0
  1 29  1  0
  1 30  1  0
  1 31  1  0
  2 32  1  0
  2 33  1  0
  3 34  1  0
  3 35  1  0
  8 36  1  0
  9 37  1  0
 14 38  1  0
 15 39  1  0
 20 40  1  0
 21 41  1  0
 22 42  1  0
 23 43  1  0
 24 44  1  0
 25 45  1  0
 26 46  1  0
 28 47  1  0
M  END
$$$$
