@<TRIPOS>MOLECULE
*****
 47 50 0 0 0
SMALL
GASTEIGER

@<TRIPOS>ATOM
      1 C           6.8654   -1.9467    0.2614 C.3     1  UNL1       -0.0638
      2 C           6.1831   -0.9405    1.1617 C.3     1  UNL1       -0.0360
      3 C           6.2684    0.4481    0.6121 C.3     1  UNL1        0.0706
      4 S           5.4804    0.5632   -0.9707 S.O2    1  UNL1       -0.0030
      5 O           5.5731    1.9751   -1.4803 O.2     1  UNL1       -0.1694
      6 O           6.1439   -0.4005   -1.9197 O.2     1  UNL1       -0.1694
      7 C           3.8048    0.1522   -0.8576 C.ar    1  UNL1        0.0902
      8 C           3.3536   -1.1323   -1.0603 C.ar    1  UNL1       -0.0347
      9 C           1.9849   -1.4017   -0.9520 C.ar    1  UNL1       -0.0324
     10 C           1.0742   -0.4267   -0.6499 C.ar    1  UNL1        0.0896
     11 N          -0.2690   -0.3870   -0.4830 N.ar    1  UNL1       -0.2277
     12 C          -0.6416    0.8702   -0.1883 C.ar    1  UNL1        0.1407
     13 C          -2.0041    1.3547    0.0696 C.ar    1  UNL1        0.0340
     14 C          -2.2280    2.6668    0.3576 C.ar    1  UNL1       -0.0446
     15 C          -3.5325    3.0605    0.5905 C.ar    1  UNL1        0.0040
     16 C          -4.6031    2.1933    0.5444 C.ar    1  UNL1        0.2557
     17 O          -5.7821    2.6078    0.7666 O.2     1  UNL1       -0.2673
     18 N          -4.3475    0.8972    0.2558 N.ar    1  UNL1       -0.2835
     19 C          -5.4086   -0.0324    0.1960 C.ar    1  UNL1        0.0495
     20 C          -5.9962   -0.3297   -1.0128 C.ar    1  UNL1       -0.0377
     21 C          -7.0276   -1.2303   -1.0870 C.ar    1  UNL1       -0.0598
     22 C          -7.4779   -1.8434    0.0696 C.ar    1  UNL1       -0.0616
     23 C          -6.8865   -1.5445    1.2880 C.ar    1  UNL1       -0.0598
     24 C          -5.8494   -0.6372    1.3537 C.ar    1  UNL1       -0.0377
     25 C          -3.0860    0.4871    0.0247 C.ar    1  UNL1        0.0238
     26 N           0.4630    1.6166   -0.1702 N.ar    1  UNL1       -0.3378
     27 C           1.5522    0.8728   -0.4474 C.ar    1  UNL1        0.0683
     28 C           2.8979    1.1359   -0.5542 C.ar    1  UNL1       -0.0114
     29 H           7.4317   -2.6944    0.8821 H       1  UNL1        0.0230
     30 H           6.1529   -2.5028   -0.3712 H       1  UNL1        0.0230
     31 H           7.5981   -1.3874   -0.3886 H       1  UNL1        0.0230
     32 H           5.1554   -1.2613    1.3859 H       1  UNL1        0.0278
     33 H           6.7153   -0.9621    2.1575 H       1  UNL1        0.0278
     34 H           7.2994    0.8332    0.5737 H       1  UNL1        0.0504
     35 H           5.7062    1.1313    1.2911 H       1  UNL1        0.0504
     36 H           4.0341   -1.9456   -1.3051 H       1  UNL1        0.0637
     37 H           1.6539   -2.4131   -1.1145 H       1  UNL1        0.0640
     38 H          -1.4028    3.3619    0.3985 H       1  UNL1        0.0627
     39 H          -3.6814    4.1236    0.8201 H       1  UNL1        0.0672
     40 H          -5.6598    0.1417   -1.9492 H       1  UNL1        0.0638
     41 H          -7.4748   -1.4491   -2.0473 H       1  UNL1        0.0618
     42 H          -8.2962   -2.5538   -0.0115 H       1  UNL1        0.0618
     43 H          -7.2309   -2.0198    2.2072 H       1  UNL1        0.0618
     44 H          -5.3893   -0.4098    2.3291 H       1  UNL1        0.0638
     45 H          -2.8353   -0.5476   -0.2112 H       1  UNL1        0.0821
     46 H           0.4714    2.6323    0.0313 H       1  UNL1        0.1674
     47 H           3.2475    2.1351   -0.3963 H       1  UNL1        0.0658
@<TRIPOS>BOND
     1     1     2    1
     2     2     3    1
     3     3     4    1
     4     4     5    2
     5     4     6    2
     6     4     7    1
     7     7     8   ar
     8     8     9   ar
     9     9    10   ar
    10    10    11   ar
    11    11    12   ar
    12    12    13    1
    13    13    14   ar
    14    14    15   ar
    15    15    16   ar
    16    16    17    2
    17    16    18   ar
    18    18    19    1
    19    19    20   ar
    20    20    21   ar
    21    21    22   ar
    22    22    23   ar
    23    23    24   ar
    24    18    25   ar
    25    12    26   ar
    26    26    27   ar
    27    27    28   ar
    28    28     7   ar
    29    27    10   ar
    30    25    13   ar
    31    24    19   ar
    32     1    29    1
    33     1    30    1
    34     1    31    1
    35     2    32    1
    36     2    33    1
    37     3    34    1
    38     3    35    1
    39     8    36    1
    40     9    37    1
    41    14    38    1
    42    15    39    1
    43    20    40    1
    44    21    41    1
    45    22    42    1
    46    23    43    1
    47    24    44    1
    48    25    45    1
    49    26    46    1
    50    28    47    1
