@<TRIPOS>MOLECULE
*****
 67 72 0 0 0
SMALL
GASTEIGER

@<TRIPOS>ATOM
      1 O           2.8204    1.4115   -3.0414 O.2     1  UNL1       -0.2700
      2 C           2.8985    0.6238   -2.0699 C.2     1  UNL1        0.2468
      3 C           1.6804    0.0962   -1.4808 C.ar    1  UNL1        0.0381
      4 C           1.0892    0.6899   -0.3615 C.ar    1  UNL1       -0.0411
      5 C          -0.0641    0.1780    0.1850 C.ar    1  UNL1        0.0166
      6 C          -0.7099    0.7857    1.3681 C.3     1  UNL1        0.0522
      7 C          -0.1198    0.1276    2.5926 C.3     1  UNL1       -0.0287
      8 C           0.9510    1.1302    3.0320 C.3     1  UNL1       -0.0352
      9 C           0.2516    2.4395    2.7491 C.3     1  UNL1        0.0129
     10 N          -0.4268    2.1845    1.5036 N.pl3   1  UNL1       -0.3225
     11 C          -0.7676    3.1704    0.5486 C.ar    1  UNL1        0.0356
     12 C          -0.4465    4.4877    0.7696 C.ar    1  UNL1       -0.0052
     13 C          -0.7707    5.4847   -0.1554 C.ar    1  UNL1        0.1279
     14 F          -0.4415    6.7765    0.0917 F       1  UNL1       -0.2053
     15 C          -1.4280    5.1715   -1.3260 C.ar    1  UNL1        0.0089
     16 C          -1.7503    3.8531   -1.5485 C.ar    1  UNL1        0.1279
     17 F          -2.3930    3.5287   -2.6871 F       1  UNL1       -0.2053
     18 C          -1.4292    2.8743   -0.6353 C.ar    1  UNL1       -0.0052
     19 C          -0.6502   -0.9372   -0.3757 C.ar    1  UNL1        0.1458
     20 O          -1.7551   -1.4487    0.1265 O.2     1  UNL1       -0.4407
     21 C          -2.3475   -2.5065   -0.3723 C.ar    1  UNL1        0.1931
     22 N          -3.5281   -3.0386    0.1784 N.pl3   1  UNL1       -0.2969
     23 C          -4.1685   -4.1876   -0.3748 C.3     1  UNL1        0.0383
     24 C          -5.3516   -4.6739    0.3722 C.3     1  UNL1        0.0635
     25 O          -5.9169   -3.8257    1.2774 O.3     1  UNL1       -0.3767
     26 C          -5.6138   -2.4943    1.1463 C.3     1  UNL1        0.0635
     27 C          -4.0966   -2.3760    1.3536 C.3     1  UNL1        0.0383
     28 C          -1.7864   -3.1113   -1.4750 C.ar    1  UNL1        0.0434
     29 C          -0.6342   -2.6342   -2.0539 C.ar    1  UNL1        0.1944
     30 O          -0.1173   -3.1892   -3.0675 O.2     1  UNL1       -0.2870
     31 C          -0.0512   -1.5118   -1.4834 C.ar    1  UNL1        0.0651
     32 C           1.1066   -1.0155   -2.0491 C.ar    1  UNL1       -0.0352
     33 N           4.1877    0.2803   -1.5858 N.am    1  UNL1       -0.2932
     34 C           5.4070    0.7944   -2.1572 C.3     1  UNL1        0.0385
     35 C           6.4183    1.1390   -1.0568 C.3     1  UNL1        0.0635
     36 O           5.7597    1.1433    0.1803 O.3     1  UNL1       -0.3767
     37 C           5.3869   -0.1484    0.4952 C.3     1  UNL1        0.0635
     38 C           4.3155   -0.6370   -0.4550 C.3     1  UNL1        0.0385
     39 H           1.5529    1.5489    0.0575 H       1  UNL1        0.0629
     40 H          -1.8072    0.6443    1.2924 H       1  UNL1        0.0551
     41 H          -0.8750   -0.0137    3.3701 H       1  UNL1        0.0287
     42 H           0.4421   -0.8072    2.3382 H       1  UNL1        0.0287
     43 H           1.8316    1.0664    2.3898 H       1  UNL1        0.0281
     44 H           1.1768    1.0003    4.1096 H       1  UNL1        0.0281
     45 H          -0.5504    2.6518    3.5131 H       1  UNL1        0.0464
     46 H           0.9721    3.2849    2.7030 H       1  UNL1        0.0464
     47 H           0.0693    4.7824    1.6732 H       1  UNL1        0.0665
     48 H          -1.6823    5.9545   -2.0506 H       1  UNL1        0.0675
     49 H          -1.6883    1.8223   -0.8169 H       1  UNL1        0.0665
     50 H          -3.4126   -5.0235   -0.4050 H       1  UNL1        0.0487
     51 H          -4.3938   -3.9760   -1.4582 H       1  UNL1        0.0487
     52 H          -6.1334   -4.9721   -0.3790 H       1  UNL1        0.0575
     53 H          -5.1274   -5.6374    0.9183 H       1  UNL1        0.0575
     54 H          -6.0903   -1.9323    1.9444 H       1  UNL1        0.0575
     55 H          -5.9041   -2.0520    0.1711 H       1  UNL1        0.0575
     56 H          -3.7844   -1.3365    1.4489 H       1  UNL1        0.0487
     57 H          -3.8635   -3.0178    2.2190 H       1  UNL1        0.0487
     58 H          -2.2736   -3.9825   -1.8854 H       1  UNL1        0.0707
     59 H           1.5146   -1.5256   -2.9192 H       1  UNL1        0.0633
     60 H           5.8559   -0.0177   -2.7734 H       1  UNL1        0.0487
     61 H           5.2577    1.7332   -2.7274 H       1  UNL1        0.0487
     62 H           6.8557    2.1308   -1.1854 H       1  UNL1        0.0575
     63 H           7.2163    0.3748   -0.9857 H       1  UNL1        0.0575
     64 H           6.2997   -0.7691    0.4759 H       1  UNL1        0.0575
     65 H           5.0152   -0.1706    1.5525 H       1  UNL1        0.0575
     66 H           4.6728   -1.6368   -0.8264 H       1  UNL1        0.0487
     67 H           3.3452   -0.7588    0.0776 H       1  UNL1        0.0487
@<TRIPOS>BOND
     1     1     2    2
     2     2     3    1
     3     3     4   ar
     4     4     5   ar
     5     5     6    1
     6     6     7    1
     7     7     8    1
     8     8     9    1
     9     9    10    1
    10    10    11    1
    11    11    12   ar
    12    12    13   ar
    13    13    14    1
    14    13    15   ar
    15    15    16   ar
    16    16    17    1
    17    16    18   ar
    18     5    19   ar
    19    19    20   ar
    20    20    21   ar
    21    21    22    1
    22    22    23    1
    23    23    24    1
    24    24    25    1
    25    25    26    1
    26    26    27    1
    27    21    28   ar
    28    28    29   ar
    29    29    30    2
    30    29    31   ar
    31    31    32   ar
    32     2    33   am
    33    33    34    1
    34    34    35    1
    35    35    36    1
    36    36    37    1
    37    37    38    1
    38    32     3   ar
    39    38    33    1
    40    10     6    1
    41    18    11   ar
    42    31    19   ar
    43    27    22    1
    44     4    39    1
    45     6    40    1
    46     7    41    1
    47     7    42    1
    48     8    43    1
    49     8    44    1
    50     9    45    1
    51     9    46    1
    52    12    47    1
    53    15    48    1
    54    18    49    1
    55    23    50    1
    56    23    51    1
    57    24    52    1
    58    24    53    1
    59    26    54    1
    60    26    55    1
    61    27    56    1
    62    27    57    1
    63    28    58    1
    64    32    59    1
    65    34    60    1
    66    34    61    1
    67    35    62    1
    68    35    63    1
    69    37    64    1
    70    37    65    1
    71    38    66    1
    72    38    67    1
