
     RDKit          3D

 67 72  0  0  0  0  0  0  0  0999 V2000
    2.8204    1.4115   -3.0414 O   0  0  0  0  0  0  0  0  0  0  0  0
    2.8985    0.6238   -2.0699 C   0  0  0  0  0  0  0  0  0  0  0  0
    1.6804    0.0962   -1.4808 C   0  0  0  0  0  0  0  0  0  0  0  0
    1.0892    0.6899   -0.3615 C   0  0  0  0  0  0  0  0  0  0  0  0
   -0.0641    0.1780    0.1850 C   0  0  0  0  0  0  0  0  0  0  0  0
   -0.7099    0.7857    1.3681 C   0  0  1  0  0  0  0  0  0  0  0  0
   -0.1198    0.1276    2.5926 C   0  0  0  0  0  0  0  0  0  0  0  0
    0.9510    1.1302    3.0320 C   0  0  0  0  0  0  0  0  0  0  0  0
    0.2516    2.4395    2.7491 C   0  0  0  0  0  0  0  0  0  0  0  0
   -0.4268    2.1845    1.5036 N   0  0  0  0  0  0  0  0  0  0  0  0
   -0.7676    3.1704    0.5486 C   0  0  0  0  0  0  0  0  0  0  0  0
   -0.4465    4.4877    0.7696 C   0  0  0  0  0  0  0  0  0  0  0  0
   -0.7707    5.4847   -0.1554 C   0  0  0  0  0  0  0  0  0  0  0  0
   -0.4415    6.7765    0.0917 F   0  0  0  0  0  0  0  0  0  0  0  0
   -1.4280    5.1715   -1.3260 C   0  0  0  0  0  0  0  0  0  0  0  0
   -1.7503    3.8531   -1.5485 C   0  0  0  0  0  0  0  0  0  0  0  0
   -2.3930    3.5287   -2.6871 F   0  0  0  0  0  0  0  0  0  0  0  0
   -1.4292    2.8743   -0.6353 C   0  0  0  0  0  0  0  0  0  0  0  0
   -0.6502   -0.9372   -0.3757 C   0  0  0  0  0  0  0  0  0  0  0  0
   -1.7551   -1.4487    0.1265 O   0  0  0  0  0  0  0  0  0  0  0  0
   -2.3475   -2.5065   -0.3723 C   0  0  0  0  0  0  0  0  0  0  0  0
   -3.5281   -3.0386    0.1784 N   0  0  0  0  0  0  0  0  0  0  0  0
   -4.1685   -4.1876   -0.3748 C   0  0  0  0  0  0  0  0  0  0  0  0
   -5.3516   -4.6739    0.3722 C   0  0  0  0  0  0  0  0  0  0  0  0
   -5.9169   -3.8257    1.2774 O   0  0  0  0  0  0  0  0  0  0  0  0
   -5.6138   -2.4943    1.1463 C   0  0  0  0  0  0  0  0  0  0  0  0
   -4.0966   -2.3760    1.3536 C   0  0  0  0  0  0  0  0  0  0  0  0
   -1.7864   -3.1113   -1.4750 C   0  0  0  0  0  0  0  0  0  0  0  0
   -0.6342   -2.6342   -2.0539 C   0  0  0  0  0  0  0  0  0  0  0  0
   -0.1173   -3.1892   -3.0675 O   0  0  0  0  0  0  0  0  0  0  0  0
   -0.0512   -1.5118   -1.4834 C   0  0  0  0  0  0  0  0  0  0  0  0
    1.1066   -1.0155   -2.0491 C   0  0  0  0  0  0  0  0  0  0  0  0
    4.1877    0.2803   -1.5858 N   0  0  0  0  0  0  0  0  0  0  0  0
    5.4070    0.7944   -2.1572 C   0  0  0  0  0  0  0  0  0  0  0  0
    6.4183    1.1390   -1.0568 C   0  0  0  0  0  0  0  0  0  0  0  0
    5.7597    1.1433    0.1803 O   0  0  0  0  0  0  0  0  0  0  0  0
    5.3869   -0.1484    0.4952 C   0  0  0  0  0  0  0  0  0  0  0  0
    4.3155   -0.6370   -0.4550 C   0  0  0  0  0  0  0  0  0  0  0  0
    1.5529    1.5489    0.0575 H   0  0  0  0  0  0  0  0  0  0  0  0
   -1.8072    0.6443    1.2924 H   0  0  0  0  0  0  0  0  0  0  0  0
   -0.8750   -0.0137    3.3701 H   0  0  0  0  0  0  0  0  0  0  0  0
    0.4421   -0.8072    2.3382 H   0  0  0  0  0  0  0  0  0  0  0  0
    1.8316    1.0664    2.3898 H   0  0  0  0  0  0  0  0  0  0  0  0
    1.1768    1.0003    4.1096 H   0  0  0  0  0  0  0  0  0  0  0  0
   -0.5504    2.6518    3.5131 H   0  0  0  0  0  0  0  0  0  0  0  0
    0.9721    3.2849    2.7030 H   0  0  0  0  0  0  0  0  0  0  0  0
    0.0693    4.7824    1.6732 H   0  0  0  0  0  0  0  0  0  0  0  0
   -1.6823    5.9545   -2.0506 H   0  0  0  0  0  0  0  0  0  0  0  0
   -1.6883    1.8223   -0.8169 H   0  0  0  0  0  0  0  0  0  0  0  0
   -3.4126   -5.0235   -0.4050 H   0  0  0  0  0  0  0  0  0  0  0  0
   -4.3938   -3.9760   -1.4582 H   0  0  0  0  0  0  0  0  0  0  0  0
   -6.1334   -4.9721   -0.3790 H   0  0  0  0  0  0  0  0  0  0  0  0
   -5.1274   -5.6374    0.9183 H   0  0  0  0  0  0  0  0  0  0  0  0
   -6.0903   -1.9323    1.9444 H   0  0  0  0  0  0  0  0  0  0  0  0
   -5.9041   -2.0520    0.1711 H   0  0  0  0  0  0  0  0  0  0  0  0
   -3.7844   -1.3365    1.4489 H   0  0  0  0  0  0  0  0  0  0  0  0
   -3.8635   -3.0178    2.2190 H   0  0  0  0  0  0  0  0  0  0  0  0
   -2.2736   -3.9825   -1.8854 H   0  0  0  0  0  0  0  0  0  0  0  0
    1.5146   -1.5256   -2.9192 H   0  0  0  0  0  0  0  0  0  0  0  0
    5.8559   -0.0177   -2.7734 H   0  0  0  0  0  0  0  0  0  0  0  0
    5.2577    1.7332   -2.7274 H   0  0  0  0  0  0  0  0  0  0  0  0
    6.8557    2.1308   -1.1854 H   0  0  0  0  0  0  0  0  0  0  0  0
    7.2163    0.3748   -0.9857 H   0  0  0  0  0  0  0  0  0  0  0  0
    6.2997   -0.7691    0.4759 H   0  0  0  0  0  0  0  0  0  0  0  0
    5.0152   -0.1706    1.5525 H   0  0  0  0  0  0  0  0  0  0  0  0
    4.6728   -1.6368   -0.8264 H   0  0  0  0  0  0  0  0  0  0  0  0
    3.3452   -0.7588    0.0776 H   0  0  0  0  0  0  0  0  0  0  0  0
  1  2  2  0
  2  3  1  0
  3  4  2  0
  4  5  1  0
  5  6  1  0
  6  7  1  0
  7  8  1  0
  8  9  1  0
  9 10  1  0
 10 11  1  0
 11 12  2  0
 12 13  1  0
 13 14  1  0
 13 15  2  0
 15 16  1  0
 16 17  1  0
 16 18  2  0
  5 19  2  0
 19 20  1  0
 20 21  1  0
 21 22  1  0
 22 23  1  0
 23 24  1  0
 24 25  1  0
 25 26  1  0
 26 27  1  0
 21 28  2  0
 28 29  1  0
 29 30  2  0
 29 31  1  0
 31 32  2  0
  2 33  1  0
 33 34  1  0
 34 35  1  0
 35 36  1  0
 36 37  1  0
 37 38  1  0
 32  3  1  0
 38 33  1  0
 10  6  1  0
 18 11  1  0
 31 19  1  0
 27 22  1  0
  4 39  1  0
  6 40  1  6
  7 41  1  0
  7 42  1  0
  8 43  1  0
  8 44  1  0
  9 45  1  0
  9 46  1  0
 12 47  1  0
 15 48  1  0
 18 49  1  0
 23 50  1  0
 23 51  1  0
 24 52  1  0
 24 53  1  0
 26 54  1  0
 26 55  1  0
 27 56  1  0
 27 57  1  0
 28 58  1  0
 32 59  1  0
 34 60  1  0
 34 61  1  0
 35 62  1  0
 35 63  1  0
 37 64  1  0
 37 65  1  0
 38 66  1  0
 38 67  1  0
M  END
$$$$
