
     RDKit          3D

 62 67  0  0  0  0  0  0  0  0999 V2000
    0.1974   -3.9654   -2.0606 N   0  0  0  0  0  0  0  0  0  0  0  0
    1.3645   -4.5272   -1.4938 C   0  0  0  0  0  0  0  0  0  0  0  0
    1.3935   -5.8932   -1.6061 N   0  0  0  0  0  0  0  0  0  0  0  0
    2.4648   -6.5700   -1.2332 C   0  0  0  0  0  0  0  0  0  0  0  0
    3.5480   -5.8834   -0.7322 C   0  0  0  0  0  0  0  0  0  0  0  0
    3.5019   -4.5111   -0.6244 C   0  0  0  0  0  0  0  0  0  0  0  0
    2.3615   -3.7654   -1.0159 C   0  0  0  0  0  0  0  0  0  0  0  0
    2.3847   -2.3555   -0.7123 C   0  0  0  0  0  0  0  0  0  0  0  0
    3.5741   -1.7421   -0.2836 N   0  0  0  0  0  0  0  0  0  0  0  0
    3.3484   -0.4924    0.0015 C   0  0  0  0  0  0  0  0  0  0  0  0
    4.1591    0.5441    0.4566 C   0  0  0  0  0  0  0  0  0  0  0  0
    3.5941    1.7817    0.6622 C   0  0  0  0  0  0  0  0  0  0  0  0
    4.4553    2.8572    1.1388 C   0  0  0  0  0  0  0  0  0  0  0  0
    4.2352    4.1757    0.8029 C   0  0  0  0  0  0  0  0  0  0  0  0
    5.0496    5.1922    1.2574 C   0  0  0  0  0  0  0  0  0  0  0  0
    6.1078    4.8386    2.0717 C   0  0  0  0  0  0  0  0  0  0  0  0
    6.3592    3.5313    2.4285 C   0  0  0  0  0  0  0  0  0  0  0  0
    5.5156    2.5203    1.9521 C   0  0  0  0  0  0  0  0  0  0  0  0
    2.2493    1.9883    0.4209 C   0  0  0  0  0  0  0  0  0  0  0  0
    1.5154    0.9598   -0.0153 N   0  0  0  0  0  0  0  0  0  0  0  0
    2.0317   -0.2564   -0.2259 C   0  0  0  0  0  0  0  0  0  0  0  0
    1.4512   -1.4375   -0.6694 N   0  0  0  0  0  0  0  0  0  0  0  0
    0.0615   -1.4519   -0.8978 C   0  0  0  0  0  0  0  0  0  0  0  0
   -0.5299   -0.9267   -2.0481 C   0  0  0  0  0  0  0  0  0  0  0  0
   -1.8973   -0.8797   -2.1985 C   0  0  0  0  0  0  0  0  0  0  0  0
   -2.7448   -1.3635   -1.1890 C   0  0  0  0  0  0  0  0  0  0  0  0
   -4.2111   -1.3178   -1.3680 C   0  0  0  0  0  0  0  0  0  0  0  0
   -4.8202   -0.0733   -1.0030 N   0  0  0  0  0  0  0  0  0  0  0  0
   -5.0681    0.3096    0.3366 C   0  0  0  0  0  0  0  0  0  0  0  0
   -4.7344   -0.4981    1.2530 O   0  0  0  0  0  0  0  0  0  0  0  0
   -5.6850    1.5857    0.6729 C   0  0  0  0  0  0  0  0  0  0  0  0
   -5.8866    1.8970    2.0165 C   0  0  0  0  0  0  0  0  0  0  0  0
   -6.4672    3.0987    2.3654 C   0  0  0  0  0  0  0  0  0  0  0  0
   -6.8658    4.0265    1.4234 C   0  0  0  0  0  0  0  0  0  0  0  0
   -6.6662    3.7179    0.0957 C   0  0  0  0  0  0  0  0  0  0  0  0
   -6.0830    2.5103   -0.2523 C   0  0  0  0  0  0  0  0  0  0  0  0
   -2.1905   -1.8842   -0.0508 C   0  0  0  0  0  0  0  0  0  0  0  0
   -0.8179   -1.9270    0.0914 C   0  0  0  0  0  0  0  0  0  0  0  0
    0.3203   -3.4156   -2.9610 H   0  0  0  0  0  0  0  0  0  0  0  0
   -0.7592   -4.0683   -1.6865 H   0  0  0  0  0  0  0  0  0  0  0  0
    2.4915   -7.6625   -1.3209 H   0  0  0  0  0  0  0  0  0  0  0  0
    4.4046   -6.4632   -0.4361 H   0  0  0  0  0  0  0  0  0  0  0  0
    4.3673   -4.0017   -0.2292 H   0  0  0  0  0  0  0  0  0  0  0  0
    5.2104    0.3207    0.6277 H   0  0  0  0  0  0  0  0  0  0  0  0
    3.4095    4.4561    0.1667 H   0  0  0  0  0  0  0  0  0  0  0  0
    4.8489    6.2109    0.9759 H   0  0  0  0  0  0  0  0  0  0  0  0
    6.7507    5.6453    2.4301 H   0  0  0  0  0  0  0  0  0  0  0  0
    7.1884    3.2720    3.0640 H   0  0  0  0  0  0  0  0  0  0  0  0
    5.7554    1.5217    2.2593 H   0  0  0  0  0  0  0  0  0  0  0  0
    1.8285    2.9863    0.5942 H   0  0  0  0  0  0  0  0  0  0  0  0
    0.1282   -0.5593   -2.8144 H   0  0  0  0  0  0  0  0  0  0  0  0
   -2.3806   -0.4835   -3.0677 H   0  0  0  0  0  0  0  0  0  0  0  0
   -4.6835   -2.1780   -0.8061 H   0  0  0  0  0  0  0  0  0  0  0  0
   -4.4308   -1.5466   -2.4290 H   0  0  0  0  0  0  0  0  0  0  0  0
   -5.0876    0.5770   -1.8028 H   0  0  0  0  0  0  0  0  0  0  0  0
   -5.5799    1.1802    2.7652 H   0  0  0  0  0  0  0  0  0  0  0  0
   -6.6260    3.3457    3.4031 H   0  0  0  0  0  0  0  0  0  0  0  0
   -7.3157    4.9576    1.7138 H   0  0  0  0  0  0  0  0  0  0  0  0
   -6.9621    4.4130   -0.6761 H   0  0  0  0  0  0  0  0  0  0  0  0
   -5.9443    2.3078   -1.3067 H   0  0  0  0  0  0  0  0  0  0  0  0
   -2.7952   -2.2872    0.7707 H   0  0  0  0  0  0  0  0  0  0  0  0
   -0.3946   -2.3415    0.9979 H   0  0  0  0  0  0  0  0  0  0  0  0
  1  2  1  0
  2  3  2  0
  3  4  1  0
  4  5  2  0
  5  6  1  0
  6  7  2  0
  7  8  1  0
  8  9  2  0
  9 10  1  0
 10 11  2  0
 11 12  1  0
 12 13  1  0
 13 14  2  0
 14 15  1  0
 15 16  2  0
 16 17  1  0
 17 18  2  0
 12 19  2  0
 19 20  1  0
 20 21  2  0
 21 22  1  0
 22 23  1  0
 23 24  2  0
 24 25  1  0
 25 26  2  0
 26 27  1  0
 27 28  1  0
 28 29  1  0
 29 30  2  0
 29 31  1  0
 31 32  2  0
 32 33  1  0
 33 34  2  0
 34 35  1  0
 35 36  2  0
 26 37  1  0
 37 38  2  0
  7  2  1  0
 22  8  1  0
 38 23  1  0
 21 10  1  0
 36 31  1  0
 18 13  1  0
  1 39  1  0
  1 40  1  0
  4 41  1  0
  5 42  1  0
  6 43  1  0
 11 44  1  0
 14 45  1  0
 15 46  1  0
 16 47  1  0
 17 48  1  0
 18 49  1  0
 19 50  1  0
 24 51  1  0
 25 52  1  0
 27 53  1  0
 27 54  1  0
 28 55  1  0
 32 56  1  0
 33 57  1  0
 34 58  1  0
 35 59  1  0
 36 60  1  0
 37 61  1  0
 38 62  1  0
M  END
$$$$
