@<TRIPOS>MOLECULE
*****
 62 67 0 0 0
SMALL
GASTEIGER

@<TRIPOS>ATOM
      1 N           0.1974   -3.9654   -2.0606 N.pl3   1  UNL1       -0.3426
      2 C           1.3645   -4.5272   -1.4938 C.ar    1  UNL1        0.1268
      3 N           1.3935   -5.8932   -1.6061 N.ar    1  UNL1       -0.2400
      4 C           2.4648   -6.5700   -1.2332 C.ar    1  UNL1        0.0297
      5 C           3.5480   -5.8834   -0.7322 C.ar    1  UNL1       -0.0428
      6 C           3.5019   -4.5111   -0.6244 C.ar    1  UNL1       -0.0464
      7 C           2.3615   -3.7654   -1.0159 C.ar    1  UNL1        0.0573
      8 C           2.3847   -2.3555   -0.7123 C.ar    1  UNL1        0.1508
      9 N           3.5741   -1.7421   -0.2836 N.ar    1  UNL1       -0.2254
     10 C           3.3484   -0.4924    0.0015 C.ar    1  UNL1        0.1095
     11 C           4.1591    0.5441    0.4566 C.ar    1  UNL1       -0.0235
     12 C           3.5941    1.7817    0.6622 C.ar    1  UNL1        0.0024
     13 C           4.4553    2.8572    1.1388 C.ar    1  UNL1       -0.0164
     14 C           4.2352    4.1757    0.8029 C.ar    1  UNL1       -0.0540
     15 C           5.0496    5.1922    1.2574 C.ar    1  UNL1       -0.0612
     16 C           6.1078    4.8386    2.0717 C.ar    1  UNL1       -0.0617
     17 C           6.3592    3.5313    2.4285 C.ar    1  UNL1       -0.0612
     18 C           5.5156    2.5203    1.9521 C.ar    1  UNL1       -0.0540
     19 C           2.2493    1.9883    0.4209 C.ar    1  UNL1        0.0377
     20 N           1.5154    0.9598   -0.0153 N.ar    1  UNL1       -0.2349
     21 C           2.0317   -0.2564   -0.2259 C.ar    1  UNL1        0.1653
     22 N           1.4512   -1.4375   -0.6694 N.ar    1  UNL1       -0.2767
     23 C           0.0615   -1.4519   -0.8978 C.ar    1  UNL1        0.0500
     24 C          -0.5299   -0.9267   -2.0481 C.ar    1  UNL1       -0.0374
     25 C          -1.8973   -0.8797   -2.1985 C.ar    1  UNL1       -0.0551
     26 C          -2.7448   -1.3635   -1.1890 C.ar    1  UNL1       -0.0302
     27 C          -4.2111   -1.3178   -1.3680 C.3     1  UNL1        0.0371
     28 N          -4.8202   -0.0733   -1.0030 N.am    1  UNL1       -0.3072
     29 C          -5.0681    0.3096    0.3366 C.2     1  UNL1        0.2443
     30 O          -4.7344   -0.4981    1.2530 O.2     1  UNL1       -0.2702
     31 C          -5.6850    1.5857    0.6729 C.ar    1  UNL1        0.0367
     32 C          -5.8866    1.8970    2.0165 C.ar    1  UNL1       -0.0496
     33 C          -6.4672    3.0987    2.3654 C.ar    1  UNL1       -0.0610
     34 C          -6.8658    4.0265    1.4234 C.ar    1  UNL1       -0.0617
     35 C          -6.6662    3.7179    0.0957 C.ar    1  UNL1       -0.0610
     36 C          -6.0830    2.5103   -0.2523 C.ar    1  UNL1       -0.0496
     37 C          -2.1905   -1.8842   -0.0508 C.ar    1  UNL1       -0.0551
     38 C          -0.8179   -1.9270    0.0914 C.ar    1  UNL1       -0.0374
     39 H           0.3203   -3.4156   -2.9610 H       1  UNL1        0.1437
     40 H          -0.7592   -4.0683   -1.6865 H       1  UNL1        0.1437
     41 H           2.4915   -7.6625   -1.3209 H       1  UNL1        0.0830
     42 H           4.4046   -6.4632   -0.4361 H       1  UNL1        0.0633
     43 H           4.3673   -4.0017   -0.2292 H       1  UNL1        0.0626
     44 H           5.2104    0.3207    0.6277 H       1  UNL1        0.0646
     45 H           3.4095    4.4561    0.1667 H       1  UNL1        0.0624
     46 H           4.8489    6.2109    0.9759 H       1  UNL1        0.0618
     47 H           6.7507    5.6453    2.4301 H       1  UNL1        0.0618
     48 H           7.1884    3.2720    3.0640 H       1  UNL1        0.0618
     49 H           5.7554    1.5217    2.2593 H       1  UNL1        0.0624
     50 H           1.8285    2.9863    0.5942 H       1  UNL1        0.0836
     51 H           0.1282   -0.5593   -2.8144 H       1  UNL1        0.0638
     52 H          -2.3806   -0.4835   -3.0677 H       1  UNL1        0.0621
     53 H          -4.6835   -2.1780   -0.8061 H       1  UNL1        0.0512
     54 H          -4.4308   -1.5466   -2.4290 H       1  UNL1        0.0512
     55 H          -5.0876    0.5770   -1.8028 H       1  UNL1        0.1493
     56 H          -5.5799    1.1802    2.7652 H       1  UNL1        0.0625
     57 H          -6.6260    3.3457    3.4031 H       1  UNL1        0.0618
     58 H          -7.3157    4.9576    1.7138 H       1  UNL1        0.0618
     59 H          -6.9621    4.4130   -0.6761 H       1  UNL1        0.0618
     60 H          -5.9443    2.3078   -1.3067 H       1  UNL1        0.0625
     61 H          -2.7952   -2.2872    0.7707 H       1  UNL1        0.0621
     62 H          -0.3946   -2.3415    0.9979 H       1  UNL1        0.0638
@<TRIPOS>BOND
     1     1     2    1
     2     2     3   ar
     3     3     4   ar
     4     4     5   ar
     5     5     6   ar
     6     6     7   ar
     7     7     8    1
     8     8     9   ar
     9     9    10   ar
    10    10    11   ar
    11    11    12   ar
    12    12    13    1
    13    13    14   ar
    14    14    15   ar
    15    15    16   ar
    16    16    17   ar
    17    17    18   ar
    18    12    19   ar
    19    19    20   ar
    20    20    21   ar
    21    21    22   ar
    22    22    23    1
    23    23    24   ar
    24    24    25   ar
    25    25    26   ar
    26    26    27    1
    27    27    28    1
    28    28    29   am
    29    29    30    2
    30    29    31    1
    31    31    32   ar
    32    32    33   ar
    33    33    34   ar
    34    34    35   ar
    35    35    36   ar
    36    26    37   ar
    37    37    38   ar
    38     7     2   ar
    39    22     8   ar
    40    38    23   ar
    41    21    10   ar
    42    36    31   ar
    43    18    13   ar
    44     1    39    1
    45     1    40    1
    46     4    41    1
    47     5    42    1
    48     6    43    1
    49    11    44    1
    50    14    45    1
    51    15    46    1
    52    16    47    1
    53    17    48    1
    54    18    49    1
    55    19    50    1
    56    24    51    1
    57    25    52    1
    58    27    53    1
    59    27    54    1
    60    28    55    1
    61    32    56    1
    62    33    57    1
    63    34    58    1
    64    35    59    1
    65    36    60    1
    66    37    61    1
    67    38    62    1
