@<TRIPOS>MOLECULE
*****
 60 64 0 0 0
SMALL
GASTEIGER

@<TRIPOS>ATOM
      1 C           5.9016    2.6667   -1.8591 C.3     1  UNL1       -0.0653
      2 C           4.8910    1.5174   -1.9343 C.3     1  UNL1       -0.0554
      3 C           3.5427    2.1173   -1.7383 C.3     1  UNL1       -0.0424
      4 C           2.4029    1.1296   -1.7815 C.3     1  UNL1        0.0509
      5 C           2.5470    0.1077   -0.7108 C.2     1  UNL1        0.2916
      6 N           3.4471    0.0143    0.2007 N.2     1  UNL1       -0.0687
      7 C           3.2425   -1.1056    1.0413 C.3     1  UNL1        0.2491
      8 C           4.3477   -2.1360    0.9678 C.3     1  UNL1        0.0059
      9 C           3.9870   -3.0311    2.1335 C.3     1  UNL1       -0.0481
     10 C           3.3164   -2.1438    3.1455 C.3     1  UNL1       -0.0481
     11 C           3.1399   -0.7952    2.5031 C.3     1  UNL1        0.0059
     12 C           2.0138   -1.7139    0.4892 C.2     1  UNL1        0.3556
     13 O           1.4879   -2.7613    0.9853 O.2     1  UNL1       -0.2422
     14 N           1.5876   -0.9350   -0.6236 N.am    1  UNL1       -0.1529
     15 C           0.4053   -1.3204   -1.3544 C.3     1  UNL1        0.1137
     16 C          -0.8493   -0.7446   -0.8606 C.ar    1  UNL1       -0.0077
     17 C          -1.6302   -1.3569    0.1082 C.ar    1  UNL1       -0.0544
     18 C          -2.8111   -0.8185    0.5724 C.ar    1  UNL1       -0.0536
     19 C          -3.2762    0.3823    0.0794 C.ar    1  UNL1       -0.0172
     20 C          -2.5406    1.0590   -0.9013 C.ar    1  UNL1       -0.0536
     21 C          -1.3505    0.4702   -1.3376 C.ar    1  UNL1       -0.0544
     22 C          -4.4948    1.0947    0.4461 C.ar    1  UNL1       -0.0071
     23 C          -4.2432    2.3096    1.0740 C.ar    1  UNL1       -0.0534
     24 C          -5.3223    3.0819    1.4774 C.ar    1  UNL1       -0.0611
     25 C          -6.6199    2.6568    1.2618 C.ar    1  UNL1       -0.0611
     26 C          -6.8646    1.4376    0.6314 C.ar    1  UNL1       -0.0503
     27 C          -5.7804    0.6959    0.2438 C.ar    1  UNL1        0.0304
     28 C          -5.9722   -0.5857   -0.4239 C.ar    1  UNL1        0.2049
     29 N          -7.2024   -1.0766   -0.6724 N.ar    1  UNL1       -0.1331
     30 N          -7.1009   -2.2270   -1.2763 N.ar    1  UNL1       -0.1761
     31 N          -5.8189   -2.4668   -1.4112 N.ar    1  UNL1       -0.0485
     32 N          -5.1079   -1.4777   -0.8978 N.ar    1  UNL1       -0.1080
     33 H           6.0256    2.9660   -0.8072 H       1  UNL1        0.0230
     34 H           6.8916    2.3438   -2.2926 H       1  UNL1        0.0230
     35 H           5.5158    3.5328   -2.4330 H       1  UNL1        0.0230
     36 H           5.0224    1.0860   -2.9520 H       1  UNL1        0.0263
     37 H           5.1856    0.7543   -1.2107 H       1  UNL1        0.0263
     38 H           3.3898    2.8821   -2.5325 H       1  UNL1        0.0271
     39 H           3.5342    2.6177   -0.7332 H       1  UNL1        0.0271
     40 H           1.4521    1.6875   -1.5584 H       1  UNL1        0.0387
     41 H           2.3646    0.6736   -2.7899 H       1  UNL1        0.0387
     42 H           5.3476   -1.6848    1.1787 H       1  UNL1        0.0316
     43 H           4.3388   -2.6840    0.0048 H       1  UNL1        0.0316
     44 H           4.9338   -3.4692    2.5077 H       1  UNL1        0.0267
     45 H           3.3493   -3.8932    1.8222 H       1  UNL1        0.0267
     46 H           3.9745   -2.1067    4.0404 H       1  UNL1        0.0267
     47 H           2.3141   -2.5769    3.3675 H       1  UNL1        0.0267
     48 H           2.1692   -0.3222    2.7380 H       1  UNL1        0.0316
     49 H           3.9653   -0.1427    2.7777 H       1  UNL1        0.0316
     50 H           0.5283   -0.9191   -2.4040 H       1  UNL1        0.0783
     51 H           0.2808   -2.4179   -1.4219 H       1  UNL1        0.0783
     52 H          -1.3081   -2.3059    0.5298 H       1  UNL1        0.0622
     53 H          -3.4400   -1.2690    1.3267 H       1  UNL1        0.0624
     54 H          -2.8227    2.0098   -1.3523 H       1  UNL1        0.0624
     55 H          -0.7735    0.9876   -2.0992 H       1  UNL1        0.0622
     56 H          -3.2437    2.7127    1.2792 H       1  UNL1        0.0624
     57 H          -5.1352    4.0330    1.9689 H       1  UNL1        0.0618
     58 H          -7.4569    3.2817    1.5881 H       1  UNL1        0.0618
     59 H          -7.8764    1.0984    0.4594 H       1  UNL1        0.0625
     60 H          -7.8018   -2.9201   -1.6346 H       1  UNL1        0.2143
@<TRIPOS>BOND
     1     1     2    1
     2     2     3    1
     3     3     4    1
     4     4     5    1
     5     5     6    2
     6     6     7    1
     7     7     8    1
     8     8     9    1
     9     9    10    1
    10    10    11    1
    11     7    12    1
    12    12    13    2
    13    12    14   am
    14    14    15    1
    15    15    16    1
    16    16    17   ar
    17    17    18   ar
    18    18    19   ar
    19    19    20   ar
    20    20    21   ar
    21    19    22    1
    22    22    23   ar
    23    23    24   ar
    24    24    25   ar
    25    25    26   ar
    26    26    27   ar
    27    27    28    1
    28    28    29   ar
    29    29    30   ar
    30    30    31   ar
    31    31    32   ar
    32    14     5    1
    33    21    16   ar
    34    27    22   ar
    35    32    28   ar
    36    11     7    1
    37     1    33    1
    38     1    34    1
    39     1    35    1
    40     2    36    1
    41     2    37    1
    42     3    38    1
    43     3    39    1
    44     4    40    1
    45     4    41    1
    46     8    42    1
    47     8    43    1
    48     9    44    1
    49     9    45    1
    50    10    46    1
    51    10    47    1
    52    11    48    1
    53    11    49    1
    54    15    50    1
    55    15    51    1
    56    17    52    1
    57    18    53    1
    58    20    54    1
    59    21    55    1
    60    23    56    1
    61    24    57    1
    62    25    58    1
    63    26    59    1
    64    30    60    1
