@<TRIPOS>MOLECULE
*****
 47 50 0 0 0
SMALL
GASTEIGER

@<TRIPOS>ATOM
      1 C           7.0077   -0.7833   -2.5176 C.3     1  UNL1        0.0774
      2 S           6.5855   -1.2886   -0.8569 S.O2    1  UNL1        0.0667
      3 O           7.3953   -0.5421    0.1632 O.2     1  UNL1       -0.1518
      4 O           6.9298   -2.7675   -0.7621 O.2     1  UNL1       -0.1518
      5 N           4.8813   -1.0517   -0.5660 N.ar    1  UNL1       -0.1407
      6 C           4.3134   -0.2503    0.3491 C.ar    1  UNL1        0.0554
      7 C           2.9259   -0.3355    0.2685 C.ar    1  UNL1        0.0105
      8 C           2.6927   -1.2228   -0.7344 C.ar    1  UNL1        0.0832
      9 N           3.8859   -1.6298   -1.2097 N.ar    1  UNL1       -0.1533
     10 C           1.2390   -1.3914   -0.9068 C.3     1  UNL1        0.0440
     11 N           0.6408   -0.7275    0.2268 N.3     1  UNL1       -0.2872
     12 C          -0.5752   -0.0396   -0.1659 C.3     1  UNL1        0.0360
     13 C          -1.5247   -1.0617   -0.7032 C.3     1  UNL1        0.0641
     14 O          -2.8331   -0.8725   -0.4708 O.3     1  UNL1       -0.3688
     15 C          -3.2446   -0.3746    0.7194 C.3     1  UNL1        0.1015
     16 C          -4.0915    0.8101    0.4683 C.ar    1  UNL1        0.0205
     17 C          -3.7098    1.6277   -0.5782 C.ar    1  UNL1       -0.0180
     18 C          -4.4295    2.7707   -0.9105 C.ar    1  UNL1        0.1239
     19 F          -4.0945    3.5932   -1.9192 F       1  UNL1       -0.2055
     20 C          -5.5426    3.0404   -0.1380 C.ar    1  UNL1       -0.0237
     21 C          -5.9313    2.2276    0.9106 C.ar    1  UNL1       -0.0234
     22 C          -5.2059    1.1141    1.2126 C.ar    1  UNL1        0.1292
     23 F          -5.5401    0.2722    2.2385 F       1  UNL1       -0.2051
     24 C          -2.1371   -0.1490    1.6851 C.3     1  UNL1        0.0371
     25 N          -1.5160   -1.4628    1.9308 N.3     1  UNL1       -0.3248
     26 C          -1.0914    0.6976    1.0384 C.3     1  UNL1       -0.0172
     27 C           1.6228    0.1267    0.8058 C.3     1  UNL1        0.0281
     28 H           7.7989   -1.4077   -2.9340 H       1  UNL1        0.0485
     29 H           7.2410    0.2923   -2.5062 H       1  UNL1        0.0485
     30 H           6.0587   -0.8761   -3.1153 H       1  UNL1        0.0485
     31 H           4.8770    0.3606    1.0354 H       1  UNL1        0.0849
     32 H           0.9755   -2.4746   -0.8384 H       1  UNL1        0.0492
     33 H           0.9153   -0.9942   -1.8779 H       1  UNL1        0.0492
     34 H          -0.2797    0.6901   -0.9600 H       1  UNL1        0.0486
     35 H          -1.2406   -2.0919   -0.3557 H       1  UNL1        0.0576
     36 H          -1.3634   -1.0973   -1.8169 H       1  UNL1        0.0576
     37 H          -3.9336   -1.1408    1.1861 H       1  UNL1        0.0663
     38 H          -2.8416    1.4394   -1.2003 H       1  UNL1        0.0651
     39 H          -6.1291    3.9386   -0.3808 H       1  UNL1        0.0647
     40 H          -6.8041    2.4424    1.5136 H       1  UNL1        0.0647
     41 H          -2.4591    0.2069    2.6731 H       1  UNL1        0.0488
     42 H          -0.6816   -1.2563    2.5388 H       1  UNL1        0.1186
     43 H          -2.1829   -2.0941    2.4231 H       1  UNL1        0.1186
     44 H          -0.2888    0.8743    1.7968 H       1  UNL1        0.0297
     45 H          -1.4321    1.6966    0.7225 H       1  UNL1        0.0297
     46 H           1.4337    1.1990    0.5972 H       1  UNL1        0.0477
     47 H           1.6834   -0.0368    1.9213 H       1  UNL1        0.0477
@<TRIPOS>BOND
     1     1     2    1
     2     2     3    2
     3     2     4    2
     4     2     5    1
     5     5     6   ar
     6     6     7   ar
     7     7     8   ar
     8     8     9   ar
     9     8    10    1
    10    10    11    1
    11    11    12    1
    12    12    13    1
    13    13    14    1
    14    14    15    1
    15    15    16    1
    16    16    17   ar
    17    17    18   ar
    18    18    19    1
    19    18    20   ar
    20    20    21   ar
    21    21    22   ar
    22    22    23    1
    23    15    24    1
    24    24    25    1
    25    24    26    1
    26    11    27    1
    27     9     5   ar
    28    26    12    1
    29    27     7    1
    30    22    16   ar
    31     1    28    1
    32     1    29    1
    33     1    30    1
    34     6    31    1
    35    10    32    1
    36    10    33    1
    37    12    34    1
    38    13    35    1
    39    13    36    1
    40    15    37    1
    41    17    38    1
    42    20    39    1
    43    21    40    1
    44    24    41    1
    45    25    42    1
    46    25    43    1
    47    26    44    1
    48    26    45    1
    49    27    46    1
    50    27    47    1
