@<TRIPOS>MOLECULE
*****
 142 149 0 0 0
SMALL
GASTEIGER

@<TRIPOS>ATOM
      1 C           9.1786    3.1156   -2.0022 C.3     1  UNL1       -0.0235
      2 C           8.4478    1.8357   -1.8598 C.ar    1  UNL1        0.0286
      3 C           7.9884    1.3044   -0.6496 C.ar    1  UNL1        0.0654
      4 C           8.1729    1.9580    0.6225 C.2     1  UNL1        0.2464
      5 O           8.7099    3.1242    0.6473 O.2     1  UNL1       -0.2701
      6 N           7.8169    1.4389    1.8920 N.am    1  UNL1       -0.3112
      7 C           8.0592    2.2089    3.1221 C.3     1  UNL1        0.0131
      8 C           9.5321    2.5010    3.3017 C.3     1  UNL1       -0.0245
      9 C          10.3431    1.2261    3.3881 C.3     1  UNL1        0.0004
     10 N          11.7557    1.5049    3.5520 N.3     1  UNL1       -0.2999
     11 C          12.2031    2.1001    2.3067 C.3     1  UNL1        0.0117
     12 C          13.6724    1.8789    2.0732 C.3     1  UNL1        0.0114
     13 N          13.9260    0.4880    1.7938 N.3     1  UNL1       -0.3029
     14 C          14.1368    0.2972    0.3913 C.3     1  UNL1       -0.0127
     15 C          12.8791   -0.3085    2.3458 C.3     1  UNL1        0.0114
     16 C          12.4278    0.2064    3.6872 C.3     1  UNL1        0.0117
     17 C           7.3806    0.1349   -0.9664 C.ar    1  UNL1        0.0200
     18 C           6.7254   -0.8015   -0.0774 C.ar    1  UNL1       -0.0134
     19 C           7.2975   -1.9263    0.4447 C.ar    1  UNL1       -0.0538
     20 C           6.5672   -2.7608    1.2396 C.ar    1  UNL1       -0.0594
     21 C           5.2609   -2.4881    1.5245 C.ar    1  UNL1       -0.0406
     22 C           4.6177   -1.3636    1.0277 C.ar    1  UNL1        0.0303
     23 N           3.2737   -1.0741    1.2650 N.pl3   1  UNL1       -0.3269
     24 C           2.3148   -2.1487    1.4347 C.3     1  UNL1        0.0280
     25 C           1.0233   -1.8475    0.7745 C.3     1  UNL1        0.0280
     26 N           0.8026   -0.5238    0.2708 N.pl3   1  UNL1       -0.3269
     27 C          -0.5210   -0.2113   -0.2348 C.ar    1  UNL1        0.0298
     28 C          -1.0111    1.0593   -0.3281 C.ar    1  UNL1       -0.0399
     29 C          -2.2610    1.3248   -0.8758 C.ar    1  UNL1       -0.0478
     30 C          -3.0552    0.2814   -1.3501 C.ar    1  UNL1        0.0383
     31 C          -4.3426    0.6190   -1.9426 C.2     1  UNL1        0.2630
     32 O          -4.7773    1.8043   -1.9640 O.2     1  UNL1       -0.2686
     33 N          -5.2133   -0.3540   -2.5488 N.am    1  UNL1       -0.1815
     34 S          -6.7071    0.1106   -3.2455 S.O2    1  UNL1        0.0749
     35 O          -6.6449    1.4891   -3.8419 O.2     1  UNL1       -0.1499
     36 O          -6.9931   -0.8436   -4.3775 O.2     1  UNL1       -0.1499
     37 C          -8.0497    0.0505   -2.1436 C.ar    1  UNL1        0.1151
     38 C          -8.3359    1.0811   -1.2772 C.ar    1  UNL1       -0.0329
     39 C          -9.4299    1.0149   -0.4378 C.ar    1  UNL1       -0.0324
     40 C         -10.2972   -0.0683   -0.4105 C.ar    1  UNL1        0.1057
     41 N         -11.4121   -0.1152    0.4575 N.pl3   1  UNL1       -0.3349
     42 C         -11.7062    0.9949    1.3235 C.3     1  UNL1        0.0313
     43 C         -12.7647    0.5968    2.3648 C.3     1  UNL1       -0.0210
     44 C         -12.2767   -0.5462    3.2121 C.3     1  UNL1        0.0000
     45 N         -13.3116   -0.8747    4.1708 N.3     1  UNL1       -0.3083
     46 C         -13.3921    0.2610    5.0913 C.3     1  UNL1       -0.0130
     47 C         -14.5518   -1.0662    3.4573 C.3     1  UNL1       -0.0130
     48 C         -12.3188    2.1774    0.6052 C.3     1  UNL1        0.0167
     49 S         -13.8679    1.8269   -0.2159 S.3     1  UNL1       -0.1234
     50 C         -13.7626    0.7625   -1.6121 C.ar    1  UNL1        0.0079
     51 C         -13.4835    1.2894   -2.8824 C.ar    1  UNL1       -0.0483
     52 C         -13.4087    0.4996   -4.0067 C.ar    1  UNL1       -0.0607
     53 C         -13.6105   -0.8623   -3.9154 C.ar    1  UNL1       -0.0617
     54 C         -13.8860   -1.3901   -2.6700 C.ar    1  UNL1       -0.0607
     55 C         -13.9617   -0.5973   -1.5373 C.ar    1  UNL1       -0.0483
     56 C          -9.9973   -1.0976   -1.2835 C.ar    1  UNL1        0.2956
     57 N         -10.7851   -2.2609   -1.3735 N.pl3   1  UNL1        0.0816
     58 O         -10.8262   -2.8557   -2.4933 O.2     1  UNL1        0.0415
     59 O         -11.5268   -2.8359   -0.3969 O.co2   1  UNL1       -0.5760
     60 C          -8.8881   -1.0369   -2.1378 C.ar    1  UNL1        0.0441
     61 C          -2.5524   -0.9900   -1.2481 C.ar    1  UNL1       -0.0478
     62 C          -1.2915   -1.2465   -0.6941 C.ar    1  UNL1       -0.0399
     63 C           1.8374    0.4513    0.2164 C.3     1  UNL1        0.0280
     64 C           2.8160    0.3036    1.3282 C.3     1  UNL1        0.0280
     65 C           5.3998   -0.5375    0.2208 C.ar    1  UNL1       -0.0329
     66 C           7.4615   -0.0577   -2.3508 C.ar    1  UNL1        0.0576
     67 C           6.9253   -1.1980   -3.0763 C.ar    1  UNL1       -0.0008
     68 C           7.4174   -2.4763   -2.9008 C.ar    1  UNL1       -0.0512
     69 C           6.9398   -3.5787   -3.5623 C.ar    1  UNL1       -0.0428
     70 C           5.9101   -3.3863   -4.4504 C.ar    1  UNL1        0.0410
     71 CL          5.2753   -4.7691   -5.3131 Cl      1  UNL1       -0.0835
     72 C           5.3886   -2.1093   -4.6530 C.ar    1  UNL1       -0.0428
     73 C           5.8838   -1.0266   -3.9792 C.ar    1  UNL1       -0.0512
     74 N           8.1137    0.9899   -2.8643 N.ar    1  UNL1       -0.3459
     75 C           8.4247    1.2122   -4.2607 C.3     1  UNL1        0.0122
     76 H          10.0593    3.1989   -1.3349 H       1  UNL1        0.0292
     77 H           9.5751    3.1925   -3.0429 H       1  UNL1        0.0292
     78 H           8.5143    3.9933   -1.7966 H       1  UNL1        0.0292
     79 H           7.3857    0.5023    1.9347 H       1  UNL1        0.1490
     80 H           7.5382    3.1791    2.9687 H       1  UNL1        0.0462
     81 H           7.6237    1.7112    3.9923 H       1  UNL1        0.0462
     82 H           9.9220    3.2362    2.6034 H       1  UNL1        0.0293
     83 H           9.6059    2.9798    4.3236 H       1  UNL1        0.0293
     84 H          10.0389    0.6318    4.2706 H       1  UNL1        0.0427
     85 H          10.2345    0.5917    2.5009 H       1  UNL1        0.0427
     86 H          11.6436    1.6910    1.4508 H       1  UNL1        0.0439
     87 H          11.9906    3.2067    2.3429 H       1  UNL1        0.0439
     88 H          14.2863    2.1778    2.9569 H       1  UNL1        0.0439
     89 H          14.0511    2.4692    1.2114 H       1  UNL1        0.0439
     90 H          13.5473    1.0280   -0.2119 H       1  UNL1        0.0391
     91 H          15.2150    0.4899    0.1156 H       1  UNL1        0.0391
     92 H          13.8684   -0.7023    0.0133 H       1  UNL1        0.0391
     93 H          13.1459   -1.3819    2.4414 H       1  UNL1        0.0439
     94 H          11.9968   -0.2986    1.6544 H       1  UNL1        0.0439
     95 H          13.3066    0.3300    4.3464 H       1  UNL1        0.0439
     96 H          11.7004   -0.4823    4.1606 H       1  UNL1        0.0439
     97 H           8.3180   -2.1504    0.2280 H       1  UNL1        0.0624
     98 H           6.9828   -3.6680    1.6756 H       1  UNL1        0.0618
     99 H           4.6685   -3.1372    2.1508 H       1  UNL1        0.0636
    100 H           2.1406   -2.2348    2.5442 H       1  UNL1        0.0479
    101 H           2.7825   -3.1115    1.1376 H       1  UNL1        0.0479
    102 H           0.9810   -2.5192   -0.1439 H       1  UNL1        0.0479
    103 H           0.1669   -2.2195    1.3857 H       1  UNL1        0.0479
    104 H          -0.4310    1.8815    0.0307 H       1  UNL1        0.0636
    105 H          -2.5875    2.3540   -0.9182 H       1  UNL1        0.0626
    106 H          -4.9287   -1.3351   -2.5612 H       1  UNL1        0.1769
    107 H          -7.7148    1.9609   -1.2336 H       1  UNL1        0.0638
    108 H          -9.6200    1.8253    0.2578 H       1  UNL1        0.0639
    109 H         -12.0549   -0.9256    0.5231 H       1  UNL1        0.1466
    110 H         -10.8050    1.3002    1.8434 H       1  UNL1        0.0506
    111 H         -12.8700    1.4851    3.0215 H       1  UNL1        0.0296
    112 H         -13.6934    0.2944    1.8712 H       1  UNL1        0.0296
    113 H         -12.0124   -1.4315    2.6084 H       1  UNL1        0.0427
    114 H         -11.3476   -0.2262    3.7450 H       1  UNL1        0.0427
    115 H         -12.3369    0.5962    5.2571 H       1  UNL1        0.0391
    116 H         -13.9931    1.0900    4.6723 H       1  UNL1        0.0391
    117 H         -13.8950   -0.0233    6.0438 H       1  UNL1        0.0391
    118 H         -15.2060   -1.7740    4.0317 H       1  UNL1        0.0391
    119 H         -14.3765   -1.5362    2.4545 H       1  UNL1        0.0391
    120 H         -15.1041   -0.1258    3.2662 H       1  UNL1        0.0391
    121 H         -12.5688    2.9191    1.4300 H       1  UNL1        0.0398
    122 H         -11.6432    2.7097   -0.0631 H       1  UNL1        0.0398
    123 H         -13.3193    2.3509   -3.0006 H       1  UNL1        0.0629
    124 H         -13.1896    0.9305   -4.9895 H       1  UNL1        0.0618
    125 H         -13.5467   -1.4618   -4.8116 H       1  UNL1        0.0618
    126 H         -14.0495   -2.4519   -2.5508 H       1  UNL1        0.0618
    127 H         -14.1800   -1.0474   -0.5787 H       1  UNL1        0.0629
    128 H          -8.7112   -1.8928   -2.8038 H       1  UNL1        0.0706
    129 H          -3.1752   -1.7942   -1.6171 H       1  UNL1        0.0626
    130 H          -0.9680   -2.2747   -0.6504 H       1  UNL1        0.0636
    131 H           2.4115    0.2292   -0.7416 H       1  UNL1        0.0479
    132 H           1.5005    1.4978    0.0687 H       1  UNL1        0.0479
    133 H           2.2822    0.4021    2.2974 H       1  UNL1        0.0479
    134 H           3.6308    1.0160    1.2069 H       1  UNL1        0.0479
    135 H           4.9101    0.3519   -0.1835 H       1  UNL1        0.0642
    136 H           8.2292   -2.6062   -2.1993 H       1  UNL1        0.0625
    137 H           7.3798   -4.5528   -3.3696 H       1  UNL1        0.0632
    138 H           4.5802   -1.9702   -5.3532 H       1  UNL1        0.0632
    139 H           5.5184   -0.0196   -4.0977 H       1  UNL1        0.0625
    140 H           8.3370    0.2722   -4.8494 H       1  UNL1        0.0456
    141 H           7.7333    1.9341   -4.7408 H       1  UNL1        0.0456
    142 H           9.4400    1.6056   -4.3371 H       1  UNL1        0.0456
@<TRIPOS>UNITY_ATOM_ATTR
57 1
charge 1
59 1
charge -1
@<TRIPOS>BOND
     1     1     2    1
     2     2     3   ar
     3     3     4    1
     4     4     5    2
     5     4     6   am
     6     6     7    1
     7     7     8    1
     8     8     9    1
     9     9    10    1
    10    10    11    1
    11    11    12    1
    12    12    13    1
    13    13    14    1
    14    13    15    1
    15    15    16    1
    16     3    17   ar
    17    17    18    1
    18    18    19   ar
    19    19    20   ar
    20    20    21   ar
    21    21    22   ar
    22    22    23    1
    23    23    24    1
    24    24    25    1
    25    25    26    1
    26    26    27    1
    27    27    28   ar
    28    28    29   ar
    29    29    30   ar
    30    30    31    1
    31    31    32    2
    32    31    33   am
    33    33    34    1
    34    34    35    2
    35    34    36    2
    36    34    37    1
    37    37    38   ar
    38    38    39   ar
    39    39    40   ar
    40    40    41    1
    41    41    42    1
    42    42    43    1
    43    43    44    1
    44    44    45    1
    45    45    46    1
    46    45    47    1
    47    42    48    1
    48    48    49    1
    49    49    50    1
    50    50    51   ar
    51    51    52   ar
    52    52    53   ar
    53    53    54   ar
    54    54    55   ar
    55    40    56   ar
    56    56    57    1
    57    57    58    2
    58    57    59    1
    59    56    60   ar
    60    30    61   ar
    61    61    62   ar
    62    26    63    1
    63    63    64    1
    64    22    65   ar
    65    17    66   ar
    66    66    67    1
    67    67    68   ar
    68    68    69   ar
    69    69    70   ar
    70    70    71    1
    71    70    72   ar
    72    72    73   ar
    73    66    74   ar
    74    74    75    1
    75    74     2   ar
    76    16    10    1
    77    65    18   ar
    78    73    67   ar
    79    64    23    1
    80    62    27   ar
    81    60    37   ar
    82    55    50   ar
    83     1    76    1
    84     1    77    1
    85     1    78    1
    86     6    79    1
    87     7    80    1
    88     7    81    1
    89     8    82    1
    90     8    83    1
    91     9    84    1
    92     9    85    1
    93    11    86    1
    94    11    87    1
    95    12    88    1
    96    12    89    1
    97    14    90    1
    98    14    91    1
    99    14    92    1
   100    15    93    1
   101    15    94    1
   102    16    95    1
   103    16    96    1
   104    19    97    1
   105    20    98    1
   106    21    99    1
   107    24   100    1
   108    24   101    1
   109    25   102    1
   110    25   103    1
   111    28   104    1
   112    29   105    1
   113    33   106    1
   114    38   107    1
   115    39   108    1
   116    41   109    1
   117    42   110    1
   118    43   111    1
   119    43   112    1
   120    44   113    1
   121    44   114    1
   122    46   115    1
   123    46   116    1
   124    46   117    1
   125    47   118    1
   126    47   119    1
   127    47   120    1
   128    48   121    1
   129    48   122    1
   130    51   123    1
   131    52   124    1
   132    53   125    1
   133    54   126    1
   134    55   127    1
   135    60   128    1
   136    61   129    1
   137    62   130    1
   138    63   131    1
   139    63   132    1
   140    64   133    1
   141    64   134    1
   142    65   135    1
   143    68   136    1
   144    69   137    1
   145    72   138    1
   146    73   139    1
   147    75   140    1
   148    75   141    1
   149    75   142    1
