
     RDKit          3D

142149  0  0  0  0  0  0  0  0999 V2000
    9.1786    3.1156   -2.0022 C   0  0  0  0  0  0  0  0  0  0  0  0
    8.4478    1.8357   -1.8598 C   0  0  0  0  0  0  0  0  0  0  0  0
    7.9884    1.3044   -0.6496 C   0  0  0  0  0  0  0  0  0  0  0  0
    8.1729    1.9580    0.6225 C   0  0  0  0  0  0  0  0  0  0  0  0
    8.7099    3.1242    0.6473 O   0  0  0  0  0  0  0  0  0  0  0  0
    7.8169    1.4389    1.8920 N   0  0  0  0  0  0  0  0  0  0  0  0
    8.0592    2.2089    3.1221 C   0  0  0  0  0  0  0  0  0  0  0  0
    9.5321    2.5010    3.3017 C   0  0  0  0  0  0  0  0  0  0  0  0
   10.3431    1.2261    3.3881 C   0  0  0  0  0  0  0  0  0  0  0  0
   11.7557    1.5049    3.5520 N   0  0  0  0  0  0  0  0  0  0  0  0
   12.2031    2.1001    2.3067 C   0  0  0  0  0  0  0  0  0  0  0  0
   13.6724    1.8789    2.0732 C   0  0  0  0  0  0  0  0  0  0  0  0
   13.9260    0.4880    1.7938 N   0  0  0  0  0  0  0  0  0  0  0  0
   14.1368    0.2972    0.3913 C   0  0  0  0  0  0  0  0  0  0  0  0
   12.8791   -0.3085    2.3458 C   0  0  0  0  0  0  0  0  0  0  0  0
   12.4278    0.2064    3.6872 C   0  0  0  0  0  0  0  0  0  0  0  0
    7.3806    0.1349   -0.9664 C   0  0  0  0  0  0  0  0  0  0  0  0
    6.7254   -0.8015   -0.0774 C   0  0  0  0  0  0  0  0  0  0  0  0
    7.2975   -1.9263    0.4447 C   0  0  0  0  0  0  0  0  0  0  0  0
    6.5672   -2.7608    1.2396 C   0  0  0  0  0  0  0  0  0  0  0  0
    5.2609   -2.4881    1.5245 C   0  0  0  0  0  0  0  0  0  0  0  0
    4.6177   -1.3636    1.0277 C   0  0  0  0  0  0  0  0  0  0  0  0
    3.2737   -1.0741    1.2650 N   0  0  0  0  0  0  0  0  0  0  0  0
    2.3148   -2.1487    1.4347 C   0  0  0  0  0  0  0  0  0  0  0  0
    1.0233   -1.8475    0.7745 C   0  0  0  0  0  0  0  0  0  0  0  0
    0.8026   -0.5238    0.2708 N   0  0  0  0  0  0  0  0  0  0  0  0
   -0.5210   -0.2113   -0.2348 C   0  0  0  0  0  0  0  0  0  0  0  0
   -1.0111    1.0593   -0.3281 C   0  0  0  0  0  0  0  0  0  0  0  0
   -2.2610    1.3248   -0.8758 C   0  0  0  0  0  0  0  0  0  0  0  0
   -3.0552    0.2814   -1.3501 C   0  0  0  0  0  0  0  0  0  0  0  0
   -4.3426    0.6190   -1.9426 C   0  0  0  0  0  0  0  0  0  0  0  0
   -4.7773    1.8043   -1.9640 O   0  0  0  0  0  0  0  0  0  0  0  0
   -5.2133   -0.3540   -2.5488 N   0  0  0  0  0  0  0  0  0  0  0  0
   -6.7071    0.1106   -3.2455 S   0  0  0  0  0  6  0  0  0  0  0  0
   -6.6449    1.4891   -3.8419 O   0  0  0  0  0  0  0  0  0  0  0  0
   -6.9931   -0.8436   -4.3775 O   0  0  0  0  0  0  0  0  0  0  0  0
   -8.0497    0.0505   -2.1436 C   0  0  0  0  0  0  0  0  0  0  0  0
   -8.3359    1.0811   -1.2772 C   0  0  0  0  0  0  0  0  0  0  0  0
   -9.4299    1.0149   -0.4378 C   0  0  0  0  0  0  0  0  0  0  0  0
  -10.2972   -0.0683   -0.4105 C   0  0  0  0  0  0  0  0  0  0  0  0
  -11.4121   -0.1152    0.4575 N   0  0  0  0  0  0  0  0  0  0  0  0
  -11.7062    0.9949    1.3235 C   0  0  2  0  0  0  0  0  0  0  0  0
  -12.7647    0.5968    2.3648 C   0  0  0  0  0  0  0  0  0  0  0  0
  -12.2767   -0.5462    3.2121 C   0  0  0  0  0  0  0  0  0  0  0  0
  -13.3116   -0.8747    4.1708 N   0  0  0  0  0  0  0  0  0  0  0  0
  -13.3921    0.2610    5.0913 C   0  0  0  0  0  0  0  0  0  0  0  0
  -14.5518   -1.0662    3.4573 C   0  0  0  0  0  0  0  0  0  0  0  0
  -12.3188    2.1774    0.6052 C   0  0  0  0  0  0  0  0  0  0  0  0
  -13.8679    1.8269   -0.2159 S   0  0  0  0  0  0  0  0  0  0  0  0
  -13.7626    0.7625   -1.6121 C   0  0  0  0  0  0  0  0  0  0  0  0
  -13.4835    1.2894   -2.8824 C   0  0  0  0  0  0  0  0  0  0  0  0
  -13.4087    0.4996   -4.0067 C   0  0  0  0  0  0  0  0  0  0  0  0
  -13.6105   -0.8623   -3.9154 C   0  0  0  0  0  0  0  0  0  0  0  0
  -13.8860   -1.3901   -2.6700 C   0  0  0  0  0  0  0  0  0  0  0  0
  -13.9617   -0.5973   -1.5373 C   0  0  0  0  0  0  0  0  0  0  0  0
   -9.9973   -1.0976   -1.2835 C   0  0  0  0  0  0  0  0  0  0  0  0
  -10.7851   -2.2609   -1.3735 N   0  0  0  0  0  4  0  0  0  0  0  0
  -10.8262   -2.8557   -2.4933 O   0  0  0  0  0  0  0  0  0  0  0  0
  -11.5268   -2.8359   -0.3969 O   0  0  0  0  0  1  0  0  0  0  0  0
   -8.8881   -1.0369   -2.1378 C   0  0  0  0  0  0  0  0  0  0  0  0
   -2.5524   -0.9900   -1.2481 C   0  0  0  0  0  0  0  0  0  0  0  0
   -1.2915   -1.2465   -0.6941 C   0  0  0  0  0  0  0  0  0  0  0  0
    1.8374    0.4513    0.2164 C   0  0  0  0  0  0  0  0  0  0  0  0
    2.8160    0.3036    1.3282 C   0  0  0  0  0  0  0  0  0  0  0  0
    5.3998   -0.5375    0.2208 C   0  0  0  0  0  0  0  0  0  0  0  0
    7.4615   -0.0577   -2.3508 C   0  0  0  0  0  0  0  0  0  0  0  0
    6.9253   -1.1980   -3.0763 C   0  0  0  0  0  0  0  0  0  0  0  0
    7.4174   -2.4763   -2.9008 C   0  0  0  0  0  0  0  0  0  0  0  0
    6.9398   -3.5787   -3.5623 C   0  0  0  0  0  0  0  0  0  0  0  0
    5.9101   -3.3863   -4.4504 C   0  0  0  0  0  0  0  0  0  0  0  0
    5.2753   -4.7691   -5.3131 Cl  0  0  0  0  0  0  0  0  0  0  0  0
    5.3886   -2.1093   -4.6530 C   0  0  0  0  0  0  0  0  0  0  0  0
    5.8838   -1.0266   -3.9792 C   0  0  0  0  0  0  0  0  0  0  0  0
    8.1137    0.9899   -2.8643 N   0  0  0  0  0  0  0  0  0  0  0  0
    8.4247    1.2122   -4.2607 C   0  0  0  0  0  0  0  0  0  0  0  0
   10.0593    3.1989   -1.3349 H   0  0  0  0  0  0  0  0  0  0  0  0
    9.5751    3.1925   -3.0429 H   0  0  0  0  0  0  0  0  0  0  0  0
    8.5143    3.9933   -1.7966 H   0  0  0  0  0  0  0  0  0  0  0  0
    7.3857    0.5023    1.9347 H   0  0  0  0  0  0  0  0  0  0  0  0
    7.5382    3.1791    2.9687 H   0  0  0  0  0  0  0  0  0  0  0  0
    7.6237    1.7112    3.9923 H   0  0  0  0  0  0  0  0  0  0  0  0
    9.9220    3.2362    2.6034 H   0  0  0  0  0  0  0  0  0  0  0  0
    9.6059    2.9798    4.3236 H   0  0  0  0  0  0  0  0  0  0  0  0
   10.0389    0.6318    4.2706 H   0  0  0  0  0  0  0  0  0  0  0  0
   10.2345    0.5917    2.5009 H   0  0  0  0  0  0  0  0  0  0  0  0
   11.6436    1.6910    1.4508 H   0  0  0  0  0  0  0  0  0  0  0  0
   11.9906    3.2067    2.3429 H   0  0  0  0  0  0  0  0  0  0  0  0
   14.2863    2.1778    2.9569 H   0  0  0  0  0  0  0  0  0  0  0  0
   14.0511    2.4692    1.2114 H   0  0  0  0  0  0  0  0  0  0  0  0
   13.5473    1.0280   -0.2119 H   0  0  0  0  0  0  0  0  0  0  0  0
   15.2150    0.4899    0.1156 H   0  0  0  0  0  0  0  0  0  0  0  0
   13.8684   -0.7023    0.0133 H   0  0  0  0  0  0  0  0  0  0  0  0
   13.1459   -1.3819    2.4414 H   0  0  0  0  0  0  0  0  0  0  0  0
   11.9968   -0.2986    1.6544 H   0  0  0  0  0  0  0  0  0  0  0  0
   13.3066    0.3300    4.3464 H   0  0  0  0  0  0  0  0  0  0  0  0
   11.7004   -0.4823    4.1606 H   0  0  0  0  0  0  0  0  0  0  0  0
    8.3180   -2.1504    0.2280 H   0  0  0  0  0  0  0  0  0  0  0  0
    6.9828   -3.6680    1.6756 H   0  0  0  0  0  0  0  0  0  0  0  0
    4.6685   -3.1372    2.1508 H   0  0  0  0  0  0  0  0  0  0  0  0
    2.1406   -2.2348    2.5442 H   0  0  0  0  0  0  0  0  0  0  0  0
    2.7825   -3.1115    1.1376 H   0  0  0  0  0  0  0  0  0  0  0  0
    0.9810   -2.5192   -0.1439 H   0  0  0  0  0  0  0  0  0  0  0  0
    0.1669   -2.2195    1.3857 H   0  0  0  0  0  0  0  0  0  0  0  0
   -0.4310    1.8815    0.0307 H   0  0  0  0  0  0  0  0  0  0  0  0
   -2.5875    2.3540   -0.9182 H   0  0  0  0  0  0  0  0  0  0  0  0
   -4.9287   -1.3351   -2.5612 H   0  0  0  0  0  0  0  0  0  0  0  0
   -7.7148    1.9609   -1.2336 H   0  0  0  0  0  0  0  0  0  0  0  0
   -9.6200    1.8253    0.2578 H   0  0  0  0  0  0  0  0  0  0  0  0
  -12.0549   -0.9256    0.5231 H   0  0  0  0  0  0  0  0  0  0  0  0
  -10.8050    1.3002    1.8434 H   0  0  0  0  0  0  0  0  0  0  0  0
  -12.8700    1.4851    3.0215 H   0  0  0  0  0  0  0  0  0  0  0  0
  -13.6934    0.2944    1.8712 H   0  0  0  0  0  0  0  0  0  0  0  0
  -12.0124   -1.4315    2.6084 H   0  0  0  0  0  0  0  0  0  0  0  0
  -11.3476   -0.2262    3.7450 H   0  0  0  0  0  0  0  0  0  0  0  0
  -12.3369    0.5962    5.2571 H   0  0  0  0  0  0  0  0  0  0  0  0
  -13.9931    1.0900    4.6723 H   0  0  0  0  0  0  0  0  0  0  0  0
  -13.8950   -0.0233    6.0438 H   0  0  0  0  0  0  0  0  0  0  0  0
  -15.2060   -1.7740    4.0317 H   0  0  0  0  0  0  0  0  0  0  0  0
  -14.3765   -1.5362    2.4545 H   0  0  0  0  0  0  0  0  0  0  0  0
  -15.1041   -0.1258    3.2662 H   0  0  0  0  0  0  0  0  0  0  0  0
  -12.5688    2.9191    1.4300 H   0  0  0  0  0  0  0  0  0  0  0  0
  -11.6432    2.7097   -0.0631 H   0  0  0  0  0  0  0  0  0  0  0  0
  -13.3193    2.3509   -3.0006 H   0  0  0  0  0  0  0  0  0  0  0  0
  -13.1896    0.9305   -4.9895 H   0  0  0  0  0  0  0  0  0  0  0  0
  -13.5467   -1.4618   -4.8116 H   0  0  0  0  0  0  0  0  0  0  0  0
  -14.0495   -2.4519   -2.5508 H   0  0  0  0  0  0  0  0  0  0  0  0
  -14.1800   -1.0474   -0.5787 H   0  0  0  0  0  0  0  0  0  0  0  0
   -8.7112   -1.8928   -2.8038 H   0  0  0  0  0  0  0  0  0  0  0  0
   -3.1752   -1.7942   -1.6171 H   0  0  0  0  0  0  0  0  0  0  0  0
   -0.9680   -2.2747   -0.6504 H   0  0  0  0  0  0  0  0  0  0  0  0
    2.4115    0.2292   -0.7416 H   0  0  0  0  0  0  0  0  0  0  0  0
    1.5005    1.4978    0.0687 H   0  0  0  0  0  0  0  0  0  0  0  0
    2.2822    0.4021    2.2974 H   0  0  0  0  0  0  0  0  0  0  0  0
    3.6308    1.0160    1.2069 H   0  0  0  0  0  0  0  0  0  0  0  0
    4.9101    0.3519   -0.1835 H   0  0  0  0  0  0  0  0  0  0  0  0
    8.2292   -2.6062   -2.1993 H   0  0  0  0  0  0  0  0  0  0  0  0
    7.3798   -4.5528   -3.3696 H   0  0  0  0  0  0  0  0  0  0  0  0
    4.5802   -1.9702   -5.3532 H   0  0  0  0  0  0  0  0  0  0  0  0
    5.5184   -0.0196   -4.0977 H   0  0  0  0  0  0  0  0  0  0  0  0
    8.3370    0.2722   -4.8494 H   0  0  0  0  0  0  0  0  0  0  0  0
    7.7333    1.9341   -4.7408 H   0  0  0  0  0  0  0  0  0  0  0  0
    9.4400    1.6056   -4.3371 H   0  0  0  0  0  0  0  0  0  0  0  0
  1  2  1  0
  2  3  2  0
  3  4  1  0
  4  5  2  0
  4  6  1  0
  6  7  1  0
  7  8  1  0
  8  9  1  0
  9 10  1  0
 10 11  1  0
 11 12  1  0
 12 13  1  0
 13 14  1  0
 13 15  1  0
 15 16  1  0
  3 17  1  0
 17 18  1  0
 18 19  2  0
 19 20  1  0
 20 21  2  0
 21 22  1  0
 22 23  1  0
 23 24  1  0
 24 25  1  0
 25 26  1  0
 26 27  1  0
 27 28  2  0
 28 29  1  0
 29 30  2  0
 30 31  1  0
 31 32  2  0
 31 33  1  0
 33 34  1  0
 34 35  2  0
 34 36  2  0
 34 37  1  0
 37 38  2  0
 38 39  1  0
 39 40  2  0
 40 41  1  0
 41 42  1  0
 42 43  1  0
 43 44  1  0
 44 45  1  0
 45 46  1  0
 45 47  1  0
 42 48  1  0
 48 49  1  0
 49 50  1  0
 50 51  2  0
 51 52  1  0
 52 53  2  0
 53 54  1  0
 54 55  2  0
 40 56  1  0
 56 57  1  0
 57 58  2  0
 57 59  1  0
 56 60  2  0
 30 61  1  0
 61 62  2  0
 26 63  1  0
 63 64  1  0
 22 65  2  0
 17 66  2  0
 66 67  1  0
 67 68  2  0
 68 69  1  0
 69 70  2  0
 70 71  1  0
 70 72  1  0
 72 73  2  0
 66 74  1  0
 74 75  1  0
 74  2  1  0
 16 10  1  0
 65 18  1  0
 73 67  1  0
 64 23  1  0
 62 27  1  0
 60 37  1  0
 55 50  1  0
  1 76  1  0
  1 77  1  0
  1 78  1  0
  6 79  1  0
  7 80  1  0
  7 81  1  0
  8 82  1  0
  8 83  1  0
  9 84  1  0
  9 85  1  0
 11 86  1  0
 11 87  1  0
 12 88  1  0
 12 89  1  0
 14 90  1  0
 14 91  1  0
 14 92  1  0
 15 93  1  0
 15 94  1  0
 16 95  1  0
 16 96  1  0
 19 97  1  0
 20 98  1  0
 21 99  1  0
 24100  1  0
 24101  1  0
 25102  1  0
 25103  1  0
 28104  1  0
 29105  1  0
 33106  1  0
 38107  1  0
 39108  1  0
 41109  1  0
 42110  1  1
 43111  1  0
 43112  1  0
 44113  1  0
 44114  1  0
 46115  1  0
 46116  1  0
 46117  1  0
 47118  1  0
 47119  1  0
 47120  1  0
 48121  1  0
 48122  1  0
 51123  1  0
 52124  1  0
 53125  1  0
 54126  1  0
 55127  1  0
 60128  1  0
 61129  1  0
 62130  1  0
 63131  1  0
 63132  1  0
 64133  1  0
 64134  1  0
 65135  1  0
 68136  1  0
 69137  1  0
 72138  1  0
 73139  1  0
 75140  1  0
 75141  1  0
 75142  1  0
M  CHG  2  57   1  59  -1
M  END
$$$$
