@<TRIPOS>MOLECULE
*****
 43 45 0 0 0
SMALL
GASTEIGER

@<TRIPOS>ATOM
      1 C           1.0510   -0.9307    1.0851 C.3     1  UNL1       -0.0598
      2 C           1.2160   -0.0150   -0.1471 C.3     1  UNL1       -0.0150
      3 C           2.5761   -0.3211   -0.7870 C.3     1  UNL1        0.0023
      4 N           3.5833   -0.0413    0.2211 N.3     1  UNL1       -0.3080
      5 C           4.8952   -0.5130   -0.2236 C.3     1  UNL1       -0.0130
      6 C           3.6654    1.4231    0.3904 C.3     1  UNL1       -0.0130
      7 C           0.1179   -0.3165   -1.1273 C.3     1  UNL1        0.0211
      8 N          -1.2265   -0.1265   -0.6258 N.pl3   1  UNL1       -0.2980
      9 C          -1.7036    1.1962   -0.4363 C.ar    1  UNL1        0.0479
     10 C          -0.9197    2.2859   -0.7733 C.ar    1  UNL1       -0.0393
     11 C          -1.2929    3.6066   -0.6362 C.ar    1  UNL1       -0.0599
     12 C          -2.5475    3.8864   -0.1243 C.ar    1  UNL1       -0.0606
     13 C          -3.3674    2.8335    0.2258 C.ar    1  UNL1       -0.0462
     14 C          -2.9171    1.5555    0.0573 C.ar    1  UNL1        0.0341
     15 S          -4.0809    0.3235    0.5379 S.3     1  UNL1       -0.0857
     16 C          -3.2849   -1.2295    0.2085 C.ar    1  UNL1        0.0341
     17 C          -4.0526   -2.2996    0.5203 C.ar    1  UNL1       -0.0462
     18 C          -3.5488   -3.5754    0.3201 C.ar    1  UNL1       -0.0606
     19 C          -2.2689   -3.6877   -0.1953 C.ar    1  UNL1       -0.0599
     20 C          -1.5634   -2.5195   -0.4821 C.ar    1  UNL1       -0.0393
     21 C          -2.0290   -1.2351   -0.2984 C.ar    1  UNL1        0.0479
     22 H           0.0826   -0.7539    1.5581 H       1  UNL1        0.0233
     23 H           1.8449   -0.7540    1.8267 H       1  UNL1        0.0233
     24 H           1.1797   -1.9622    0.7017 H       1  UNL1        0.0233
     25 H           1.2792    0.9920    0.2540 H       1  UNL1        0.0326
     26 H           2.7787    0.3997   -1.6221 H       1  UNL1        0.0429
     27 H           2.6371   -1.3221   -1.2078 H       1  UNL1        0.0429
     28 H           5.1661   -1.4266    0.3605 H       1  UNL1        0.0391
     29 H           5.6164    0.2924   -0.0650 H       1  UNL1        0.0391
     30 H           4.8299   -0.7876   -1.2748 H       1  UNL1        0.0391
     31 H           3.4796    1.7358    1.4279 H       1  UNL1        0.0391
     32 H           4.6972    1.7561    0.1067 H       1  UNL1        0.0391
     33 H           2.9750    1.9192   -0.3073 H       1  UNL1        0.0391
     34 H           0.3252   -1.2867   -1.5813 H       1  UNL1        0.0471
     35 H           0.3117    0.4068   -1.9940 H       1  UNL1        0.0471
     36 H           0.0556    2.2190   -1.1960 H       1  UNL1        0.0636
     37 H          -0.6814    4.4589   -0.9021 H       1  UNL1        0.0618
     38 H          -2.8692    4.9214   -0.0054 H       1  UNL1        0.0618
     39 H          -4.3263    3.1132    0.6152 H       1  UNL1        0.0629
     40 H          -5.0559   -2.2819    0.9251 H       1  UNL1        0.0629
     41 H          -4.1217   -4.4595    0.5531 H       1  UNL1        0.0618
     42 H          -1.9089   -4.7001   -0.3404 H       1  UNL1        0.0618
     43 H          -0.5970   -2.7793   -0.8670 H       1  UNL1        0.0636
@<TRIPOS>BOND
     1     1     2    1
     2     2     3    1
     3     3     4    1
     4     4     5    1
     5     4     6    1
     6     2     7    1
     7     7     8    1
     8     8     9    1
     9     9    10   ar
    10    10    11   ar
    11    11    12   ar
    12    12    13   ar
    13    13    14   ar
    14    14    15    1
    15    15    16    1
    16    16    17   ar
    17    17    18   ar
    18    18    19   ar
    19    19    20   ar
    20    20    21   ar
    21    21     8    1
    22    14     9   ar
    23    21    16   ar
    24     1    22    1
    25     1    23    1
    26     1    24    1
    27     2    25    1
    28     3    26    1
    29     3    27    1
    30     5    28    1
    31     5    29    1
    32     5    30    1
    33     6    31    1
    34     6    32    1
    35     6    33    1
    36     7    34    1
    37     7    35    1
    38    10    36    1
    39    11    37    1
    40    12    38    1
    41    13    39    1
    42    17    40    1
    43    18    41    1
    44    19    42    1
    45    20    43    1
