@<TRIPOS>MOLECULE
*****
 67 72 0 0 0
SMALL
GASTEIGER

@<TRIPOS>ATOM
      1 N          -7.8137    2.1004    0.0017 N.am    1  UNL1       -0.3289
      2 C          -6.7867    1.9352    0.9844 C.2     1  UNL1        0.2167
      3 O          -6.8295    2.6297    2.0317 O.2     1  UNL1       -0.2754
      4 C          -5.6897    0.9628    0.7716 C.3     1  UNL1        0.0476
      5 C          -4.7201    1.0384    1.9265 C.3     1  UNL1       -0.0345
      6 C          -3.5939    0.0742    1.6288 C.3     1  UNL1       -0.0211
      7 C          -4.1627   -1.3089    1.5185 C.3     1  UNL1       -0.0456
      8 C          -5.1172   -1.4022    0.3545 C.3     1  UNL1       -0.0395
      9 C          -4.4164   -1.0099   -0.9253 C.3     1  UNL1       -0.0456
     10 C          -3.8248    0.3551   -0.7804 C.3     1  UNL1       -0.0211
     11 C          -4.9575    1.3491   -0.4752 C.3     1  UNL1       -0.0345
     12 C          -2.8594    0.4476    0.3563 C.3     1  UNL1        0.0289
     13 N          -1.7044   -0.3908    0.2659 N.am    1  UNL1       -0.3104
     14 C          -0.3741    0.0961    0.1981 C.2     1  UNL1        0.2337
     15 O          -0.2618    1.3605    0.2123 O.2     1  UNL1       -0.2738
     16 C           0.8020   -0.7640    0.1198 C.3     1  UNL1        0.0988
     17 N           2.0881   -0.2093   -0.2362 N.3     1  UNL1       -0.2860
     18 C           2.0952    0.2717   -1.6054 C.3     1  UNL1        0.0157
     19 C           3.5586    0.4280   -2.0430 C.3     1  UNL1        0.0263
     20 N           4.3476    0.8516   -0.9143 N.pl3   1  UNL1       -0.3127
     21 C           5.7027    0.5147   -0.7751 C.ar    1  UNL1        0.1213
     22 C           6.3998   -0.2493   -1.6903 C.ar    1  UNL1       -0.0212
     23 C           7.7400   -0.5781   -1.5340 C.ar    1  UNL1       -0.0454
     24 C           8.4311   -0.1403   -0.4319 C.ar    1  UNL1        0.0730
     25 C           9.8523   -0.4305   -0.1596 C.3     1  UNL1        0.4188
     26 F          10.3572   -1.3620   -1.0555 F       1  UNL1       -0.1658
     27 F          10.5821    0.7313   -0.2123 F       1  UNL1       -0.1658
     28 F           9.9474   -0.9476    1.1388 F       1  UNL1       -0.1658
     29 C           7.7297    0.6204    0.4760 C.ar    1  UNL1        0.0413
     30 N           6.4369    0.9214    0.2967 N.ar    1  UNL1       -0.2398
     31 C           3.6852    1.6428    0.0925 C.3     1  UNL1        0.0263
     32 C           2.6184    0.7207    0.7047 C.3     1  UNL1        0.0157
     33 C           0.8716   -1.9554    1.0424 C.3     1  UNL1       -0.0238
     34 C           0.5283   -2.1942   -0.3704 C.3     1  UNL1       -0.0238
     35 C          -6.2527   -0.4331    0.6155 C.3     1  UNL1       -0.0362
     36 H          -8.2598    1.3084   -0.4784 H       1  UNL1        0.1449
     37 H          -8.0946    3.0954   -0.2075 H       1  UNL1        0.1449
     38 H          -5.1955    0.6806    2.8646 H       1  UNL1        0.0278
     39 H          -4.3664    2.0649    2.0170 H       1  UNL1        0.0278
     40 H          -2.9085    0.0853    2.5136 H       1  UNL1        0.0319
     41 H          -3.3708   -2.0631    1.4233 H       1  UNL1        0.0271
     42 H          -4.7271   -1.5646    2.4415 H       1  UNL1        0.0271
     43 H          -5.4881   -2.4287    0.2299 H       1  UNL1        0.0301
     44 H          -3.6297   -1.7233   -1.1805 H       1  UNL1        0.0271
     45 H          -5.1785   -0.9466   -1.7364 H       1  UNL1        0.0271
     46 H          -3.4090    0.6945   -1.7483 H       1  UNL1        0.0319
     47 H          -5.6402    1.4633   -1.3380 H       1  UNL1        0.0278
     48 H          -4.5035    2.3637   -0.3018 H       1  UNL1        0.0278
     49 H          -2.5825    1.5314    0.4530 H       1  UNL1        0.0504
     50 H          -1.8636   -1.4167    0.2522 H       1  UNL1        0.1490
     51 H           1.5674    1.1993   -1.7795 H       1  UNL1        0.0442
     52 H           1.6697   -0.5264   -2.2396 H       1  UNL1        0.0442
     53 H           3.9130   -0.4884   -2.5393 H       1  UNL1        0.0477
     54 H           3.5698    1.2428   -2.7896 H       1  UNL1        0.0477
     55 H           5.9063   -0.6213   -2.5777 H       1  UNL1        0.0652
     56 H           8.2755   -1.1862   -2.2724 H       1  UNL1        0.0625
     57 H           8.2592    0.9827    1.3642 H       1  UNL1        0.0836
     58 H           4.3436    1.9715    0.9209 H       1  UNL1        0.0477
     59 H           3.1174    2.4859   -0.3712 H       1  UNL1        0.0477
     60 H           1.8608    1.3018    1.2698 H       1  UNL1        0.0442
     61 H           3.1811    0.1266    1.4796 H       1  UNL1        0.0442
     62 H           0.1126   -2.0913    1.8216 H       1  UNL1        0.0288
     63 H           1.8791   -2.3182    1.3651 H       1  UNL1        0.0288
     64 H           1.3299   -2.5922   -1.0500 H       1  UNL1        0.0288
     65 H          -0.4739   -2.5114   -0.6244 H       1  UNL1        0.0288
     66 H          -6.9122   -0.4393   -0.2517 H       1  UNL1        0.0278
     67 H          -6.7911   -0.7219    1.5421 H       1  UNL1        0.0278
@<TRIPOS>BOND
     1     1     2   am
     2     2     3    2
     3     4     2    1
     4     4     5    1
     5     5     6    1
     6     6     7    1
     7     7     8    1
     8     8     9    1
     9     9    10    1
    10    10    11    1
    11    10    12    1
    12    12    13    1
    13    13    14   am
    14    14    15    2
    15    14    16    1
    16    16    17    1
    17    17    18    1
    18    18    19    1
    19    19    20    1
    20    20    21    1
    21    21    22   ar
    22    22    23   ar
    23    23    24   ar
    24    24    25    1
    25    25    26    1
    26    25    27    1
    27    25    28    1
    28    24    29   ar
    29    29    30   ar
    30    20    31    1
    31    31    32    1
    32    16    33    1
    33    33    34    1
    34     8    35    1
    35    11     4    1
    36    34    16    1
    37    35     4    1
    38    12     6    1
    39    32    17    1
    40    30    21   ar
    41     1    36    1
    42     1    37    1
    43     5    38    1
    44     5    39    1
    45     6    40    1
    46     7    41    1
    47     7    42    1
    48     8    43    1
    49     9    44    1
    50     9    45    1
    51    10    46    1
    52    11    47    1
    53    11    48    1
    54    12    49    1
    55    13    50    1
    56    18    51    1
    57    18    52    1
    58    19    53    1
    59    19    54    1
    60    22    55    1
    61    23    56    1
    62    29    57    1
    63    31    58    1
    64    31    59    1
    65    32    60    1
    66    32    61    1
    67    33    62    1
    68    33    63    1
    69    34    64    1
    70    34    65    1
    71    35    66    1
    72    35    67    1
