
     RDKit          3D

 67 72  0  0  0  0  0  0  0  0999 V2000
   -7.8137    2.1004    0.0017 N   0  0  0  0  0  0  0  0  0  0  0  0
   -6.7867    1.9352    0.9844 C   0  0  0  0  0  0  0  0  0  0  0  0
   -6.8295    2.6297    2.0317 O   0  0  0  0  0  0  0  0  0  0  0  0
   -5.6897    0.9628    0.7716 C   0  0  2  0  0  0  0  0  0  0  0  0
   -4.7201    1.0384    1.9265 C   0  0  0  0  0  0  0  0  0  0  0  0
   -3.5939    0.0742    1.6288 C   0  0  0  0  0  0  0  0  0  0  0  0
   -4.1627   -1.3089    1.5185 C   0  0  0  0  0  0  0  0  0  0  0  0
   -5.1172   -1.4022    0.3545 C   0  0  2  0  0  0  0  0  0  0  0  0
   -4.4164   -1.0099   -0.9253 C   0  0  0  0  0  0  0  0  0  0  0  0
   -3.8248    0.3551   -0.7804 C   0  0  0  0  0  0  0  0  0  0  0  0
   -4.9575    1.3491   -0.4752 C   0  0  0  0  0  0  0  0  0  0  0  0
   -2.8594    0.4476    0.3563 C   0  0  2  0  0  0  0  0  0  0  0  0
   -1.7044   -0.3908    0.2659 N   0  0  0  0  0  0  0  0  0  0  0  0
   -0.3741    0.0961    0.1981 C   0  0  0  0  0  0  0  0  0  0  0  0
   -0.2618    1.3605    0.2123 O   0  0  0  0  0  0  0  0  0  0  0  0
    0.8020   -0.7640    0.1198 C   0  0  0  0  0  0  0  0  0  0  0  0
    2.0881   -0.2093   -0.2362 N   0  0  0  0  0  0  0  0  0  0  0  0
    2.0952    0.2717   -1.6054 C   0  0  0  0  0  0  0  0  0  0  0  0
    3.5586    0.4280   -2.0430 C   0  0  0  0  0  0  0  0  0  0  0  0
    4.3476    0.8516   -0.9143 N   0  0  0  0  0  0  0  0  0  0  0  0
    5.7027    0.5147   -0.7751 C   0  0  0  0  0  0  0  0  0  0  0  0
    6.3998   -0.2493   -1.6903 C   0  0  0  0  0  0  0  0  0  0  0  0
    7.7400   -0.5781   -1.5340 C   0  0  0  0  0  0  0  0  0  0  0  0
    8.4311   -0.1403   -0.4319 C   0  0  0  0  0  0  0  0  0  0  0  0
    9.8523   -0.4305   -0.1596 C   0  0  0  0  0  0  0  0  0  0  0  0
   10.3572   -1.3620   -1.0555 F   0  0  0  0  0  0  0  0  0  0  0  0
   10.5821    0.7313   -0.2123 F   0  0  0  0  0  0  0  0  0  0  0  0
    9.9474   -0.9476    1.1388 F   0  0  0  0  0  0  0  0  0  0  0  0
    7.7297    0.6204    0.4760 C   0  0  0  0  0  0  0  0  0  0  0  0
    6.4369    0.9214    0.2967 N   0  0  0  0  0  0  0  0  0  0  0  0
    3.6852    1.6428    0.0925 C   0  0  0  0  0  0  0  0  0  0  0  0
    2.6184    0.7207    0.7047 C   0  0  0  0  0  0  0  0  0  0  0  0
    0.8716   -1.9554    1.0424 C   0  0  0  0  0  0  0  0  0  0  0  0
    0.5283   -2.1942   -0.3704 C   0  0  0  0  0  0  0  0  0  0  0  0
   -6.2527   -0.4331    0.6155 C   0  0  0  0  0  0  0  0  0  0  0  0
   -8.2598    1.3084   -0.4784 H   0  0  0  0  0  0  0  0  0  0  0  0
   -8.0946    3.0954   -0.2075 H   0  0  0  0  0  0  0  0  0  0  0  0
   -5.1955    0.6806    2.8646 H   0  0  0  0  0  0  0  0  0  0  0  0
   -4.3664    2.0649    2.0170 H   0  0  0  0  0  0  0  0  0  0  0  0
   -2.9085    0.0853    2.5136 H   0  0  0  0  0  0  0  0  0  0  0  0
   -3.3708   -2.0631    1.4233 H   0  0  0  0  0  0  0  0  0  0  0  0
   -4.7271   -1.5646    2.4415 H   0  0  0  0  0  0  0  0  0  0  0  0
   -5.4881   -2.4287    0.2299 H   0  0  0  0  0  0  0  0  0  0  0  0
   -3.6297   -1.7233   -1.1805 H   0  0  0  0  0  0  0  0  0  0  0  0
   -5.1785   -0.9466   -1.7364 H   0  0  0  0  0  0  0  0  0  0  0  0
   -3.4090    0.6945   -1.7483 H   0  0  0  0  0  0  0  0  0  0  0  0
   -5.6402    1.4633   -1.3380 H   0  0  0  0  0  0  0  0  0  0  0  0
   -4.5035    2.3637   -0.3018 H   0  0  0  0  0  0  0  0  0  0  0  0
   -2.5825    1.5314    0.4530 H   0  0  0  0  0  0  0  0  0  0  0  0
   -1.8636   -1.4167    0.2522 H   0  0  0  0  0  0  0  0  0  0  0  0
    1.5674    1.1993   -1.7795 H   0  0  0  0  0  0  0  0  0  0  0  0
    1.6697   -0.5264   -2.2396 H   0  0  0  0  0  0  0  0  0  0  0  0
    3.9130   -0.4884   -2.5393 H   0  0  0  0  0  0  0  0  0  0  0  0
    3.5698    1.2428   -2.7896 H   0  0  0  0  0  0  0  0  0  0  0  0
    5.9063   -0.6213   -2.5777 H   0  0  0  0  0  0  0  0  0  0  0  0
    8.2755   -1.1862   -2.2724 H   0  0  0  0  0  0  0  0  0  0  0  0
    8.2592    0.9827    1.3642 H   0  0  0  0  0  0  0  0  0  0  0  0
    4.3436    1.9715    0.9209 H   0  0  0  0  0  0  0  0  0  0  0  0
    3.1174    2.4859   -0.3712 H   0  0  0  0  0  0  0  0  0  0  0  0
    1.8608    1.3018    1.2698 H   0  0  0  0  0  0  0  0  0  0  0  0
    3.1811    0.1266    1.4796 H   0  0  0  0  0  0  0  0  0  0  0  0
    0.1126   -2.0913    1.8216 H   0  0  0  0  0  0  0  0  0  0  0  0
    1.8791   -2.3182    1.3651 H   0  0  0  0  0  0  0  0  0  0  0  0
    1.3299   -2.5922   -1.0500 H   0  0  0  0  0  0  0  0  0  0  0  0
   -0.4739   -2.5114   -0.6244 H   0  0  0  0  0  0  0  0  0  0  0  0
   -6.9122   -0.4393   -0.2517 H   0  0  0  0  0  0  0  0  0  0  0  0
   -6.7911   -0.7219    1.5421 H   0  0  0  0  0  0  0  0  0  0  0  0
  1  2  1  0
  2  3  2  0
  4  2  1  1
  4  5  1  0
  5  6  1  0
  6  7  1  0
  7  8  1  0
  8  9  1  0
  9 10  1  0
 10 11  1  0
 10 12  1  0
 12 13  1  0
 13 14  1  0
 14 15  2  0
 14 16  1  0
 16 17  1  0
 17 18  1  0
 18 19  1  0
 19 20  1  0
 20 21  1  0
 21 22  2  0
 22 23  1  0
 23 24  2  0
 24 25  1  0
 25 26  1  0
 25 27  1  0
 25 28  1  0
 24 29  1  0
 29 30  2  0
 20 31  1  0
 31 32  1  0
 16 33  1  0
 33 34  1  0
  8 35  1  0
 11  4  1  0
 34 16  1  0
 35  4  1  0
 12  6  1  0
 32 17  1  0
 30 21  1  0
  1 36  1  0
  1 37  1  0
  5 38  1  0
  5 39  1  0
  6 40  1  0
  7 41  1  0
  7 42  1  0
  8 43  1  6
  9 44  1  0
  9 45  1  0
 10 46  1  0
 11 47  1  0
 11 48  1  0
 12 49  1  1
 13 50  1  0
 18 51  1  0
 18 52  1  0
 19 53  1  0
 19 54  1  0
 22 55  1  0
 23 56  1  0
 29 57  1  0
 31 58  1  0
 31 59  1  0
 32 60  1  0
 32 61  1  0
 33 62  1  0
 33 63  1  0
 34 64  1  0
 34 65  1  0
 35 66  1  0
 35 67  1  0
M  END
$$$$
