@<TRIPOS>MOLECULE
*****
 46 49 0 0 0
SMALL
GASTEIGER

@<TRIPOS>ATOM
      1 O          -1.2848   -1.6180   -2.4445 O.2     1  UNL1       -0.2746
      2 C          -1.1871   -1.0936   -1.3116 C.2     1  UNL1        0.2261
      3 N          -0.1384   -0.1231   -1.1067 N.am    1  UNL1       -0.3002
      4 C           0.6870    0.5107   -2.0990 C.3     1  UNL1        0.0153
      5 C           1.5111    1.5087   -1.2765 C.3     1  UNL1       -0.0300
      6 C           1.7896    0.5907   -0.0598 C.3     1  UNL1       -0.0120
      7 C           2.5607   -0.5731   -0.5727 C.3     1  UNL1       -0.0459
      8 C           3.7593   -0.9697    0.2703 C.3     1  UNL1       -0.0525
      9 C           4.5693    0.1832    0.7644 C.3     1  UNL1       -0.0530
     10 C           3.9212    1.5265    0.6037 C.3     1  UNL1       -0.0525
     11 C           2.4712    1.3699    1.0026 C.3     1  UNL1       -0.0459
     12 C           0.3506    0.2314    0.2466 C.3     1  UNL1        0.0204
     13 C          -2.1245   -1.4784   -0.2575 C.3     1  UNL1        0.0721
     14 C          -2.9864   -0.3634    0.2237 C.ar    1  UNL1       -0.0324
     15 C          -3.7674    0.3270   -0.7187 C.ar    1  UNL1       -0.0576
     16 C          -4.6076    1.3510   -0.3823 C.ar    1  UNL1       -0.0615
     17 C          -4.6965    1.7286    0.9367 C.ar    1  UNL1       -0.0617
     18 C          -3.9209    1.0504    1.8746 C.ar    1  UNL1       -0.0615
     19 C          -3.0790    0.0141    1.5082 C.ar    1  UNL1       -0.0576
     20 C          -1.8186   -2.5818    0.6815 C.3     1  UNL1       -0.0337
     21 C          -2.8301   -2.8340   -0.3993 C.3     1  UNL1       -0.0337
     22 H           1.3362   -0.2360   -2.5676 H       1  UNL1        0.0465
     23 H           0.0791    1.0653   -2.8593 H       1  UNL1        0.0465
     24 H           2.4061    1.8581   -1.7654 H       1  UNL1        0.0286
     25 H           0.7995    2.2718   -0.9064 H       1  UNL1        0.0286
     26 H           1.9659   -1.4868   -0.7288 H       1  UNL1        0.0271
     27 H           3.0165   -0.2940   -1.5687 H       1  UNL1        0.0271
     28 H           3.5230   -1.6841    1.0651 H       1  UNL1        0.0265
     29 H           4.4449   -1.5362   -0.4339 H       1  UNL1        0.0265
     30 H           5.5701    0.2715    0.2536 H       1  UNL1        0.0265
     31 H           4.8260    0.0483    1.8494 H       1  UNL1        0.0265
     32 H           4.4532    2.2516    1.2496 H       1  UNL1        0.0265
     33 H           3.9631    1.7867   -0.4545 H       1  UNL1        0.0265
     34 H           2.4351    0.8614    2.0014 H       1  UNL1        0.0271
     35 H           2.0296    2.3776    1.1057 H       1  UNL1        0.0271
     36 H          -0.2225    0.9950    0.7461 H       1  UNL1        0.0470
     37 H           0.4341   -0.6986    0.8875 H       1  UNL1        0.0470
     38 H          -3.6908    0.0034   -1.7588 H       1  UNL1        0.0621
     39 H          -5.2317    1.8927   -1.0878 H       1  UNL1        0.0618
     40 H          -5.3282    2.5165    1.2668 H       1  UNL1        0.0618
     41 H          -3.9948    1.3575    2.9152 H       1  UNL1        0.0618
     42 H          -2.5060   -0.4721    2.3165 H       1  UNL1        0.0621
     43 H          -2.1327   -2.4719    1.7220 H       1  UNL1        0.0279
     44 H          -0.8735   -3.1075    0.5583 H       1  UNL1        0.0279
     45 H          -3.8852   -2.8789   -0.0230 H       1  UNL1        0.0279
     46 H          -2.5961   -3.4487   -1.2671 H       1  UNL1        0.0279
@<TRIPOS>BOND
     1     1     2    2
     2     2     3   am
     3     3     4    1
     4     4     5    1
     5     5     6    1
     6     6     7    1
     7     7     8    1
     8     8     9    1
     9     9    10    1
    10    10    11    1
    11     6    12    1
    12     2    13    1
    13    13    14    1
    14    14    15   ar
    15    15    16   ar
    16    16    17   ar
    17    17    18   ar
    18    18    19   ar
    19    13    20    1
    20    20    21    1
    21    12     3    1
    22    21    13    1
    23    11     6    1
    24    19    14   ar
    25     4    22    1
    26     4    23    1
    27     5    24    1
    28     5    25    1
    29     7    26    1
    30     7    27    1
    31     8    28    1
    32     8    29    1
    33     9    30    1
    34     9    31    1
    35    10    32    1
    36    10    33    1
    37    11    34    1
    38    11    35    1
    39    12    36    1
    40    12    37    1
    41    15    38    1
    42    16    39    1
    43    17    40    1
    44    18    41    1
    45    19    42    1
    46    20    43    1
    47    20    44    1
    48    21    45    1
    49    21    46    1
