@<TRIPOS>MOLECULE
*****
 56 58 0 0 0
SMALL
GASTEIGER

@<TRIPOS>ATOM
      1 C           6.6170    0.4384    1.5179 C.3     1  UNL1       -0.0544
      2 C           6.8601   -0.4718    0.3192 C.3     1  UNL1        0.0299
      3 C           8.2868   -0.4330   -0.1280 C.3     1  UNL1       -0.0544
      4 C           5.9482   -0.0217   -0.7911 C.2     1  UNL1        0.2157
      5 O           6.4687    0.3557   -1.8770 O.2     1  UNL1       -0.2755
      6 N           4.5478   -0.0312   -0.5967 N.am    1  UNL1       -0.3124
      7 C           3.7062    0.4119   -1.6966 C.3     1  UNL1        0.0405
      8 C           2.2411    0.3428   -1.3327 C.3     1  UNL1        0.0843
      9 O           1.5241    0.7840   -2.4422 O.3     1  UNL1       -0.3869
     10 C           1.8076   -1.0926   -1.0660 C.3     1  UNL1       -0.0066
     11 C           0.2826   -1.0633   -1.0101 C.3     1  UNL1        0.0175
     12 N          -0.1202   -0.0905   -0.0278 N.pl3   1  UNL1       -0.2994
     13 C          -1.5285    0.0033    0.2576 C.ar    1  UNL1        0.2214
     14 N          -2.4364   -0.7752   -0.3572 N.ar    1  UNL1       -0.1790
     15 C          -3.7557   -0.7146   -0.1158 C.ar    1  UNL1        0.2254
     16 O          -4.6759   -1.5323   -0.7662 O.3     1  UNL1       -0.4378
     17 C          -6.0286   -1.4214   -0.4722 C.ar    1  UNL1        0.1331
     18 C          -6.8207   -0.5438   -1.1898 C.ar    1  UNL1       -0.0191
     19 C          -8.1675   -0.4202   -0.9114 C.ar    1  UNL1       -0.0556
     20 C          -8.7788   -1.1610    0.0874 C.ar    1  UNL1       -0.0262
     21 C          -7.9966   -2.0318    0.8005 C.ar    1  UNL1        0.1269
     22 F          -8.5989   -2.7569    1.7794 F       1  UNL1       -0.2054
     23 C          -6.6505   -2.1521    0.5189 C.ar    1  UNL1        0.0160
     24 C          -4.1780    0.2035    0.8172 C.ar    1  UNL1        0.0305
     25 C          -3.2796    1.0373    1.4860 C.ar    1  UNL1        0.1522
     26 C          -3.8072    1.9930    2.4695 C.3     1  UNL1        0.4345
     27 F          -4.3602    1.3258    3.5457 F       1  UNL1       -0.1644
     28 F          -2.8687    2.9147    2.8453 F       1  UNL1       -0.1644
     29 F          -4.8353    2.7014    1.8329 F       1  UNL1       -0.1644
     30 N          -1.9847    0.8956    1.1708 N.ar    1  UNL1       -0.2101
     31 C           0.7891    0.7773    0.6717 C.3     1  UNL1        0.0175
     32 C           1.9682    1.2062   -0.1480 C.3     1  UNL1       -0.0066
     33 H           7.5372    0.4647    2.1265 H       1  UNL1        0.0237
     34 H           5.7605    0.0318    2.1035 H       1  UNL1        0.0237
     35 H           6.2996    1.4290    1.1436 H       1  UNL1        0.0237
     36 H           6.6064   -1.5010    0.6083 H       1  UNL1        0.0389
     37 H           8.9321    0.0327    0.6609 H       1  UNL1        0.0237
     38 H           8.7284   -1.4191   -0.3350 H       1  UNL1        0.0237
     39 H           8.4297    0.1739   -1.0544 H       1  UNL1        0.0237
     40 H           4.1464   -0.3480    0.3107 H       1  UNL1        0.1488
     41 H           3.9381    1.4616   -1.9397 H       1  UNL1        0.0490
     42 H           3.8869   -0.2232   -2.5801 H       1  UNL1        0.0490
     43 H           1.5648    0.1177   -3.1651 H       1  UNL1        0.2102
     44 H           2.2251   -1.3662   -0.0783 H       1  UNL1        0.0309
     45 H           2.1546   -1.7377   -1.8829 H       1  UNL1        0.0309
     46 H          -0.1092   -0.8265   -1.9986 H       1  UNL1        0.0465
     47 H          -0.0410   -2.0918   -0.7552 H       1  UNL1        0.0465
     48 H          -6.3833    0.0645   -1.9901 H       1  UNL1        0.0654
     49 H          -8.8064    0.2673   -1.4679 H       1  UNL1        0.0620
     50 H          -9.8387   -1.0538    0.2955 H       1  UNL1        0.0646
     51 H          -6.0704   -2.8555    1.1108 H       1  UNL1        0.0683
     52 H          -5.2296    0.2914    1.0474 H       1  UNL1        0.0692
     53 H           0.2308    1.6939    0.9550 H       1  UNL1        0.0465
     54 H           1.1260    0.3290    1.6519 H       1  UNL1        0.0465
     55 H           1.8678    2.2763   -0.4900 H       1  UNL1        0.0309
     56 H           2.8688    1.2293    0.5323 H       1  UNL1        0.0309
@<TRIPOS>BOND
     1     1     2    1
     2     2     3    1
     3     2     4    1
     4     4     5    2
     5     4     6   am
     6     6     7    1
     7     7     8    1
     8     8     9    1
     9     8    10    1
    10    10    11    1
    11    11    12    1
    12    12    13    1
    13    13    14   ar
    14    14    15   ar
    15    15    16    1
    16    16    17    1
    17    17    18   ar
    18    18    19   ar
    19    19    20   ar
    20    20    21   ar
    21    21    22    1
    22    21    23   ar
    23    15    24   ar
    24    24    25   ar
    25    25    26    1
    26    26    27    1
    27    26    28    1
    28    26    29    1
    29    25    30   ar
    30    12    31    1
    31    31    32    1
    32    32     8    1
    33    30    13   ar
    34    23    17   ar
    35     1    33    1
    36     1    34    1
    37     1    35    1
    38     2    36    1
    39     3    37    1
    40     3    38    1
    41     3    39    1
    42     6    40    1
    43     7    41    1
    44     7    42    1
    45     9    43    1
    46    10    44    1
    47    10    45    1
    48    11    46    1
    49    11    47    1
    50    18    48    1
    51    19    49    1
    52    20    50    1
    53    23    51    1
    54    24    52    1
    55    31    53    1
    56    31    54    1
    57    32    55    1
    58    32    56    1
