
     RDKit          3D

 56 58  0  0  0  0  0  0  0  0999 V2000
    6.6170    0.4384    1.5179 C   0  0  0  0  0  0  0  0  0  0  0  0
    6.8601   -0.4718    0.3192 C   0  0  0  0  0  0  0  0  0  0  0  0
    8.2868   -0.4330   -0.1280 C   0  0  0  0  0  0  0  0  0  0  0  0
    5.9482   -0.0217   -0.7911 C   0  0  0  0  0  0  0  0  0  0  0  0
    6.4687    0.3557   -1.8770 O   0  0  0  0  0  0  0  0  0  0  0  0
    4.5478   -0.0312   -0.5967 N   0  0  0  0  0  0  0  0  0  0  0  0
    3.7062    0.4119   -1.6966 C   0  0  0  0  0  0  0  0  0  0  0  0
    2.2411    0.3428   -1.3327 C   0  0  0  0  0  0  0  0  0  0  0  0
    1.5241    0.7840   -2.4422 O   0  0  0  0  0  0  0  0  0  0  0  0
    1.8076   -1.0926   -1.0660 C   0  0  0  0  0  0  0  0  0  0  0  0
    0.2826   -1.0633   -1.0101 C   0  0  0  0  0  0  0  0  0  0  0  0
   -0.1202   -0.0905   -0.0278 N   0  0  0  0  0  0  0  0  0  0  0  0
   -1.5285    0.0033    0.2576 C   0  0  0  0  0  0  0  0  0  0  0  0
   -2.4364   -0.7752   -0.3572 N   0  0  0  0  0  0  0  0  0  0  0  0
   -3.7557   -0.7146   -0.1158 C   0  0  0  0  0  0  0  0  0  0  0  0
   -4.6759   -1.5323   -0.7662 O   0  0  0  0  0  0  0  0  0  0  0  0
   -6.0286   -1.4214   -0.4722 C   0  0  0  0  0  0  0  0  0  0  0  0
   -6.8207   -0.5438   -1.1898 C   0  0  0  0  0  0  0  0  0  0  0  0
   -8.1675   -0.4202   -0.9114 C   0  0  0  0  0  0  0  0  0  0  0  0
   -8.7788   -1.1610    0.0874 C   0  0  0  0  0  0  0  0  0  0  0  0
   -7.9966   -2.0318    0.8005 C   0  0  0  0  0  0  0  0  0  0  0  0
   -8.5989   -2.7569    1.7794 F   0  0  0  0  0  0  0  0  0  0  0  0
   -6.6505   -2.1521    0.5189 C   0  0  0  0  0  0  0  0  0  0  0  0
   -4.1780    0.2035    0.8172 C   0  0  0  0  0  0  0  0  0  0  0  0
   -3.2796    1.0373    1.4860 C   0  0  0  0  0  0  0  0  0  0  0  0
   -3.8072    1.9930    2.4695 C   0  0  0  0  0  0  0  0  0  0  0  0
   -4.3602    1.3258    3.5457 F   0  0  0  0  0  0  0  0  0  0  0  0
   -2.8687    2.9147    2.8453 F   0  0  0  0  0  0  0  0  0  0  0  0
   -4.8353    2.7014    1.8329 F   0  0  0  0  0  0  0  0  0  0  0  0
   -1.9847    0.8956    1.1708 N   0  0  0  0  0  0  0  0  0  0  0  0
    0.7891    0.7773    0.6717 C   0  0  0  0  0  0  0  0  0  0  0  0
    1.9682    1.2062   -0.1480 C   0  0  0  0  0  0  0  0  0  0  0  0
    7.5372    0.4647    2.1265 H   0  0  0  0  0  0  0  0  0  0  0  0
    5.7605    0.0318    2.1035 H   0  0  0  0  0  0  0  0  0  0  0  0
    6.2996    1.4290    1.1436 H   0  0  0  0  0  0  0  0  0  0  0  0
    6.6064   -1.5010    0.6083 H   0  0  0  0  0  0  0  0  0  0  0  0
    8.9321    0.0327    0.6609 H   0  0  0  0  0  0  0  0  0  0  0  0
    8.7284   -1.4191   -0.3350 H   0  0  0  0  0  0  0  0  0  0  0  0
    8.4297    0.1739   -1.0544 H   0  0  0  0  0  0  0  0  0  0  0  0
    4.1464   -0.3480    0.3107 H   0  0  0  0  0  0  0  0  0  0  0  0
    3.9381    1.4616   -1.9397 H   0  0  0  0  0  0  0  0  0  0  0  0
    3.8869   -0.2232   -2.5801 H   0  0  0  0  0  0  0  0  0  0  0  0
    1.5648    0.1177   -3.1651 H   0  0  0  0  0  0  0  0  0  0  0  0
    2.2251   -1.3662   -0.0783 H   0  0  0  0  0  0  0  0  0  0  0  0
    2.1546   -1.7377   -1.8829 H   0  0  0  0  0  0  0  0  0  0  0  0
   -0.1092   -0.8265   -1.9986 H   0  0  0  0  0  0  0  0  0  0  0  0
   -0.0410   -2.0918   -0.7552 H   0  0  0  0  0  0  0  0  0  0  0  0
   -6.3833    0.0645   -1.9901 H   0  0  0  0  0  0  0  0  0  0  0  0
   -8.8064    0.2673   -1.4679 H   0  0  0  0  0  0  0  0  0  0  0  0
   -9.8387   -1.0538    0.2955 H   0  0  0  0  0  0  0  0  0  0  0  0
   -6.0704   -2.8555    1.1108 H   0  0  0  0  0  0  0  0  0  0  0  0
   -5.2296    0.2914    1.0474 H   0  0  0  0  0  0  0  0  0  0  0  0
    0.2308    1.6939    0.9550 H   0  0  0  0  0  0  0  0  0  0  0  0
    1.1260    0.3290    1.6519 H   0  0  0  0  0  0  0  0  0  0  0  0
    1.8678    2.2763   -0.4900 H   0  0  0  0  0  0  0  0  0  0  0  0
    2.8688    1.2293    0.5323 H   0  0  0  0  0  0  0  0  0  0  0  0
  1  2  1  0
  2  3  1  0
  2  4  1  0
  4  5  2  0
  4  6  1  0
  6  7  1  0
  7  8  1  0
  8  9  1  0
  8 10  1  0
 10 11  1  0
 11 12  1  0
 12 13  1  0
 13 14  2  0
 14 15  1  0
 15 16  1  0
 16 17  1  0
 17 18  2  0
 18 19  1  0
 19 20  2  0
 20 21  1  0
 21 22  1  0
 21 23  2  0
 15 24  2  0
 24 25  1  0
 25 26  1  0
 26 27  1  0
 26 28  1  0
 26 29  1  0
 25 30  2  0
 12 31  1  0
 31 32  1  0
 32  8  1  0
 30 13  1  0
 23 17  1  0
  1 33  1  0
  1 34  1  0
  1 35  1  0
  2 36  1  0
  3 37  1  0
  3 38  1  0
  3 39  1  0
  6 40  1  0
  7 41  1  0
  7 42  1  0
  9 43  1  0
 10 44  1  0
 10 45  1  0
 11 46  1  0
 11 47  1  0
 18 48  1  0
 19 49  1  0
 20 50  1  0
 23 51  1  0
 24 52  1  0
 31 53  1  0
 31 54  1  0
 32 55  1  0
 32 56  1  0
M  END
$$$$
