@<TRIPOS>MOLECULE
*****
 63 66 0 0 0
SMALL
GASTEIGER

@<TRIPOS>ATOM
      1 C           0.1482   -1.8013    2.9168 C.3     1  UNL1       -0.0633
      2 C           0.1199   -0.3360    3.1631 C.3     1  UNL1       -0.0329
      3 C           0.2491    0.5431    1.9605 C.3     1  UNL1        0.0540
      4 C           1.5098    0.2908    1.2614 C.ar    1  UNL1       -0.0269
      5 C           1.7551    0.7789   -0.0155 C.ar    1  UNL1       -0.0562
      6 C           2.9429    0.5525   -0.6592 C.ar    1  UNL1       -0.0537
      7 C           3.9450   -0.1755   -0.0536 C.ar    1  UNL1       -0.0165
      8 C           5.2210   -0.4404   -0.6976 C.ar    1  UNL1       -0.0015
      9 C           5.9068   -1.6050   -0.4258 C.ar    1  UNL1       -0.0475
     10 C           7.1272   -1.8804   -1.0275 C.ar    1  UNL1        0.0036
     11 C           7.6481   -0.9633   -1.9094 C.ar    1  UNL1        0.2511
     12 O           8.7665   -1.1765   -2.4845 O.2     1  UNL1       -0.2677
     13 N           6.9856    0.1763   -2.1809 N.ar    1  UNL1       -0.3177
     14 C           7.5672    1.1168   -3.1149 C.3     1  UNL1        0.0147
     15 C           5.8023    0.4314   -1.5902 C.ar    1  UNL1        0.0153
     16 C           3.7405   -0.6738    1.2069 C.ar    1  UNL1       -0.0537
     17 C           2.5219   -0.4270    1.8367 C.ar    1  UNL1       -0.0562
     18 N          -0.9173    0.5311    1.1260 N.am    1  UNL1       -0.2602
     19 C          -1.4163   -0.5773    0.3708 C.3     1  UNL1        0.0224
     20 C          -2.8544   -0.7872    0.8636 C.3     1  UNL1        0.0075
     21 C          -3.6860    0.4207    0.5091 C.3     1  UNL1        0.1435
     22 C          -4.5978    0.7496    1.6620 C.3     1  UNL1        0.0148
     23 C          -5.4716    1.9460    1.4217 C.3     1  UNL1        0.0482
     24 O          -6.3088    1.7989    0.3307 O.3     1  UNL1       -0.3949
     25 C          -4.4763    0.0584   -0.6810 C.ar    1  UNL1       -0.0041
     26 C          -5.6348   -0.6572   -0.5894 C.ar    1  UNL1       -0.0548
     27 C          -6.3658   -0.9786   -1.7442 C.ar    1  UNL1       -0.0614
     28 C          -5.8856   -0.5557   -2.9614 C.ar    1  UNL1       -0.0617
     29 C          -4.7170    0.1664   -3.0576 C.ar    1  UNL1       -0.0614
     30 C          -3.9972    0.4841   -1.9309 C.ar    1  UNL1       -0.0548
     31 O          -2.8556    1.5714    0.2115 O.3     1  UNL1       -0.4388
     32 C          -1.7040    1.7299    0.9903 C.2     1  UNL1        0.4042
     33 O          -1.3462    2.7841    1.5366 O.2     1  UNL1       -0.2262
     34 H           0.5342   -2.3767    3.8121 H       1  UNL1        0.0230
     35 H           0.6687   -2.1608    2.0395 H       1  UNL1        0.0230
     36 H          -0.9225   -2.1449    2.8427 H       1  UNL1        0.0230
     37 H           0.9244   -0.0670    3.8762 H       1  UNL1        0.0284
     38 H          -0.8243   -0.0474    3.7529 H       1  UNL1        0.0284
     39 H           0.3820    1.5941    2.4114 H       1  UNL1        0.0551
     40 H           0.9633    1.3484   -0.4816 H       1  UNL1        0.0621
     41 H           3.1375    0.9385   -1.6696 H       1  UNL1        0.0624
     42 H           5.4866   -2.3228    0.2723 H       1  UNL1        0.0626
     43 H           7.6775   -2.7791   -0.8311 H       1  UNL1        0.0672
     44 H           7.2151    2.1348   -2.7838 H       1  UNL1        0.0457
     45 H           7.2090    0.9816   -4.1437 H       1  UNL1        0.0457
     46 H           8.6746    1.1580   -3.0394 H       1  UNL1        0.0457
     47 H           5.2742    1.3453   -1.8099 H       1  UNL1        0.0816
     48 H           4.5047   -1.2518    1.7174 H       1  UNL1        0.0624
     49 H           2.4029   -0.8374    2.8562 H       1  UNL1        0.0621
     50 H          -0.8420   -1.4960    0.3973 H       1  UNL1        0.0467
     51 H          -1.5579   -0.2610   -0.7139 H       1  UNL1        0.0467
     52 H          -2.7734   -0.8916    1.9806 H       1  UNL1        0.0322
     53 H          -3.2886   -1.7157    0.4703 H       1  UNL1        0.0322
     54 H          -5.2127   -0.1348    1.8871 H       1  UNL1        0.0329
     55 H          -3.9812    0.9082    2.5939 H       1  UNL1        0.0329
     56 H          -6.0787    2.0934    2.3397 H       1  UNL1        0.0558
     57 H          -4.8927    2.8788    1.2854 H       1  UNL1        0.0558
     58 H          -7.2758    1.7710    0.6144 H       1  UNL1        0.2094
     59 H          -6.0405   -1.0096    0.3475 H       1  UNL1        0.0622
     60 H          -7.2840   -1.5458   -1.6703 H       1  UNL1        0.0618
     61 H          -6.3949   -0.7656   -3.8963 H       1  UNL1        0.0618
     62 H          -4.3334    0.5047   -4.0343 H       1  UNL1        0.0618
     63 H          -3.0748    1.0561   -2.0161 H       1  UNL1        0.0622
@<TRIPOS>BOND
     1     1     2    1
     2     2     3    1
     3     3     4    1
     4     4     5   ar
     5     5     6   ar
     6     6     7   ar
     7     7     8    1
     8     8     9   ar
     9     9    10   ar
    10    10    11   ar
    11    11    12    2
    12    11    13   ar
    13    13    14    1
    14    13    15   ar
    15     7    16   ar
    16    16    17   ar
    17     3    18    1
    18    18    19    1
    19    19    20    1
    20    20    21    1
    21    21    22    1
    22    22    23    1
    23    23    24    1
    24    21    25    1
    25    25    26   ar
    26    26    27   ar
    27    27    28   ar
    28    28    29   ar
    29    29    30   ar
    30    21    31    1
    31    31    32    1
    32    32    33    2
    33    17     4   ar
    34    32    18   am
    35    15     8   ar
    36    30    25   ar
    37     1    34    1
    38     1    35    1
    39     1    36    1
    40     2    37    1
    41     2    38    1
    42     3    39    1
    43     5    40    1
    44     6    41    1
    45     9    42    1
    46    10    43    1
    47    14    44    1
    48    14    45    1
    49    14    46    1
    50    15    47    1
    51    16    48    1
    52    17    49    1
    53    19    50    1
    54    19    51    1
    55    20    52    1
    56    20    53    1
    57    22    54    1
    58    22    55    1
    59    23    56    1
    60    23    57    1
    61    24    58    1
    62    26    59    1
    63    27    60    1
    64    28    61    1
    65    29    62    1
    66    30    63    1
