
     RDKit          3D

 63 66  0  0  0  0  0  0  0  0999 V2000
    0.1482   -1.8013    2.9168 C   0  0  0  0  0  0  0  0  0  0  0  0
    0.1199   -0.3360    3.1631 C   0  0  0  0  0  0  0  0  0  0  0  0
    0.2491    0.5431    1.9605 C   0  0  1  0  0  0  0  0  0  0  0  0
    1.5098    0.2908    1.2614 C   0  0  0  0  0  0  0  0  0  0  0  0
    1.7551    0.7789   -0.0155 C   0  0  0  0  0  0  0  0  0  0  0  0
    2.9429    0.5525   -0.6592 C   0  0  0  0  0  0  0  0  0  0  0  0
    3.9450   -0.1755   -0.0536 C   0  0  0  0  0  0  0  0  0  0  0  0
    5.2210   -0.4404   -0.6976 C   0  0  0  0  0  0  0  0  0  0  0  0
    5.9068   -1.6050   -0.4258 C   0  0  0  0  0  0  0  0  0  0  0  0
    7.1272   -1.8804   -1.0275 C   0  0  0  0  0  0  0  0  0  0  0  0
    7.6481   -0.9633   -1.9094 C   0  0  0  0  0  0  0  0  0  0  0  0
    8.7665   -1.1765   -2.4845 O   0  0  0  0  0  0  0  0  0  0  0  0
    6.9856    0.1763   -2.1809 N   0  0  0  0  0  0  0  0  0  0  0  0
    7.5672    1.1168   -3.1149 C   0  0  0  0  0  0  0  0  0  0  0  0
    5.8023    0.4314   -1.5902 C   0  0  0  0  0  0  0  0  0  0  0  0
    3.7405   -0.6738    1.2069 C   0  0  0  0  0  0  0  0  0  0  0  0
    2.5219   -0.4270    1.8367 C   0  0  0  0  0  0  0  0  0  0  0  0
   -0.9173    0.5311    1.1260 N   0  0  0  0  0  0  0  0  0  0  0  0
   -1.4163   -0.5773    0.3708 C   0  0  0  0  0  0  0  0  0  0  0  0
   -2.8544   -0.7872    0.8636 C   0  0  0  0  0  0  0  0  0  0  0  0
   -3.6860    0.4207    0.5091 C   0  0  2  0  0  0  0  0  0  0  0  0
   -4.5978    0.7496    1.6620 C   0  0  0  0  0  0  0  0  0  0  0  0
   -5.4716    1.9460    1.4217 C   0  0  0  0  0  0  0  0  0  0  0  0
   -6.3088    1.7989    0.3307 O   0  0  0  0  0  0  0  0  0  0  0  0
   -4.4763    0.0584   -0.6810 C   0  0  0  0  0  0  0  0  0  0  0  0
   -5.6348   -0.6572   -0.5894 C   0  0  0  0  0  0  0  0  0  0  0  0
   -6.3658   -0.9786   -1.7442 C   0  0  0  0  0  0  0  0  0  0  0  0
   -5.8856   -0.5557   -2.9614 C   0  0  0  0  0  0  0  0  0  0  0  0
   -4.7170    0.1664   -3.0576 C   0  0  0  0  0  0  0  0  0  0  0  0
   -3.9972    0.4841   -1.9309 C   0  0  0  0  0  0  0  0  0  0  0  0
   -2.8556    1.5714    0.2115 O   0  0  0  0  0  0  0  0  0  0  0  0
   -1.7040    1.7299    0.9903 C   0  0  0  0  0  0  0  0  0  0  0  0
   -1.3462    2.7841    1.5366 O   0  0  0  0  0  0  0  0  0  0  0  0
    0.5342   -2.3767    3.8121 H   0  0  0  0  0  0  0  0  0  0  0  0
    0.6687   -2.1608    2.0395 H   0  0  0  0  0  0  0  0  0  0  0  0
   -0.9225   -2.1449    2.8427 H   0  0  0  0  0  0  0  0  0  0  0  0
    0.9244   -0.0670    3.8762 H   0  0  0  0  0  0  0  0  0  0  0  0
   -0.8243   -0.0474    3.7529 H   0  0  0  0  0  0  0  0  0  0  0  0
    0.3820    1.5941    2.4114 H   0  0  0  0  0  0  0  0  0  0  0  0
    0.9633    1.3484   -0.4816 H   0  0  0  0  0  0  0  0  0  0  0  0
    3.1375    0.9385   -1.6696 H   0  0  0  0  0  0  0  0  0  0  0  0
    5.4866   -2.3228    0.2723 H   0  0  0  0  0  0  0  0  0  0  0  0
    7.6775   -2.7791   -0.8311 H   0  0  0  0  0  0  0  0  0  0  0  0
    7.2151    2.1348   -2.7838 H   0  0  0  0  0  0  0  0  0  0  0  0
    7.2090    0.9816   -4.1437 H   0  0  0  0  0  0  0  0  0  0  0  0
    8.6746    1.1580   -3.0394 H   0  0  0  0  0  0  0  0  0  0  0  0
    5.2742    1.3453   -1.8099 H   0  0  0  0  0  0  0  0  0  0  0  0
    4.5047   -1.2518    1.7174 H   0  0  0  0  0  0  0  0  0  0  0  0
    2.4029   -0.8374    2.8562 H   0  0  0  0  0  0  0  0  0  0  0  0
   -0.8420   -1.4960    0.3973 H   0  0  0  0  0  0  0  0  0  0  0  0
   -1.5579   -0.2610   -0.7139 H   0  0  0  0  0  0  0  0  0  0  0  0
   -2.7734   -0.8916    1.9806 H   0  0  0  0  0  0  0  0  0  0  0  0
   -3.2886   -1.7157    0.4703 H   0  0  0  0  0  0  0  0  0  0  0  0
   -5.2127   -0.1348    1.8871 H   0  0  0  0  0  0  0  0  0  0  0  0
   -3.9812    0.9082    2.5939 H   0  0  0  0  0  0  0  0  0  0  0  0
   -6.0787    2.0934    2.3397 H   0  0  0  0  0  0  0  0  0  0  0  0
   -4.8927    2.8788    1.2854 H   0  0  0  0  0  0  0  0  0  0  0  0
   -7.2758    1.7710    0.6144 H   0  0  0  0  0  0  0  0  0  0  0  0
   -6.0405   -1.0096    0.3475 H   0  0  0  0  0  0  0  0  0  0  0  0
   -7.2840   -1.5458   -1.6703 H   0  0  0  0  0  0  0  0  0  0  0  0
   -6.3949   -0.7656   -3.8963 H   0  0  0  0  0  0  0  0  0  0  0  0
   -4.3334    0.5047   -4.0343 H   0  0  0  0  0  0  0  0  0  0  0  0
   -3.0748    1.0561   -2.0161 H   0  0  0  0  0  0  0  0  0  0  0  0
  1  2  1  0
  2  3  1  0
  3  4  1  0
  4  5  2  0
  5  6  1  0
  6  7  2  0
  7  8  1  0
  8  9  1  0
  9 10  2  0
 10 11  1  0
 11 12  2  0
 11 13  1  0
 13 14  1  0
 13 15  1  0
  7 16  1  0
 16 17  2  0
  3 18  1  0
 18 19  1  0
 19 20  1  0
 20 21  1  0
 21 22  1  1
 22 23  1  0
 23 24  1  0
 21 25  1  0
 25 26  2  0
 26 27  1  0
 27 28  2  0
 28 29  1  0
 29 30  2  0
 21 31  1  0
 31 32  1  0
 32 33  2  0
 17  4  1  0
 32 18  1  0
 15  8  2  0
 30 25  1  0
  1 34  1  0
  1 35  1  0
  1 36  1  0
  2 37  1  0
  2 38  1  0
  3 39  1  1
  5 40  1  0
  6 41  1  0
  9 42  1  0
 10 43  1  0
 14 44  1  0
 14 45  1  0
 14 46  1  0
 15 47  1  0
 16 48  1  0
 17 49  1  0
 19 50  1  0
 19 51  1  0
 20 52  1  0
 20 53  1  0
 22 54  1  0
 22 55  1  0
 23 56  1  0
 23 57  1  0
 24 58  1  0
 26 59  1  0
 27 60  1  0
 28 61  1  0
 29 62  1  0
 30 63  1  0
M  END
$$$$
