
     RDKit          3D

 48 50  0  0  0  0  0  0  0  0999 V2000
    9.3746    1.7082    0.3957 C   0  0  0  0  0  0  0  0  0  0  0  0
    9.3251    0.4209   -0.1395 O   0  0  0  0  0  0  0  0  0  0  0  0
    8.1454   -0.3008   -0.3001 C   0  0  0  0  0  0  0  0  0  0  0  0
    6.9147    0.1358    0.0325 N   0  0  0  0  0  0  0  0  0  0  0  0
    6.0048   -0.7880   -0.2457 N   0  0  0  0  0  0  0  0  0  0  0  0
    4.5915   -0.7119   -0.0426 C   0  0  0  0  0  0  0  0  0  0  0  0
    3.8164   -1.8272    0.1609 C   0  0  0  0  0  0  0  0  0  0  0  0
    2.4544   -1.7264    0.3545 C   0  0  0  0  0  0  0  0  0  0  0  0
    1.8346   -0.5179    0.3501 C   0  0  0  0  0  0  0  0  0  0  0  0
    0.4251   -0.3279    0.5437 N   0  0  0  0  0  0  0  0  0  0  0  0
   -0.4836   -0.3237   -0.5448 C   0  0  0  0  0  0  0  0  0  0  0  0
    0.0264   -0.4973   -1.6899 O   0  0  0  0  0  0  0  0  0  0  0  0
   -1.9341   -0.1323   -0.3878 C   0  0  0  0  0  0  0  0  0  0  0  0
   -2.5090    0.0577    0.8477 C   0  0  0  0  0  0  0  0  0  0  0  0
   -3.8942    0.2361    0.9531 C   0  0  0  0  0  0  0  0  0  0  0  0
   -4.7237    0.2297   -0.1478 C   0  0  0  0  0  0  0  0  0  0  0  0
   -6.1975    0.4213   -0.0160 C   0  0  0  0  0  0  0  0  0  0  0  0
   -6.5478    0.6033    1.4278 C   0  0  0  0  0  0  0  0  0  0  0  0
   -6.6780    1.5917   -0.8415 C   0  0  0  0  0  0  0  0  0  0  0  0
   -6.8803   -0.8456   -0.5074 C   0  0  0  0  0  0  0  0  0  0  0  0
   -4.1305    0.0375   -1.3833 C   0  0  0  0  0  0  0  0  0  0  0  0
   -2.7672   -0.1384   -1.4901 C   0  0  0  0  0  0  0  0  0  0  0  0
    2.5881    0.6176    0.1482 C   0  0  0  0  0  0  0  0  0  0  0  0
    3.9282    0.5087   -0.0415 C   0  0  0  0  0  0  0  0  0  0  0  0
    6.7005   -1.8173   -0.7627 C   0  0  0  0  0  0  0  0  0  0  0  0
    6.2460   -2.9037   -1.1644 O   0  0  0  0  0  0  0  0  0  0  0  0
    7.9911   -1.5048   -0.7876 O   0  0  0  0  0  0  0  0  0  0  0  0
    9.3407    2.4398   -0.4501 H   0  0  0  0  0  0  0  0  0  0  0  0
   10.3552    1.8193    0.9268 H   0  0  0  0  0  0  0  0  0  0  0  0
    8.5644    1.9280    1.1090 H   0  0  0  0  0  0  0  0  0  0  0  0
    4.3185   -2.8060    0.1645 H   0  0  0  0  0  0  0  0  0  0  0  0
    1.8557   -2.6206    0.5143 H   0  0  0  0  0  0  0  0  0  0  0  0
    0.0723   -0.1905    1.5130 H   0  0  0  0  0  0  0  0  0  0  0  0
   -1.9178    0.0737    1.7504 H   0  0  0  0  0  0  0  0  0  0  0  0
   -4.3489    0.3871    1.9384 H   0  0  0  0  0  0  0  0  0  0  0  0
   -7.6703    0.7004    1.4744 H   0  0  0  0  0  0  0  0  0  0  0  0
   -6.0609    1.4924    1.8781 H   0  0  0  0  0  0  0  0  0  0  0  0
   -6.2667   -0.3017    2.0004 H   0  0  0  0  0  0  0  0  0  0  0  0
   -6.0125    2.4620   -0.7926 H   0  0  0  0  0  0  0  0  0  0  0  0
   -6.8914    1.2690   -1.9006 H   0  0  0  0  0  0  0  0  0  0  0  0
   -7.6597    1.9025   -0.4247 H   0  0  0  0  0  0  0  0  0  0  0  0
   -6.5355   -1.6852    0.1292 H   0  0  0  0  0  0  0  0  0  0  0  0
   -7.9701   -0.7351   -0.5551 H   0  0  0  0  0  0  0  0  0  0  0  0
   -6.4338   -1.0516   -1.5229 H   0  0  0  0  0  0  0  0  0  0  0  0
   -4.7517    0.0276   -2.2602 H   0  0  0  0  0  0  0  0  0  0  0  0
   -2.2744   -0.2920   -2.4540 H   0  0  0  0  0  0  0  0  0  0  0  0
    2.1286    1.5848    0.1392 H   0  0  0  0  0  0  0  0  0  0  0  0
    4.5371    1.3906   -0.2019 H   0  0  0  0  0  0  0  0  0  0  0  0
  1  2  1  0
  2  3  1  0
  3  4  2  0
  4  5  1  0
  5  6  1  0
  6  7  2  0
  7  8  1  0
  8  9  2  0
  9 10  1  0
 10 11  1  0
 11 12  2  0
 11 13  1  0
 13 14  2  0
 14 15  1  0
 15 16  2  0
 16 17  1  0
 17 18  1  0
 17 19  1  0
 17 20  1  0
 16 21  1  0
 21 22  2  0
  9 23  1  0
 23 24  2  0
  5 25  1  0
 25 26  2  0
 25 27  1  0
 27  3  1  0
 24  6  1  0
 22 13  1  0
  1 28  1  0
  1 29  1  0
  1 30  1  0
  7 31  1  0
  8 32  1  0
 10 33  1  0
 14 34  1  0
 15 35  1  0
 18 36  1  0
 18 37  1  0
 18 38  1  0
 19 39  1  0
 19 40  1  0
 19 41  1  0
 20 42  1  0
 20 43  1  0
 20 44  1  0
 21 45  1  0
 22 46  1  0
 23 47  1  0
 24 48  1  0
M  END
$$$$
