@<TRIPOS>MOLECULE
*****
 48 50 0 0 0
SMALL
GASTEIGER

@<TRIPOS>ATOM
      1 C           9.3746    1.7082    0.3957 C.3     1  UNL1        0.0835
      2 O           9.3251    0.4209   -0.1395 O.3     1  UNL1       -0.4516
      3 C           8.1454   -0.3008   -0.3001 C.ar    1  UNL1        0.4170
      4 N           6.9147    0.1358    0.0325 N.ar    1  UNL1       -0.0868
      5 N           6.0048   -0.7880   -0.2457 N.ar    1  UNL1       -0.1592
      6 C           4.5915   -0.7119   -0.0426 C.ar    1  UNL1        0.0726
      7 C           3.8164   -1.8272    0.1609 C.ar    1  UNL1       -0.0343
      8 C           2.4544   -1.7264    0.3545 C.ar    1  UNL1       -0.0385
      9 C           1.8346   -0.5179    0.3501 C.ar    1  UNL1        0.0338
     10 N           0.4251   -0.3279    0.5437 N.am    1  UNL1       -0.2815
     11 C          -0.4836   -0.3237   -0.5448 C.2     1  UNL1        0.2483
     12 O           0.0264   -0.4973   -1.6899 O.2     1  UNL1       -0.2699
     13 C          -1.9341   -0.1323   -0.3878 C.ar    1  UNL1        0.0370
     14 C          -2.5090    0.0577    0.8477 C.ar    1  UNL1       -0.0494
     15 C          -3.8942    0.2361    0.9531 C.ar    1  UNL1       -0.0574
     16 C          -4.7237    0.2297   -0.1478 C.ar    1  UNL1       -0.0419
     17 C          -6.1975    0.4213   -0.0160 C.3     1  UNL1       -0.0127
     18 C          -6.5478    0.6033    1.4278 C.3     1  UNL1       -0.0560
     19 C          -6.6780    1.5917   -0.8415 C.3     1  UNL1       -0.0560
     20 C          -6.8803   -0.8456   -0.5074 C.3     1  UNL1       -0.0560
     21 C          -4.1305    0.0375   -1.3833 C.ar    1  UNL1       -0.0574
     22 C          -2.7672   -0.1384   -1.4901 C.ar    1  UNL1       -0.0494
     23 C           2.5881    0.6176    0.1482 C.ar    1  UNL1       -0.0385
     24 C           3.9282    0.5087   -0.0415 C.ar    1  UNL1       -0.0343
     25 C           6.7005   -1.8173   -0.7627 C.ar    1  UNL1        0.4451
     26 O           6.2460   -2.9037   -1.1644 O.2     1  UNL1       -0.2206
     27 O           7.9911   -1.5048   -0.7876 O.2     1  UNL1       -0.3584
     28 H           9.3407    2.4398   -0.4501 H       1  UNL1        0.0661
     29 H          10.3552    1.8193    0.9268 H       1  UNL1        0.0661
     30 H           8.5644    1.9280    1.1090 H       1  UNL1        0.0661
     31 H           4.3185   -2.8060    0.1645 H       1  UNL1        0.0639
     32 H           1.8557   -2.6206    0.5143 H       1  UNL1        0.0637
     33 H           0.0723   -0.1905    1.5130 H       1  UNL1        0.1551
     34 H          -1.9178    0.0737    1.7504 H       1  UNL1        0.0625
     35 H          -4.3489    0.3871    1.9384 H       1  UNL1        0.0621
     36 H          -7.6703    0.7004    1.4744 H       1  UNL1        0.0238
     37 H          -6.0609    1.4924    1.8781 H       1  UNL1        0.0238
     38 H          -6.2667   -0.3017    2.0004 H       1  UNL1        0.0238
     39 H          -6.0125    2.4620   -0.7926 H       1  UNL1        0.0238
     40 H          -6.8914    1.2690   -1.9006 H       1  UNL1        0.0238
     41 H          -7.6597    1.9025   -0.4247 H       1  UNL1        0.0238
     42 H          -6.5355   -1.6852    0.1292 H       1  UNL1        0.0238
     43 H          -7.9701   -0.7351   -0.5551 H       1  UNL1        0.0238
     44 H          -6.4338   -1.0516   -1.5229 H       1  UNL1        0.0238
     45 H          -4.7517    0.0276   -2.2602 H       1  UNL1        0.0621
     46 H          -2.2744   -0.2920   -2.4540 H       1  UNL1        0.0625
     47 H           2.1286    1.5848    0.1392 H       1  UNL1        0.0637
     48 H           4.5371    1.3906   -0.2019 H       1  UNL1        0.0639
@<TRIPOS>BOND
     1     1     2    1
     2     2     3    1
     3     3     4   ar
     4     4     5   ar
     5     5     6    1
     6     6     7   ar
     7     7     8   ar
     8     8     9   ar
     9     9    10    1
    10    10    11   am
    11    11    12    2
    12    11    13    1
    13    13    14   ar
    14    14    15   ar
    15    15    16   ar
    16    16    17    1
    17    17    18    1
    18    17    19    1
    19    17    20    1
    20    16    21   ar
    21    21    22   ar
    22     9    23   ar
    23    23    24   ar
    24     5    25   ar
    25    25    26    2
    26    25    27   ar
    27    27     3   ar
    28    24     6   ar
    29    22    13   ar
    30     1    28    1
    31     1    29    1
    32     1    30    1
    33     7    31    1
    34     8    32    1
    35    10    33    1
    36    14    34    1
    37    15    35    1
    38    18    36    1
    39    18    37    1
    40    18    38    1
    41    19    39    1
    42    19    40    1
    43    19    41    1
    44    20    42    1
    45    20    43    1
    46    20    44    1
    47    21    45    1
    48    22    46    1
    49    23    47    1
    50    24    48    1
