@<TRIPOS>MOLECULE
*****
 52 56 0 0 0
SMALL
GASTEIGER

@<TRIPOS>ATOM
      1 C           7.7566    1.0057    1.4420 C.3     1  UNL1        0.0147
      2 C           6.2838    0.9342    1.2768 C.ar    1  UNL1        0.2243
      3 N           5.5007    1.5725    0.3624 N.ar    1  UNL1       -0.1950
      4 C           4.2225    1.2219    0.5715 C.ar    1  UNL1        0.1856
      5 C           3.0211    1.6598   -0.1647 C.3     1  UNL1        0.0623
      6 N           2.7315    0.8160   -1.2764 N.3     1  UNL1       -0.2921
      7 C           1.5663    1.2124   -2.0198 C.3     1  UNL1        0.0151
      8 C           0.8004    0.0374   -2.5802 C.3     1  UNL1        0.0251
      9 N           0.5612   -0.9898   -1.6223 N.pl3   1  UNL1       -0.3246
     10 C          -0.5205   -1.8830   -1.6270 C.ar    1  UNL1        0.0792
     11 C          -0.5007   -3.1049   -2.2645 C.ar    1  UNL1        0.0822
     12 CL          0.9649   -3.5503   -3.1102 Cl      1  UNL1       -0.0800
     13 C          -1.6151   -3.9114   -2.2113 C.ar    1  UNL1        0.0501
     14 N          -2.7495   -3.5899   -1.5688 N.ar    1  UNL1       -0.2343
     15 C          -2.7646   -2.3812   -0.9402 C.ar    1  UNL1        0.1600
     16 N          -3.7078   -1.7392   -0.2134 N.ar    1  UNL1       -0.3226
     17 C          -3.2612   -0.5469    0.2128 C.ar    1  UNL1        0.1437
     18 C          -4.0161    0.4136    1.0245 C.ar    1  UNL1        0.0576
     19 C          -5.2983    0.2692    1.4896 C.ar    1  UNL1        0.0361
     20 N          -5.6451    1.3782    2.2059 N.ar    1  UNL1       -0.2735
     21 C          -6.9372    1.5555    2.8406 C.3     1  UNL1        0.0302
     22 N          -4.5958    2.1876    2.1808 N.ar    1  UNL1       -0.1760
     23 C          -3.5929    1.6445    1.4796 C.ar    1  UNL1        0.0706
     24 C          -2.2545    2.2281    1.2167 C.3     1  UNL1       -0.0199
     25 N          -2.0073   -0.4331   -0.2555 N.ar    1  UNL1       -0.2241
     26 C          -1.6767   -1.5349   -0.9617 C.ar    1  UNL1        0.1307
     27 C           1.5288   -1.1393   -0.5244 C.3     1  UNL1        0.0251
     28 C           2.8306   -0.5868   -1.0527 C.3     1  UNL1        0.0151
     29 N           4.2260    0.3734    1.6092 N.ar    1  UNL1       -0.0600
     30 O           5.4600    0.2223    2.0057 O.2     1  UNL1       -0.3383
     31 H           8.0607    1.1395    2.5081 H       1  UNL1        0.0325
     32 H           8.1530    1.8506    0.8656 H       1  UNL1        0.0325
     33 H           8.2360    0.0563    1.0733 H       1  UNL1        0.0325
     34 H           3.2558    2.6791   -0.5730 H       1  UNL1        0.0508
     35 H           2.1461    1.6974    0.5160 H       1  UNL1        0.0508
     36 H           0.8829    1.7365   -1.3193 H       1  UNL1        0.0442
     37 H           1.8290    1.9416   -2.8122 H       1  UNL1        0.0442
     38 H           1.3904   -0.4037   -3.4193 H       1  UNL1        0.0476
     39 H          -0.1682    0.3845   -2.9901 H       1  UNL1        0.0476
     40 H          -1.5497   -4.8748   -2.7349 H       1  UNL1        0.0846
     41 H          -4.6636   -2.1301   -0.0130 H       1  UNL1        0.1688
     42 H          -5.9243   -0.5945    1.3085 H       1  UNL1        0.0833
     43 H          -7.7014    1.8611    2.0940 H       1  UNL1        0.0473
     44 H          -6.8940    2.2494    3.6964 H       1  UNL1        0.0473
     45 H          -7.3256    0.5831    3.2633 H       1  UNL1        0.0473
     46 H          -2.2776    3.3363    1.1931 H       1  UNL1        0.0293
     47 H          -1.9417    1.9054    0.1871 H       1  UNL1        0.0293
     48 H          -1.5045    1.8454    1.9217 H       1  UNL1        0.0293
     49 H           1.2427   -0.5459    0.3553 H       1  UNL1        0.0476
     50 H           1.6606   -2.1857   -0.2344 H       1  UNL1        0.0476
     51 H           3.0933   -1.0671   -2.0265 H       1  UNL1        0.0442
     52 H           3.6889   -0.7839   -0.3847 H       1  UNL1        0.0442
@<TRIPOS>BOND
     1     1     2    1
     2     2     3   ar
     3     3     4   ar
     4     4     5    1
     5     5     6    1
     6     6     7    1
     7     7     8    1
     8     8     9    1
     9     9    10    1
    10    10    11   ar
    11    11    12    1
    12    11    13   ar
    13    13    14   ar
    14    14    15   ar
    15    15    16   ar
    16    16    17   ar
    17    17    18    1
    18    18    19   ar
    19    19    20   ar
    20    20    21    1
    21    20    22   ar
    22    22    23   ar
    23    23    24    1
    24    17    25   ar
    25    25    26   ar
    26     9    27    1
    27    27    28    1
    28     4    29   ar
    29    29    30   ar
    30    30     2   ar
    31    28     6    1
    32    26    10   ar
    33    26    15   ar
    34    23    18   ar
    35     1    31    1
    36     1    32    1
    37     1    33    1
    38     5    34    1
    39     5    35    1
    40     7    36    1
    41     7    37    1
    42     8    38    1
    43     8    39    1
    44    13    40    1
    45    16    41    1
    46    19    42    1
    47    21    43    1
    48    21    44    1
    49    21    45    1
    50    24    46    1
    51    24    47    1
    52    24    48    1
    53    27    49    1
    54    27    50    1
    55    28    51    1
    56    28    52    1
