
     RDKit          3D

 52 56  0  0  0  0  0  0  0  0999 V2000
    7.7566    1.0057    1.4420 C   0  0  0  0  0  0  0  0  0  0  0  0
    6.2838    0.9342    1.2768 C   0  0  0  0  0  0  0  0  0  0  0  0
    5.5007    1.5725    0.3624 N   0  0  0  0  0  0  0  0  0  0  0  0
    4.2225    1.2219    0.5715 C   0  0  0  0  0  0  0  0  0  0  0  0
    3.0211    1.6598   -0.1647 C   0  0  0  0  0  0  0  0  0  0  0  0
    2.7315    0.8160   -1.2764 N   0  0  0  0  0  0  0  0  0  0  0  0
    1.5663    1.2124   -2.0198 C   0  0  0  0  0  0  0  0  0  0  0  0
    0.8004    0.0374   -2.5802 C   0  0  0  0  0  0  0  0  0  0  0  0
    0.5612   -0.9898   -1.6223 N   0  0  0  0  0  0  0  0  0  0  0  0
   -0.5205   -1.8830   -1.6270 C   0  0  0  0  0  0  0  0  0  0  0  0
   -0.5007   -3.1049   -2.2645 C   0  0  0  0  0  0  0  0  0  0  0  0
    0.9649   -3.5503   -3.1102 Cl  0  0  0  0  0  0  0  0  0  0  0  0
   -1.6151   -3.9114   -2.2113 C   0  0  0  0  0  0  0  0  0  0  0  0
   -2.7495   -3.5899   -1.5688 N   0  0  0  0  0  0  0  0  0  0  0  0
   -2.7646   -2.3812   -0.9402 C   0  0  0  0  0  0  0  0  0  0  0  0
   -3.7078   -1.7392   -0.2134 N   0  0  0  0  0  0  0  0  0  0  0  0
   -3.2612   -0.5469    0.2128 C   0  0  0  0  0  0  0  0  0  0  0  0
   -4.0161    0.4136    1.0245 C   0  0  0  0  0  0  0  0  0  0  0  0
   -5.2983    0.2692    1.4896 C   0  0  0  0  0  0  0  0  0  0  0  0
   -5.6451    1.3782    2.2059 N   0  0  0  0  0  0  0  0  0  0  0  0
   -6.9372    1.5555    2.8406 C   0  0  0  0  0  0  0  0  0  0  0  0
   -4.5958    2.1876    2.1808 N   0  0  0  0  0  0  0  0  0  0  0  0
   -3.5929    1.6445    1.4796 C   0  0  0  0  0  0  0  0  0  0  0  0
   -2.2545    2.2281    1.2167 C   0  0  0  0  0  0  0  0  0  0  0  0
   -2.0073   -0.4331   -0.2555 N   0  0  0  0  0  0  0  0  0  0  0  0
   -1.6767   -1.5349   -0.9617 C   0  0  0  0  0  0  0  0  0  0  0  0
    1.5288   -1.1393   -0.5244 C   0  0  0  0  0  0  0  0  0  0  0  0
    2.8306   -0.5868   -1.0527 C   0  0  0  0  0  0  0  0  0  0  0  0
    4.2260    0.3734    1.6092 N   0  0  0  0  0  0  0  0  0  0  0  0
    5.4600    0.2223    2.0057 O   0  0  0  0  0  0  0  0  0  0  0  0
    8.0607    1.1395    2.5081 H   0  0  0  0  0  0  0  0  0  0  0  0
    8.1530    1.8506    0.8656 H   0  0  0  0  0  0  0  0  0  0  0  0
    8.2360    0.0563    1.0733 H   0  0  0  0  0  0  0  0  0  0  0  0
    3.2558    2.6791   -0.5730 H   0  0  0  0  0  0  0  0  0  0  0  0
    2.1461    1.6974    0.5160 H   0  0  0  0  0  0  0  0  0  0  0  0
    0.8829    1.7365   -1.3193 H   0  0  0  0  0  0  0  0  0  0  0  0
    1.8290    1.9416   -2.8122 H   0  0  0  0  0  0  0  0  0  0  0  0
    1.3904   -0.4037   -3.4193 H   0  0  0  0  0  0  0  0  0  0  0  0
   -0.1682    0.3845   -2.9901 H   0  0  0  0  0  0  0  0  0  0  0  0
   -1.5497   -4.8748   -2.7349 H   0  0  0  0  0  0  0  0  0  0  0  0
   -4.6636   -2.1301   -0.0130 H   0  0  0  0  0  0  0  0  0  0  0  0
   -5.9243   -0.5945    1.3085 H   0  0  0  0  0  0  0  0  0  0  0  0
   -7.7014    1.8611    2.0940 H   0  0  0  0  0  0  0  0  0  0  0  0
   -6.8940    2.2494    3.6964 H   0  0  0  0  0  0  0  0  0  0  0  0
   -7.3256    0.5831    3.2633 H   0  0  0  0  0  0  0  0  0  0  0  0
   -2.2776    3.3363    1.1931 H   0  0  0  0  0  0  0  0  0  0  0  0
   -1.9417    1.9054    0.1871 H   0  0  0  0  0  0  0  0  0  0  0  0
   -1.5045    1.8454    1.9217 H   0  0  0  0  0  0  0  0  0  0  0  0
    1.2427   -0.5459    0.3553 H   0  0  0  0  0  0  0  0  0  0  0  0
    1.6606   -2.1857   -0.2344 H   0  0  0  0  0  0  0  0  0  0  0  0
    3.0933   -1.0671   -2.0265 H   0  0  0  0  0  0  0  0  0  0  0  0
    3.6889   -0.7839   -0.3847 H   0  0  0  0  0  0  0  0  0  0  0  0
  1  2  1  0
  2  3  2  0
  3  4  1  0
  4  5  1  0
  5  6  1  0
  6  7  1  0
  7  8  1  0
  8  9  1  0
  9 10  1  0
 10 11  2  0
 11 12  1  0
 11 13  1  0
 13 14  2  0
 14 15  1  0
 15 16  1  0
 16 17  1  0
 17 18  1  0
 18 19  2  0
 19 20  1  0
 20 21  1  0
 20 22  1  0
 22 23  2  0
 23 24  1  0
 17 25  2  0
 25 26  1  0
  9 27  1  0
 27 28  1  0
  4 29  2  0
 29 30  1  0
 30  2  1  0
 28  6  1  0
 26 10  1  0
 26 15  2  0
 23 18  1  0
  1 31  1  0
  1 32  1  0
  1 33  1  0
  5 34  1  0
  5 35  1  0
  7 36  1  0
  7 37  1  0
  8 38  1  0
  8 39  1  0
 13 40  1  0
 16 41  1  0
 19 42  1  0
 21 43  1  0
 21 44  1  0
 21 45  1  0
 24 46  1  0
 24 47  1  0
 24 48  1  0
 27 49  1  0
 27 50  1  0
 28 51  1  0
 28 52  1  0
M  END
$$$$
