
     RDKit          3D

 48 51  0  0  0  0  0  0  0  0999 V2000
    6.8536    0.3216   -0.2332 C   0  0  0  0  0  0  0  0  0  0  0  0
    5.6588    0.9664    0.1197 O   0  0  0  0  0  0  0  0  0  0  0  0
    4.7285    0.4042    1.0195 C   0  0  0  0  0  0  0  0  0  0  0  0
    5.0024   -0.7071    1.5049 O   0  0  0  0  0  0  0  0  0  0  0  0
    3.5352    1.0673    1.3604 N   0  0  0  0  0  0  0  0  0  0  0  0
    2.5928    0.5033    2.2670 C   0  0  0  0  0  0  0  0  0  0  0  0
    2.0218   -0.7921    1.8405 C   0  0  0  0  0  0  0  0  0  0  0  0
    2.4468   -2.0601    2.1569 C   0  0  0  0  0  0  0  0  0  0  0  0
    1.6110   -2.9057    1.5197 N   0  0  0  0  0  0  0  0  0  0  0  0
    0.6909   -2.2123    0.8261 C   0  0  0  0  0  0  0  0  0  0  0  0
   -0.3756   -2.5286    0.0171 C   0  0  0  0  0  0  0  0  0  0  0  0
   -1.1787   -1.5701   -0.5868 C   0  0  0  0  0  0  0  0  0  0  0  0
   -0.8541   -0.2579   -0.3348 C   0  0  0  0  0  0  0  0  0  0  0  0
   -1.6394    0.8218   -0.9241 C   0  0  0  0  0  0  0  0  0  0  0  0
   -2.9727    1.0286   -0.6607 C   0  0  0  0  0  0  0  0  0  0  0  0
   -3.8040    0.2248    0.2268 C   0  0  0  0  0  0  0  0  0  0  0  0
   -3.4933    0.1773    1.5695 C   0  0  0  0  0  0  0  0  0  0  0  0
   -4.2505   -0.5746    2.4685 C   0  0  0  0  0  0  0  0  0  0  0  0
   -5.3399   -1.2972    2.0358 C   0  0  0  0  0  0  0  0  0  0  0  0
   -6.1006   -2.0410    2.8888 F   0  0  0  0  0  0  0  0  0  0  0  0
   -5.6602   -1.2570    0.6925 C   0  0  0  0  0  0  0  0  0  0  0  0
   -4.8969   -0.5035   -0.1923 C   0  0  0  0  0  0  0  0  0  0  0  0
   -3.3274    2.1191   -1.3942 N   0  0  0  0  0  0  0  0  0  0  0  0
   -2.2884    2.5742   -2.0776 C   0  0  0  0  0  0  0  0  0  0  0  0
   -1.2560    1.7814   -1.7906 N   0  0  0  0  0  0  0  0  0  0  0  0
    0.0917    1.9194   -2.3270 C   0  0  0  0  0  0  0  0  0  0  0  0
    0.1261    1.0947   -3.6003 C   0  0  0  0  0  0  0  0  0  0  0  0
   -0.8203    1.5689   -4.5148 F   0  0  0  0  0  0  0  0  0  0  0  0
   -0.1915   -0.2120   -3.3326 F   0  0  0  0  0  0  0  0  0  0  0  0
    0.1902    0.0278    0.4573 N   0  0  0  0  0  0  0  0  0  0  0  0
    0.9525   -0.9095    1.0302 N   0  0  0  0  0  0  0  0  0  0  0  0
    6.8727    0.2873   -1.3593 H   0  0  0  0  0  0  0  0  0  0  0  0
    6.8396   -0.6989    0.1892 H   0  0  0  0  0  0  0  0  0  0  0  0
    7.7565    0.8409    0.1346 H   0  0  0  0  0  0  0  0  0  0  0  0
    3.3517    2.0199    0.9139 H   0  0  0  0  0  0  0  0  0  0  0  0
    2.9941    0.4425    3.3209 H   0  0  0  0  0  0  0  0  0  0  0  0
    1.7239    1.2180    2.3858 H   0  0  0  0  0  0  0  0  0  0  0  0
    3.2916   -2.3505    2.8027 H   0  0  0  0  0  0  0  0  0  0  0  0
   -0.5787   -3.5838   -0.1416 H   0  0  0  0  0  0  0  0  0  0  0  0
   -2.0079   -1.8658   -1.2161 H   0  0  0  0  0  0  0  0  0  0  0  0
   -2.6373    0.7383    1.9397 H   0  0  0  0  0  0  0  0  0  0  0  0
   -3.9972   -0.6063    3.5327 H   0  0  0  0  0  0  0  0  0  0  0  0
   -6.5209   -1.8281    0.3451 H   0  0  0  0  0  0  0  0  0  0  0  0
   -5.1448   -0.4704   -1.2432 H   0  0  0  0  0  0  0  0  0  0  0  0
   -2.2835    3.4266   -2.7404 H   0  0  0  0  0  0  0  0  0  0  0  0
    0.8463    1.5062   -1.6528 H   0  0  0  0  0  0  0  0  0  0  0  0
    0.3348    2.9705   -2.5275 H   0  0  0  0  0  0  0  0  0  0  0  0
    1.1062    1.1814   -4.0819 H   0  0  0  0  0  0  0  0  0  0  0  0
  1  2  1  0
  2  3  1  0
  3  4  2  0
  3  5  1  0
  5  6  1  0
  6  7  1  0
  7  8  2  0
  8  9  1  0
  9 10  2  0
 10 11  1  0
 11 12  2  0
 12 13  1  0
 13 14  1  0
 14 15  2  0
 15 16  1  0
 16 17  2  0
 17 18  1  0
 18 19  2  0
 19 20  1  0
 19 21  1  0
 21 22  2  0
 15 23  1  0
 23 24  2  0
 24 25  1  0
 25 26  1  0
 26 27  1  0
 27 28  1  0
 27 29  1  0
 13 30  2  0
 30 31  1  0
 31  7  1  0
 31 10  1  0
 25 14  1  0
 22 16  1  0
  1 32  1  0
  1 33  1  0
  1 34  1  0
  5 35  1  0
  6 36  1  0
  6 37  1  0
  8 38  1  0
 11 39  1  0
 12 40  1  0
 17 41  1  0
 18 42  1  0
 21 43  1  0
 22 44  1  0
 24 45  1  0
 26 46  1  0
 26 47  1  0
 27 48  1  0
M  END
$$$$
