@<TRIPOS>MOLECULE
*****
 48 51 0 0 0
SMALL
GASTEIGER

@<TRIPOS>ATOM
      1 C           6.8536    0.3216   -0.2332 C.3     1  UNL1        0.0833
      2 O           5.6588    0.9664    0.1197 O.3     1  UNL1       -0.4537
      3 C           4.7285    0.4042    1.0195 C.2     1  UNL1        0.4003
      4 O           5.0024   -0.7071    1.5049 O.2     1  UNL1       -0.2265
      5 N           3.5352    1.0673    1.3604 N.am    1  UNL1       -0.2755
      6 C           2.5928    0.5033    2.2670 C.3     1  UNL1        0.0587
      7 C           2.0218   -0.7921    1.8405 C.ar    1  UNL1        0.0803
      8 C           2.4468   -2.0601    2.1569 C.ar    1  UNL1        0.0529
      9 N           1.6110   -2.9057    1.5197 N.ar    1  UNL1       -0.2343
     10 C           0.6909   -2.2123    0.8261 C.ar    1  UNL1        0.1544
     11 C          -0.3756   -2.5286    0.0171 C.ar    1  UNL1       -0.0153
     12 C          -1.1787   -1.5701   -0.5868 C.ar    1  UNL1       -0.0290
     13 C          -0.8541   -0.2579   -0.3348 C.ar    1  UNL1        0.1103
     14 C          -1.6394    0.8218   -0.9241 C.ar    1  UNL1        0.0968
     15 C          -2.9727    1.0286   -0.6607 C.ar    1  UNL1        0.0982
     16 C          -3.8040    0.2248    0.2268 C.ar    1  UNL1        0.0027
     17 C          -3.4933    0.1773    1.5695 C.ar    1  UNL1       -0.0498
     18 C          -4.2505   -0.5746    2.4685 C.ar    1  UNL1       -0.0258
     19 C          -5.3399   -1.2972    2.0358 C.ar    1  UNL1        0.1234
     20 F          -6.1006   -2.0410    2.8888 F       1  UNL1       -0.2055
     21 C          -5.6602   -1.2570    0.6925 C.ar    1  UNL1       -0.0258
     22 C          -4.8969   -0.5035   -0.1923 C.ar    1  UNL1       -0.0498
     23 N          -3.3274    2.1191   -1.3942 N.ar    1  UNL1       -0.2351
     24 C          -2.2884    2.5742   -2.0776 C.ar    1  UNL1        0.0973
     25 N          -1.2560    1.7814   -1.7906 N.ar    1  UNL1       -0.3229
     26 C           0.0917    1.9194   -2.3270 C.3     1  UNL1        0.0852
     27 C           0.1261    1.0947   -3.6003 C.3     1  UNL1        0.2569
     28 F          -0.8203    1.5689   -4.5148 F       1  UNL1       -0.2073
     29 F          -0.1915   -0.2120   -3.3326 F       1  UNL1       -0.2073
     30 N           0.1902    0.0278    0.4573 N.ar    1  UNL1       -0.1632
     31 N           0.9525   -0.9095    1.0302 N.ar    1  UNL1       -0.2151
     32 H           6.8727    0.2873   -1.3593 H       1  UNL1        0.0661
     33 H           6.8396   -0.6989    0.1892 H       1  UNL1        0.0661
     34 H           7.7565    0.8409    0.1346 H       1  UNL1        0.0661
     35 H           3.3517    2.0199    0.9139 H       1  UNL1        0.1524
     36 H           2.9941    0.4425    3.3209 H       1  UNL1        0.0528
     37 H           1.7239    1.2180    2.3858 H       1  UNL1        0.0528
     38 H           3.2916   -2.3505    2.8027 H       1  UNL1        0.0849
     39 H          -0.5787   -3.5838   -0.1416 H       1  UNL1        0.0655
     40 H          -2.0079   -1.8658   -1.2161 H       1  UNL1        0.0641
     41 H          -2.6373    0.7383    1.9397 H       1  UNL1        0.0625
     42 H          -3.9972   -0.6063    3.5327 H       1  UNL1        0.0646
     43 H          -6.5209   -1.8281    0.3451 H       1  UNL1        0.0646
     44 H          -5.1448   -0.4704   -1.2432 H       1  UNL1        0.0625
     45 H          -2.2835    3.4266   -2.7404 H       1  UNL1        0.1029
     46 H           0.8463    1.5062   -1.6528 H       1  UNL1        0.0548
     47 H           0.3348    2.9705   -2.5275 H       1  UNL1        0.0548
     48 H           1.1062    1.1814   -4.0819 H       1  UNL1        0.1037
@<TRIPOS>BOND
     1     1     2    1
     2     2     3    1
     3     3     4    2
     4     3     5   am
     5     5     6    1
     6     6     7    1
     7     7     8   ar
     8     8     9   ar
     9     9    10   ar
    10    10    11   ar
    11    11    12   ar
    12    12    13   ar
    13    13    14    1
    14    14    15   ar
    15    15    16    1
    16    16    17   ar
    17    17    18   ar
    18    18    19   ar
    19    19    20    1
    20    19    21   ar
    21    21    22   ar
    22    15    23   ar
    23    23    24   ar
    24    24    25   ar
    25    25    26    1
    26    26    27    1
    27    27    28    1
    28    27    29    1
    29    13    30   ar
    30    30    31   ar
    31    31     7   ar
    32    31    10   ar
    33    25    14   ar
    34    22    16   ar
    35     1    32    1
    36     1    33    1
    37     1    34    1
    38     5    35    1
    39     6    36    1
    40     6    37    1
    41     8    38    1
    42    11    39    1
    43    12    40    1
    44    17    41    1
    45    18    42    1
    46    21    43    1
    47    22    44    1
    48    24    45    1
    49    26    46    1
    50    26    47    1
    51    27    48    1
