
     RDKit          3D

 40 41  0  0  0  0  0  0  0  0999 V2000
   -3.0213    3.2544    0.9664 C   0  0  0  0  0  0  0  0  0  0  0  0
   -3.6467    1.9851    0.7268 N   0  0  0  0  0  0  0  0  0  0  0  0
   -2.7260    1.1573   -0.0451 C   0  0  0  0  0  0  0  0  0  0  0  0
   -1.5575    0.8317    0.8600 C   0  0  0  0  0  0  0  0  0  0  0  0
   -0.6030   -0.0380    0.0283 C   0  0  0  0  0  0  0  0  0  0  0  0
    0.4790   -0.3361    0.8722 O   0  0  0  0  0  0  0  0  0  0  0  0
    1.8037   -0.0120    0.6308 C   0  0  0  0  0  0  0  0  0  0  0  0
    2.6143   -0.4602    1.6811 C   0  0  0  0  0  0  0  0  0  0  0  0
    3.9937   -0.2311    1.6299 C   0  0  0  0  0  0  0  0  0  0  0  0
    4.5436    0.4363    0.5416 C   0  0  0  0  0  0  0  0  0  0  0  0
    3.7354    0.8732   -0.4871 C   0  0  0  0  0  0  0  0  0  0  0  0
    2.3773    0.6463   -0.4346 C   0  0  0  0  0  0  0  0  0  0  0  0
    5.9871    0.7441    0.3656 C   0  0  0  0  0  0  0  0  0  0  0  0
    6.0803    2.1423    0.3320 F   0  0  0  0  0  0  0  0  0  0  0  0
    6.7445    0.2498    1.4055 F   0  0  0  0  0  0  0  0  0  0  0  0
    6.3913    0.2980   -0.8722 F   0  0  0  0  0  0  0  0  0  0  0  0
   -1.3552   -1.2898   -0.2404 C   0  0  0  0  0  0  0  0  0  0  0  0
   -1.8193   -1.7224   -1.4750 C   0  0  0  0  0  0  0  0  0  0  0  0
   -2.5103   -2.9089   -1.5996 C   0  0  0  0  0  0  0  0  0  0  0  0
   -2.7697   -3.7141   -0.5099 C   0  0  0  0  0  0  0  0  0  0  0  0
   -2.3106   -3.2903    0.7246 C   0  0  0  0  0  0  0  0  0  0  0  0
   -1.6188   -2.1004    0.8427 C   0  0  0  0  0  0  0  0  0  0  0  0
   -2.7948    3.3647    2.0529 H   0  0  0  0  0  0  0  0  0  0  0  0
   -3.7083    4.0959    0.6837 H   0  0  0  0  0  0  0  0  0  0  0  0
   -2.1187    3.3763    0.3477 H   0  0  0  0  0  0  0  0  0  0  0  0
   -4.5333    2.0919    0.1740 H   0  0  0  0  0  0  0  0  0  0  0  0
   -2.3112    1.7021   -0.9249 H   0  0  0  0  0  0  0  0  0  0  0  0
   -3.2334    0.2207   -0.3637 H   0  0  0  0  0  0  0  0  0  0  0  0
   -1.0818    1.7822    1.1681 H   0  0  0  0  0  0  0  0  0  0  0  0
   -1.8814    0.2254    1.7310 H   0  0  0  0  0  0  0  0  0  0  0  0
   -0.3079    0.4971   -0.8991 H   0  0  0  0  0  0  0  0  0  0  0  0
    2.3237   -0.9869    2.5779 H   0  0  0  0  0  0  0  0  0  0  0  0
    4.7022   -0.5364    2.3887 H   0  0  0  0  0  0  0  0  0  0  0  0
    4.0546    1.4023   -1.3811 H   0  0  0  0  0  0  0  0  0  0  0  0
    1.6560    0.9444   -1.1843 H   0  0  0  0  0  0  0  0  0  0  0  0
   -1.5986   -1.0659   -2.3104 H   0  0  0  0  0  0  0  0  0  0  0  0
   -2.8497   -3.1996   -2.5829 H   0  0  0  0  0  0  0  0  0  0  0  0
   -3.3130   -4.6525   -0.5917 H   0  0  0  0  0  0  0  0  0  0  0  0
   -2.5245   -3.9366    1.5721 H   0  0  0  0  0  0  0  0  0  0  0  0
   -1.2916   -1.8402    1.8496 H   0  0  0  0  0  0  0  0  0  0  0  0
  1  2  1  0
  2  3  1  0
  3  4  1  0
  4  5  1  0
  5  6  1  0
  6  7  1  0
  7  8  2  0
  8  9  1  0
  9 10  2  0
 10 11  1  0
 11 12  2  0
 10 13  1  0
 13 14  1  0
 13 15  1  0
 13 16  1  0
  5 17  1  0
 17 18  2  0
 18 19  1  0
 19 20  2  0
 20 21  1  0
 21 22  2  0
 12  7  1  0
 22 17  1  0
  1 23  1  0
  1 24  1  0
  1 25  1  0
  2 26  1  0
  3 27  1  0
  3 28  1  0
  4 29  1  0
  4 30  1  0
  5 31  1  0
  8 32  1  0
  9 33  1  0
 11 34  1  0
 12 35  1  0
 18 36  1  0
 19 37  1  0
 20 38  1  0
 21 39  1  0
 22 40  1  0
M  END
$$$$
