
     RDKit          3D

 41 43  0  0  0  0  0  0  0  0999 V2000
   -4.5038   -2.1670    2.3471 O   0  0  0  0  0  0  0  0  0  0  0  0
   -3.9278   -1.3714    1.5868 C   0  0  0  0  0  0  0  0  0  0  0  0
   -3.2409   -0.2321    2.0595 N   0  0  0  0  0  0  0  0  0  0  0  0
   -2.5828    0.6764    1.1897 C   0  0  0  0  0  0  0  0  0  0  0  0
   -2.1987    1.7773    1.6350 O   0  0  0  0  0  0  0  0  0  0  0  0
   -2.3568    0.3263   -0.2140 C   0  0  0  0  0  0  0  0  0  0  0  0
   -2.5053    1.4979   -1.1466 C   0  0  0  0  0  0  0  0  0  0  0  0
   -3.8844    2.1151   -1.0784 C   0  0  0  0  0  0  0  0  0  0  0  0
   -4.2251    2.5885    0.1624 O   0  0  0  0  0  0  0  0  0  0  0  0
   -0.9410   -0.1709   -0.3563 C   0  0  0  0  0  0  0  0  0  0  0  0
   -0.1325    0.2674   -1.3793 C   0  0  0  0  0  0  0  0  0  0  0  0
    1.1773   -0.2135   -1.4891 C   0  0  0  0  0  0  0  0  0  0  0  0
    1.7034   -1.1262   -0.5982 C   0  0  0  0  0  0  0  0  0  0  0  0
    2.9996   -1.5634   -0.7573 O   0  0  0  0  0  0  0  0  0  0  0  0
    4.0987   -0.9320   -0.1727 C   0  0  0  0  0  0  0  0  0  0  0  0
    4.5596   -1.2819    1.0794 C   0  0  0  0  0  0  0  0  0  0  0  0
    5.6501   -0.6302    1.6182 C   0  0  0  0  0  0  0  0  0  0  0  0
    6.2803    0.3784    0.8944 C   0  0  0  0  0  0  0  0  0  0  0  0
    5.8038    0.7144   -0.3579 C   0  0  0  0  0  0  0  0  0  0  0  0
    4.7147    0.0607   -0.8914 C   0  0  0  0  0  0  0  0  0  0  0  0
    0.8720   -1.5538    0.4240 C   0  0  0  0  0  0  0  0  0  0  0  0
   -0.4212   -1.0829    0.5374 C   0  0  0  0  0  0  0  0  0  0  0  0
   -3.3060   -0.7135   -0.6916 C   0  0  0  0  0  0  0  0  0  0  0  0
   -3.5520   -0.8165   -1.9313 O   0  0  0  0  0  0  0  0  0  0  0  0
   -3.9491   -1.5975    0.1910 N   0  0  0  0  0  0  0  0  0  0  0  0
   -3.2212   -0.0584    3.0916 H   0  0  0  0  0  0  0  0  0  0  0  0
   -2.4454    1.0634   -2.1898 H   0  0  0  0  0  0  0  0  0  0  0  0
   -1.6832    2.2264   -1.0685 H   0  0  0  0  0  0  0  0  0  0  0  0
   -3.8926    2.9267   -1.8590 H   0  0  0  0  0  0  0  0  0  0  0  0
   -4.6481    1.3851   -1.4082 H   0  0  0  0  0  0  0  0  0  0  0  0
   -5.1826    2.7236    0.2195 H   0  0  0  0  0  0  0  0  0  0  0  0
   -0.4538    0.9800   -2.1202 H   0  0  0  0  0  0  0  0  0  0  0  0
    1.7659    0.1642   -2.3102 H   0  0  0  0  0  0  0  0  0  0  0  0
    4.0550   -2.0768    1.6383 H   0  0  0  0  0  0  0  0  0  0  0  0
    6.0107   -0.9040    2.5978 H   0  0  0  0  0  0  0  0  0  0  0  0
    7.1373    0.8936    1.3127 H   0  0  0  0  0  0  0  0  0  0  0  0
    6.2909    1.5098   -0.9434 H   0  0  0  0  0  0  0  0  0  0  0  0
    4.3668    0.3587   -1.8919 H   0  0  0  0  0  0  0  0  0  0  0  0
    1.2671   -2.2656    1.1275 H   0  0  0  0  0  0  0  0  0  0  0  0
   -1.0436   -1.4328    1.3418 H   0  0  0  0  0  0  0  0  0  0  0  0
   -4.4554   -2.4435   -0.1988 H   0  0  0  0  0  0  0  0  0  0  0  0
  1  2  2  0
  2  3  1  0
  3  4  1  0
  4  5  2  0
  4  6  1  0
  6  7  1  0
  7  8  1  0
  8  9  1  0
  6 10  1  0
 10 11  2  0
 11 12  1  0
 12 13  2  0
 13 14  1  0
 14 15  1  0
 15 16  2  0
 16 17  1  0
 17 18  2  0
 18 19  1  0
 19 20  2  0
 13 21  1  0
 21 22  2  0
  6 23  1  0
 23 24  2  0
 23 25  1  0
 25  2  1  0
 22 10  1  0
 20 15  1  0
  3 26  1  0
  7 27  1  0
  7 28  1  0
  8 29  1  0
  8 30  1  0
  9 31  1  0
 11 32  1  0
 12 33  1  0
 16 34  1  0
 17 35  1  0
 18 36  1  0
 19 37  1  0
 20 38  1  0
 21 39  1  0
 22 40  1  0
 25 41  1  0
M  END
$$$$
