@<TRIPOS>MOLECULE
*****
 41 43 0 0 0
SMALL
GASTEIGER

@<TRIPOS>ATOM
      1 O          -4.5038   -2.1670    2.3471 O.2     1  UNL1       -0.2520
      2 C          -3.9278   -1.3714    1.5868 C.2     1  UNL1        0.3122
      3 N          -3.2409   -0.2321    2.0595 N.am    1  UNL1       -0.2387
      4 C          -2.5828    0.6764    1.1897 C.2     1  UNL1        0.2399
      5 O          -2.1987    1.7773    1.6350 O.2     1  UNL1       -0.2739
      6 C          -2.3568    0.3263   -0.2140 C.3     1  UNL1        0.1502
      7 C          -2.5053    1.4979   -1.1466 C.3     1  UNL1       -0.0031
      8 C          -3.8844    2.1151   -1.0784 C.3     1  UNL1        0.0459
      9 O          -4.2251    2.5885    0.1624 O.3     1  UNL1       -0.3950
     10 C          -0.9410   -0.1709   -0.3563 C.ar    1  UNL1       -0.0234
     11 C          -0.1325    0.2674   -1.3793 C.ar    1  UNL1       -0.0536
     12 C           1.1773   -0.2135   -1.4891 C.ar    1  UNL1       -0.0190
     13 C           1.7034   -1.1262   -0.5982 C.ar    1  UNL1        0.1285
     14 O           2.9996   -1.5634   -0.7573 O.3     1  UNL1       -0.4560
     15 C           4.0987   -0.9320   -0.1727 C.ar    1  UNL1        0.1284
     16 C           4.5596   -1.2819    1.0794 C.ar    1  UNL1       -0.0193
     17 C           5.6501   -0.6302    1.6182 C.ar    1  UNL1       -0.0583
     18 C           6.2803    0.3784    0.8944 C.ar    1  UNL1       -0.0615
     19 C           5.8038    0.7144   -0.3579 C.ar    1  UNL1       -0.0583
     20 C           4.7147    0.0607   -0.8914 C.ar    1  UNL1       -0.0193
     21 C           0.8720   -1.5538    0.4240 C.ar    1  UNL1       -0.0190
     22 C          -0.4212   -1.0829    0.5374 C.ar    1  UNL1       -0.0536
     23 C          -3.3060   -0.7135   -0.6916 C.2     1  UNL1        0.2399
     24 O          -3.5520   -0.8165   -1.9313 O.2     1  UNL1       -0.2739
     25 N          -3.9491   -1.5975    0.1910 N.am    1  UNL1       -0.2387
     26 H          -3.2212   -0.0584    3.0916 H       1  UNL1        0.1591
     27 H          -2.4454    1.0634   -2.1898 H       1  UNL1        0.0305
     28 H          -1.6832    2.2264   -1.0685 H       1  UNL1        0.0305
     29 H          -3.8926    2.9267   -1.8590 H       1  UNL1        0.0557
     30 H          -4.6481    1.3851   -1.4082 H       1  UNL1        0.0557
     31 H          -5.1826    2.7236    0.2195 H       1  UNL1        0.2094
     32 H          -0.4538    0.9800   -2.1202 H       1  UNL1        0.0622
     33 H           1.7659    0.1642   -2.3102 H       1  UNL1        0.0654
     34 H           4.0550   -2.0768    1.6383 H       1  UNL1        0.0654
     35 H           6.0107   -0.9040    2.5978 H       1  UNL1        0.0619
     36 H           7.1373    0.8936    1.3127 H       1  UNL1        0.0618
     37 H           6.2909    1.5098   -0.9434 H       1  UNL1        0.0619
     38 H           4.3668    0.3587   -1.8919 H       1  UNL1        0.0654
     39 H           1.2671   -2.2656    1.1275 H       1  UNL1        0.0654
     40 H          -1.0436   -1.4328    1.3418 H       1  UNL1        0.0622
     41 H          -4.4554   -2.4435   -0.1988 H       1  UNL1        0.1591
@<TRIPOS>BOND
     1     1     2    2
     2     2     3   am
     3     3     4   am
     4     4     5    2
     5     4     6    1
     6     6     7    1
     7     7     8    1
     8     8     9    1
     9     6    10    1
    10    10    11   ar
    11    11    12   ar
    12    12    13   ar
    13    13    14    1
    14    14    15    1
    15    15    16   ar
    16    16    17   ar
    17    17    18   ar
    18    18    19   ar
    19    19    20   ar
    20    13    21   ar
    21    21    22   ar
    22     6    23    1
    23    23    24    2
    24    23    25   am
    25    25     2   am
    26    22    10   ar
    27    20    15   ar
    28     3    26    1
    29     7    27    1
    30     7    28    1
    31     8    29    1
    32     8    30    1
    33     9    31    1
    34    11    32    1
    35    12    33    1
    36    16    34    1
    37    17    35    1
    38    18    36    1
    39    19    37    1
    40    20    38    1
    41    21    39    1
    42    22    40    1
    43    25    41    1
