
     RDKit          3D

 69 74  0  0  0  0  0  0  0  0999 V2000
    8.8110    1.1767   -0.5846 C   0  0  0  0  0  0  0  0  0  0  0  0
    7.4143    1.1103   -0.2281 N   0  0  0  0  0  0  0  0  0  0  0  0
    7.0210    1.4980    1.1208 C   0  0  0  0  0  0  0  0  0  0  0  0
    6.4741    0.6818   -1.1927 C   0  0  0  0  0  0  0  0  0  0  0  0
    6.9254    0.3786   -2.3477 O   0  0  0  0  0  0  0  0  0  0  0  0
    5.0508    0.5815   -0.9144 C   0  0  0  0  0  0  0  0  0  0  0  0
    4.1423    1.6434   -1.0291 C   0  0  0  0  0  0  0  0  0  0  0  0
    2.8977    1.1807   -0.6745 C   0  0  0  0  0  0  0  0  0  0  0  0
    1.6295    1.7157   -0.5725 C   0  0  0  0  0  0  0  0  0  0  0  0
    0.5930    0.9460   -0.1662 N   0  0  0  0  0  0  0  0  0  0  0  0
    0.7540   -0.3522    0.1497 C   0  0  0  0  0  0  0  0  0  0  0  0
   -0.3723   -1.1098    0.5934 N   0  0  0  0  0  0  0  0  0  0  0  0
   -1.6011   -0.4263    0.7655 C   0  0  0  0  0  0  0  0  0  0  0  0
   -2.7121   -1.1138    1.1849 C   0  0  0  0  0  0  0  0  0  0  0  0
   -3.9456   -0.4830    1.3833 C   0  0  0  0  0  0  0  0  0  0  0  0
   -4.0108    0.8671    1.1413 C   0  0  0  0  0  0  0  0  0  0  0  0
   -5.2601    1.5752    1.3343 C   0  0  0  0  0  0  0  0  0  0  0  0
   -5.3089    2.4800    2.2410 O   0  0  0  0  0  0  0  0  0  0  0  0
   -6.3709    1.2667    0.5419 N   0  0  0  0  0  0  0  0  0  0  0  0
   -7.6250    2.0008    0.7483 C   0  0  0  0  0  0  0  0  0  0  0  0
   -8.7613    0.9934    0.7629 C   0  0  0  0  0  0  0  0  0  0  0  0
   -9.5561    1.0638   -0.5189 C   0  0  0  0  0  0  0  0  0  0  0  0
   -9.7545   -0.2730   -1.0603 N   0  0  0  0  0  0  0  0  0  0  0  0
   -8.4483   -0.8441   -1.3257 C   0  0  0  0  0  0  0  0  0  0  0  0
   -7.5085   -0.7134   -0.1427 C   0  0  0  0  0  0  0  0  0  0  0  0
   -6.3875    0.2607   -0.4890 C   0  0  0  0  0  0  0  0  0  0  0  0
   -8.2355   -0.2807    0.9786 O   0  0  0  0  0  0  0  0  0  0  0  0
   -2.8874    1.5345    0.7216 C   0  0  0  0  0  0  0  0  0  0  0  0
   -1.7137    0.9041    0.5391 N   0  0  0  0  0  0  0  0  0  0  0  0
    1.9822   -0.8735    0.0509 N   0  0  0  0  0  0  0  0  0  0  0  0
    3.0382   -0.1481   -0.3467 C   0  0  0  0  0  0  0  0  0  0  0  0
    4.3700   -0.4768   -0.5061 N   0  0  0  0  0  0  0  0  0  0  0  0
    4.8507   -1.8040   -0.2367 C   0  0  0  0  0  0  0  0  0  0  0  0
    5.6776   -1.8915    1.0296 C   0  0  0  0  0  0  0  0  0  0  0  0
    7.0493   -2.3138    0.6300 C   0  0  0  0  0  0  0  0  0  0  0  0
    7.0268   -2.6574   -0.8432 C   0  0  0  0  0  0  0  0  0  0  0  0
    5.6226   -2.4475   -1.3420 C   0  0  0  0  0  0  0  0  0  0  0  0
    9.0111    0.3746   -1.3477 H   0  0  0  0  0  0  0  0  0  0  0  0
    9.4748    1.0122    0.2909 H   0  0  0  0  0  0  0  0  0  0  0  0
    8.9924    2.1389   -1.0840 H   0  0  0  0  0  0  0  0  0  0  0  0
    5.8920    1.5353    1.1164 H   0  0  0  0  0  0  0  0  0  0  0  0
    7.3015    0.7077    1.8185 H   0  0  0  0  0  0  0  0  0  0  0  0
    7.4204    2.5042    1.3607 H   0  0  0  0  0  0  0  0  0  0  0  0
    4.3806    2.6350   -1.3375 H   0  0  0  0  0  0  0  0  0  0  0  0
    1.4881    2.7595   -0.8246 H   0  0  0  0  0  0  0  0  0  0  0  0
   -0.3240   -2.1221    0.7903 H   0  0  0  0  0  0  0  0  0  0  0  0
   -2.6205   -2.1792    1.3660 H   0  0  0  0  0  0  0  0  0  0  0  0
   -4.8082   -1.0244    1.7096 H   0  0  0  0  0  0  0  0  0  0  0  0
   -7.7299    2.6146   -0.1890 H   0  0  0  0  0  0  0  0  0  0  0  0
   -7.5839    2.6204    1.6583 H   0  0  0  0  0  0  0  0  0  0  0  0
   -9.4040    1.2403    1.6352 H   0  0  0  0  0  0  0  0  0  0  0  0
  -10.4911    1.6080   -0.3667 H   0  0  0  0  0  0  0  0  0  0  0  0
   -8.9566    1.6123   -1.3018 H   0  0  0  0  0  0  0  0  0  0  0  0
  -10.1907   -0.8455   -0.2865 H   0  0  0  0  0  0  0  0  0  0  0  0
   -7.9927   -0.3608   -2.2237 H   0  0  0  0  0  0  0  0  0  0  0  0
   -8.5729   -1.9326   -1.5814 H   0  0  0  0  0  0  0  0  0  0  0  0
   -7.1011   -1.7190    0.1237 H   0  0  0  0  0  0  0  0  0  0  0  0
   -6.6372    0.7975   -1.4401 H   0  0  0  0  0  0  0  0  0  0  0  0
   -5.4276   -0.2612   -0.5856 H   0  0  0  0  0  0  0  0  0  0  0  0
   -2.9354    2.6135    0.5277 H   0  0  0  0  0  0  0  0  0  0  0  0
    3.9806   -2.5095   -0.0363 H   0  0  0  0  0  0  0  0  0  0  0  0
    5.5891   -0.9559    1.5751 H   0  0  0  0  0  0  0  0  0  0  0  0
    5.2983   -2.6856    1.7371 H   0  0  0  0  0  0  0  0  0  0  0  0
    7.7409   -1.4614    0.7764 H   0  0  0  0  0  0  0  0  0  0  0  0
    7.4598   -3.1318    1.2636 H   0  0  0  0  0  0  0  0  0  0  0  0
    7.3709   -3.7296   -0.9244 H   0  0  0  0  0  0  0  0  0  0  0  0
    7.7221   -2.0710   -1.4493 H   0  0  0  0  0  0  0  0  0  0  0  0
    5.5397   -1.9370   -2.3067 H   0  0  0  0  0  0  0  0  0  0  0  0
    5.2427   -3.4975   -1.5609 H   0  0  0  0  0  0  0  0  0  0  0  0
  1  2  1  0
  2  3  1  0
  2  4  1  0
  4  5  2  0
  4  6  1  0
  6  7  2  0
  7  8  1  0
  8  9  2  0
  9 10  1  0
 10 11  2  0
 11 12  1  0
 12 13  1  0
 13 14  2  0
 14 15  1  0
 15 16  2  0
 16 17  1  0
 17 18  2  0
 17 19  1  0
 19 20  1  0
 20 21  1  0
 21 22  1  0
 22 23  1  0
 23 24  1  0
 24 25  1  0
 25 26  1  0
 25 27  1  0
 16 28  1  0
 28 29  2  0
 11 30  1  0
 30 31  2  0
 31 32  1  0
 32 33  1  0
 33 34  1  0
 34 35  1  0
 35 36  1  0
 36 37  1  0
 32  6  1  0
 37 33  1  0
 31  8  1  0
 29 13  1  0
 26 19  1  0
 27 21  1  0
  1 38  1  0
  1 39  1  0
  1 40  1  0
  3 41  1  0
  3 42  1  0
  3 43  1  0
  7 44  1  0
  9 45  1  0
 12 46  1  0
 14 47  1  0
 15 48  1  0
 20 49  1  0
 20 50  1  0
 21 51  1  0
 22 52  1  0
 22 53  1  0
 23 54  1  0
 24 55  1  0
 24 56  1  0
 25 57  1  0
 26 58  1  0
 26 59  1  0
 28 60  1  0
 33 61  1  0
 34 62  1  0
 34 63  1  0
 35 64  1  0
 35 65  1  0
 36 66  1  0
 36 67  1  0
 37 68  1  0
 37 69  1  0
M  END
$$$$
