@<TRIPOS>MOLECULE
*****
 69 74 0 0 0
SMALL
GASTEIGER

@<TRIPOS>ATOM
      1 C           8.8110    1.1767   -0.5846 C.3     1  UNL1        0.0032
      2 N           7.4143    1.1103   -0.2281 N.am    1  UNL1       -0.3024
      3 C           7.0210    1.4980    1.1208 C.3     1  UNL1        0.0032
      4 C           6.4741    0.6818   -1.1927 C.2     1  UNL1        0.2627
      5 O           6.9254    0.3786   -2.3477 O.2     1  UNL1       -0.2684
      6 C           5.0508    0.5815   -0.9144 C.ar    1  UNL1        0.1070
      7 C           4.1423    1.6434   -1.0291 C.ar    1  UNL1       -0.0209
      8 C           2.8977    1.1807   -0.6745 C.ar    1  UNL1        0.0378
      9 C           1.6295    1.7157   -0.5725 C.ar    1  UNL1        0.0419
     10 N           0.5930    0.9460   -0.1662 N.ar    1  UNL1       -0.2219
     11 C           0.7540   -0.3522    0.1497 C.ar    1  UNL1        0.2224
     12 N          -0.3723   -1.1098    0.5934 N.pl3   1  UNL1       -0.2685
     13 C          -1.6011   -0.4263    0.7655 C.ar    1  UNL1        0.1250
     14 C          -2.7121   -1.1138    1.1849 C.ar    1  UNL1       -0.0208
     15 C          -3.9456   -0.4830    1.3833 C.ar    1  UNL1       -0.0449
     16 C          -4.0108    0.8671    1.1413 C.ar    1  UNL1        0.0551
     17 C          -5.2601    1.5752    1.3343 C.2     1  UNL1        0.2482
     18 O          -5.3089    2.4800    2.2410 O.2     1  UNL1       -0.2699
     19 N          -6.3709    1.2667    0.5419 N.am    1  UNL1       -0.2925
     20 C          -7.6250    2.0008    0.7483 C.3     1  UNL1        0.0425
     21 C          -8.7613    0.9934    0.7629 C.3     1  UNL1        0.0872
     22 C          -9.5561    1.0638   -0.5189 C.3     1  UNL1        0.0238
     23 N          -9.7545   -0.2730   -1.0603 N.3     1  UNL1       -0.3110
     24 C          -8.4483   -0.8441   -1.3257 C.3     1  UNL1        0.0238
     25 C          -7.5085   -0.7134   -0.1427 C.3     1  UNL1        0.0872
     26 C          -6.3875    0.2607   -0.4890 C.3     1  UNL1        0.0425
     27 O          -8.2355   -0.2807    0.9786 O.3     1  UNL1       -0.3677
     28 C          -2.8874    1.5345    0.7216 C.ar    1  UNL1        0.0418
     29 N          -1.7137    0.9041    0.5391 N.ar    1  UNL1       -0.2394
     30 N           1.9822   -0.8735    0.0509 N.ar    1  UNL1       -0.1962
     31 C           3.0382   -0.1481   -0.3467 C.ar    1  UNL1        0.1466
     32 N           4.3700   -0.4768   -0.5061 N.ar    1  UNL1       -0.3180
     33 C           4.8507   -1.8040   -0.2367 C.3     1  UNL1        0.0366
     34 C           5.6776   -1.8915    1.0296 C.3     1  UNL1       -0.0320
     35 C           7.0493   -2.3138    0.6300 C.3     1  UNL1       -0.0511
     36 C           7.0268   -2.6574   -0.8432 C.3     1  UNL1       -0.0511
     37 C           5.6226   -2.4475   -1.3420 C.3     1  UNL1       -0.0320
     38 H           9.0111    0.3746   -1.3477 H       1  UNL1        0.0428
     39 H           9.4748    1.0122    0.2909 H       1  UNL1        0.0428
     40 H           8.9924    2.1389   -1.0840 H       1  UNL1        0.0428
     41 H           5.8920    1.5353    1.1164 H       1  UNL1        0.0428
     42 H           7.3015    0.7077    1.8185 H       1  UNL1        0.0428
     43 H           7.4204    2.5042    1.3607 H       1  UNL1        0.0428
     44 H           4.3806    2.6350   -1.3375 H       1  UNL1        0.0647
     45 H           1.4881    2.7595   -0.8246 H       1  UNL1        0.0838
     46 H          -0.3240   -2.1221    0.7903 H       1  UNL1        0.1564
     47 H          -2.6205   -2.1792    1.3660 H       1  UNL1        0.0652
     48 H          -4.8082   -1.0244    1.7096 H       1  UNL1        0.0627
     49 H          -7.7299    2.6146   -0.1890 H       1  UNL1        0.0490
     50 H          -7.5839    2.6204    1.6583 H       1  UNL1        0.0490
     51 H          -9.4040    1.2403    1.6352 H       1  UNL1        0.0624
     52 H         -10.4911    1.6080   -0.3667 H       1  UNL1        0.0450
     53 H          -8.9566    1.6123   -1.3018 H       1  UNL1        0.0450
     54 H         -10.1907   -0.8455   -0.2865 H       1  UNL1        0.1221
     55 H          -7.9927   -0.3608   -2.2237 H       1  UNL1        0.0450
     56 H          -8.5729   -1.9326   -1.5814 H       1  UNL1        0.0450
     57 H          -7.1011   -1.7190    0.1237 H       1  UNL1        0.0624
     58 H          -6.6372    0.7975   -1.4401 H       1  UNL1        0.0490
     59 H          -5.4276   -0.2612   -0.5856 H       1  UNL1        0.0490
     60 H          -2.9354    2.6135    0.5277 H       1  UNL1        0.0838
     61 H           3.9806   -2.5095   -0.0363 H       1  UNL1        0.0528
     62 H           5.5891   -0.9559    1.5751 H       1  UNL1        0.0285
     63 H           5.2983   -2.6856    1.7371 H       1  UNL1        0.0285
     64 H           7.7409   -1.4614    0.7764 H       1  UNL1        0.0266
     65 H           7.4598   -3.1318    1.2636 H       1  UNL1        0.0266
     66 H           7.3709   -3.7296   -0.9244 H       1  UNL1        0.0266
     67 H           7.7221   -2.0710   -1.4493 H       1  UNL1        0.0266
     68 H           5.5397   -1.9370   -2.3067 H       1  UNL1        0.0285
     69 H           5.2427   -3.4975   -1.5609 H       1  UNL1        0.0285
@<TRIPOS>BOND
     1     1     2    1
     2     2     3    1
     3     2     4   am
     4     4     5    2
     5     4     6    1
     6     6     7   ar
     7     7     8   ar
     8     8     9   ar
     9     9    10   ar
    10    10    11   ar
    11    11    12    1
    12    12    13    1
    13    13    14   ar
    14    14    15   ar
    15    15    16   ar
    16    16    17    1
    17    17    18    2
    18    17    19   am
    19    19    20    1
    20    20    21    1
    21    21    22    1
    22    22    23    1
    23    23    24    1
    24    24    25    1
    25    25    26    1
    26    25    27    1
    27    16    28   ar
    28    28    29   ar
    29    11    30   ar
    30    30    31   ar
    31    31    32   ar
    32    32    33    1
    33    33    34    1
    34    34    35    1
    35    35    36    1
    36    36    37    1
    37    32     6   ar
    38    37    33    1
    39    31     8   ar
    40    29    13   ar
    41    26    19    1
    42    27    21    1
    43     1    38    1
    44     1    39    1
    45     1    40    1
    46     3    41    1
    47     3    42    1
    48     3    43    1
    49     7    44    1
    50     9    45    1
    51    12    46    1
    52    14    47    1
    53    15    48    1
    54    20    49    1
    55    20    50    1
    56    21    51    1
    57    22    52    1
    58    22    53    1
    59    23    54    1
    60    24    55    1
    61    24    56    1
    62    25    57    1
    63    26    58    1
    64    26    59    1
    65    28    60    1
    66    33    61    1
    67    34    62    1
    68    34    63    1
    69    35    64    1
    70    35    65    1
    71    36    66    1
    72    36    67    1
    73    37    68    1
    74    37    69    1
