@<TRIPOS>MOLECULE
*****
 66 70 0 0 0
SMALL
GASTEIGER

@<TRIPOS>ATOM
      1 C          -5.3050    5.5797    0.5197 C.3     1  UNL1        0.0596
      2 S          -3.7740    5.3904    1.3815 S.O2    1  UNL1       -0.0059
      3 O          -4.0966    5.2624    2.8455 O.2     1  UNL1       -0.1696
      4 O          -2.8602    6.5654    1.1865 O.2     1  UNL1       -0.1696
      5 C          -2.9359    3.9162    0.9138 C.ar    1  UNL1        0.0879
      6 C          -3.1668    2.7547    1.6015 C.ar    1  UNL1       -0.0366
      7 C          -2.5342    1.5762    1.2736 C.ar    1  UNL1       -0.0549
      8 C          -1.6188    1.5230    0.2097 C.ar    1  UNL1       -0.0227
      9 C          -0.9742    0.2243   -0.0970 C.3     1  UNL1        0.0976
     10 C          -1.7225   -0.4303   -1.1890 C.ar    1  UNL1        0.1732
     11 N          -2.7476    0.1330   -1.8501 N.ar    1  UNL1       -0.1114
     12 N          -3.2027   -0.6930   -2.7448 N.ar    1  UNL1       -0.0230
     13 N          -2.4858   -1.7844   -2.6715 N.ar    1  UNL1       -0.0435
     14 N          -1.5596   -1.6370   -1.7066 N.ar    1  UNL1       -0.2230
     15 C          -0.6446   -2.6811   -1.3795 C.3     1  UNL1        0.0702
     16 C          -1.2633   -3.5857   -0.3765 C.ar    1  UNL1       -0.0260
     17 C          -0.9705   -3.4037    0.9481 C.ar    1  UNL1       -0.0568
     18 C          -1.5338   -4.2166    1.8844 C.ar    1  UNL1       -0.0614
     19 C          -2.3958   -5.2199    1.4982 C.ar    1  UNL1       -0.0617
     20 C          -2.6830   -5.3950    0.1674 C.ar    1  UNL1       -0.0614
     21 C          -2.1142   -4.5733   -0.7810 C.ar    1  UNL1       -0.0568
     22 N           0.4219    0.2869   -0.2516 N.3     1  UNL1       -0.2878
     23 C           1.1146    0.7693    0.8766 C.3     1  UNL1        0.0011
     24 C           2.2551    1.7064    0.5547 C.3     1  UNL1       -0.0273
     25 C           3.4819    0.8757    0.1496 C.3     1  UNL1        0.0004
     26 N           3.0004   -0.3875   -0.2985 N.3     1  UNL1       -0.2981
     27 C           3.9244   -1.4704   -0.2775 C.3     1  UNL1        0.0105
     28 C           5.2018   -1.2694   -1.0965 C.3     1  UNL1       -0.0373
     29 C           5.9794   -1.0571    0.1860 C.3     1  UNL1       -0.0502
     30 C           4.7909   -1.6132    0.9351 C.3     1  UNL1       -0.0373
     31 C           2.3340   -0.3281   -1.5646 C.3     1  UNL1        0.0120
     32 C           1.0020    0.3954   -1.5226 C.3     1  UNL1        0.0126
     33 C          -1.4056    2.6882   -0.4592 C.ar    1  UNL1       -0.0549
     34 C          -2.0448    3.8798   -0.1278 C.ar    1  UNL1       -0.0366
     35 H          -5.2735    5.1378   -0.5038 H       1  UNL1        0.0468
     36 H          -5.4715    6.6773    0.3808 H       1  UNL1        0.0468
     37 H          -6.1580    5.1014    1.0335 H       1  UNL1        0.0468
     38 H          -3.8852    2.8045    2.4346 H       1  UNL1        0.0637
     39 H          -2.7293    0.6802    1.8236 H       1  UNL1        0.0621
     40 H          -1.1418   -0.4583    0.8184 H       1  UNL1        0.0594
     41 H           0.3062   -2.3405   -0.9393 H       1  UNL1        0.0560
     42 H          -0.4317   -3.2868   -2.3069 H       1  UNL1        0.0560
     43 H          -0.2761   -2.6087    1.2682 H       1  UNL1        0.0621
     44 H          -1.2911   -4.0579    2.9370 H       1  UNL1        0.0618
     45 H          -2.8559   -5.8816    2.2439 H       1  UNL1        0.0618
     46 H          -3.3704   -6.1942   -0.1476 H       1  UNL1        0.0618
     47 H          -2.3583   -4.7306   -1.8431 H       1  UNL1        0.0621
     48 H           1.5783   -0.0759    1.4692 H       1  UNL1        0.0427
     49 H           0.4512    1.2914    1.6111 H       1  UNL1        0.0427
     50 H           2.4744    2.2819    1.4770 H       1  UNL1        0.0290
     51 H           1.9986    2.4350   -0.2162 H       1  UNL1        0.0290
     52 H           3.9876    1.4515   -0.6549 H       1  UNL1        0.0427
     53 H           4.0905    0.7613    1.0401 H       1  UNL1        0.0427
     54 H           3.4145   -2.4121   -0.6039 H       1  UNL1        0.0462
     55 H           5.1811   -0.4241   -1.7832 H       1  UNL1        0.0280
     56 H           5.5543   -2.2041   -1.5958 H       1  UNL1        0.0280
     57 H           6.2614   -0.0176    0.4020 H       1  UNL1        0.0266
     58 H           6.9019   -1.6922    0.2754 H       1  UNL1        0.0266
     59 H           4.4482   -1.0637    1.8110 H       1  UNL1        0.0280
     60 H           4.9679   -2.7177    1.1161 H       1  UNL1        0.0280
     61 H           3.0115    0.2618   -2.2490 H       1  UNL1        0.0439
     62 H           2.1816   -1.3318   -1.9727 H       1  UNL1        0.0439
     63 H           1.1699    1.4693   -1.8116 H       1  UNL1        0.0439
     64 H           0.3449   -0.1133   -2.2622 H       1  UNL1        0.0439
     65 H          -0.7183    2.7118   -1.2919 H       1  UNL1        0.0621
     66 H          -1.8298    4.7646   -0.6974 H       1  UNL1        0.0637
@<TRIPOS>BOND
     1     1     2    1
     2     2     3    2
     3     2     4    2
     4     2     5    1
     5     5     6   ar
     6     6     7   ar
     7     7     8   ar
     8     8     9    1
     9     9    10    1
    10    10    11   ar
    11    11    12   ar
    12    12    13   ar
    13    13    14   ar
    14    14    15    1
    15    15    16    1
    16    16    17   ar
    17    17    18   ar
    18    18    19   ar
    19    19    20   ar
    20    20    21   ar
    21     9    22    1
    22    22    23    1
    23    23    24    1
    24    24    25    1
    25    25    26    1
    26    26    27    1
    27    27    28    1
    28    28    29    1
    29    29    30    1
    30    26    31    1
    31    31    32    1
    32     8    33   ar
    33    33    34   ar
    34    34     5   ar
    35    14    10   ar
    36    21    16   ar
    37    32    22    1
    38    30    27    1
    39     1    35    1
    40     1    36    1
    41     1    37    1
    42     6    38    1
    43     7    39    1
    44     9    40    1
    45    15    41    1
    46    15    42    1
    47    17    43    1
    48    18    44    1
    49    19    45    1
    50    20    46    1
    51    21    47    1
    52    23    48    1
    53    23    49    1
    54    24    50    1
    55    24    51    1
    56    25    52    1
    57    25    53    1
    58    27    54    1
    59    28    55    1
    60    28    56    1
    61    29    57    1
    62    29    58    1
    63    30    59    1
    64    30    60    1
    65    31    61    1
    66    31    62    1
    67    32    63    1
    68    32    64    1
    69    33    65    1
    70    34    66    1
