
     RDKit          3D

 66 70  0  0  0  0  0  0  0  0999 V2000
   -5.3050    5.5797    0.5197 C   0  0  0  0  0  0  0  0  0  0  0  0
   -3.7740    5.3904    1.3815 S   0  0  0  0  0  6  0  0  0  0  0  0
   -4.0966    5.2624    2.8455 O   0  0  0  0  0  0  0  0  0  0  0  0
   -2.8602    6.5654    1.1865 O   0  0  0  0  0  0  0  0  0  0  0  0
   -2.9359    3.9162    0.9138 C   0  0  0  0  0  0  0  0  0  0  0  0
   -3.1668    2.7547    1.6015 C   0  0  0  0  0  0  0  0  0  0  0  0
   -2.5342    1.5762    1.2736 C   0  0  0  0  0  0  0  0  0  0  0  0
   -1.6188    1.5230    0.2097 C   0  0  0  0  0  0  0  0  0  0  0  0
   -0.9742    0.2243   -0.0970 C   0  0  0  0  0  0  0  0  0  0  0  0
   -1.7225   -0.4303   -1.1890 C   0  0  0  0  0  0  0  0  0  0  0  0
   -2.7476    0.1330   -1.8501 N   0  0  0  0  0  0  0  0  0  0  0  0
   -3.2027   -0.6930   -2.7448 N   0  0  0  0  0  0  0  0  0  0  0  0
   -2.4858   -1.7844   -2.6715 N   0  0  0  0  0  0  0  0  0  0  0  0
   -1.5596   -1.6370   -1.7066 N   0  0  0  0  0  0  0  0  0  0  0  0
   -0.6446   -2.6811   -1.3795 C   0  0  0  0  0  0  0  0  0  0  0  0
   -1.2633   -3.5857   -0.3765 C   0  0  0  0  0  0  0  0  0  0  0  0
   -0.9705   -3.4037    0.9481 C   0  0  0  0  0  0  0  0  0  0  0  0
   -1.5338   -4.2166    1.8844 C   0  0  0  0  0  0  0  0  0  0  0  0
   -2.3958   -5.2199    1.4982 C   0  0  0  0  0  0  0  0  0  0  0  0
   -2.6830   -5.3950    0.1674 C   0  0  0  0  0  0  0  0  0  0  0  0
   -2.1142   -4.5733   -0.7810 C   0  0  0  0  0  0  0  0  0  0  0  0
    0.4219    0.2869   -0.2516 N   0  0  0  0  0  0  0  0  0  0  0  0
    1.1146    0.7693    0.8766 C   0  0  0  0  0  0  0  0  0  0  0  0
    2.2551    1.7064    0.5547 C   0  0  0  0  0  0  0  0  0  0  0  0
    3.4819    0.8757    0.1496 C   0  0  0  0  0  0  0  0  0  0  0  0
    3.0004   -0.3875   -0.2985 N   0  0  0  0  0  0  0  0  0  0  0  0
    3.9244   -1.4704   -0.2775 C   0  0  0  0  0  0  0  0  0  0  0  0
    5.2018   -1.2694   -1.0965 C   0  0  0  0  0  0  0  0  0  0  0  0
    5.9794   -1.0571    0.1860 C   0  0  0  0  0  0  0  0  0  0  0  0
    4.7909   -1.6132    0.9351 C   0  0  0  0  0  0  0  0  0  0  0  0
    2.3340   -0.3281   -1.5646 C   0  0  0  0  0  0  0  0  0  0  0  0
    1.0020    0.3954   -1.5226 C   0  0  0  0  0  0  0  0  0  0  0  0
   -1.4056    2.6882   -0.4592 C   0  0  0  0  0  0  0  0  0  0  0  0
   -2.0448    3.8798   -0.1278 C   0  0  0  0  0  0  0  0  0  0  0  0
   -5.2735    5.1378   -0.5038 H   0  0  0  0  0  0  0  0  0  0  0  0
   -5.4715    6.6773    0.3808 H   0  0  0  0  0  0  0  0  0  0  0  0
   -6.1580    5.1014    1.0335 H   0  0  0  0  0  0  0  0  0  0  0  0
   -3.8852    2.8045    2.4346 H   0  0  0  0  0  0  0  0  0  0  0  0
   -2.7293    0.6802    1.8236 H   0  0  0  0  0  0  0  0  0  0  0  0
   -1.1418   -0.4583    0.8184 H   0  0  0  0  0  0  0  0  0  0  0  0
    0.3062   -2.3405   -0.9393 H   0  0  0  0  0  0  0  0  0  0  0  0
   -0.4317   -3.2868   -2.3069 H   0  0  0  0  0  0  0  0  0  0  0  0
   -0.2761   -2.6087    1.2682 H   0  0  0  0  0  0  0  0  0  0  0  0
   -1.2911   -4.0579    2.9370 H   0  0  0  0  0  0  0  0  0  0  0  0
   -2.8559   -5.8816    2.2439 H   0  0  0  0  0  0  0  0  0  0  0  0
   -3.3704   -6.1942   -0.1476 H   0  0  0  0  0  0  0  0  0  0  0  0
   -2.3583   -4.7306   -1.8431 H   0  0  0  0  0  0  0  0  0  0  0  0
    1.5783   -0.0759    1.4692 H   0  0  0  0  0  0  0  0  0  0  0  0
    0.4512    1.2914    1.6111 H   0  0  0  0  0  0  0  0  0  0  0  0
    2.4744    2.2819    1.4770 H   0  0  0  0  0  0  0  0  0  0  0  0
    1.9986    2.4350   -0.2162 H   0  0  0  0  0  0  0  0  0  0  0  0
    3.9876    1.4515   -0.6549 H   0  0  0  0  0  0  0  0  0  0  0  0
    4.0905    0.7613    1.0401 H   0  0  0  0  0  0  0  0  0  0  0  0
    3.4145   -2.4121   -0.6039 H   0  0  0  0  0  0  0  0  0  0  0  0
    5.1811   -0.4241   -1.7832 H   0  0  0  0  0  0  0  0  0  0  0  0
    5.5543   -2.2041   -1.5958 H   0  0  0  0  0  0  0  0  0  0  0  0
    6.2614   -0.0176    0.4020 H   0  0  0  0  0  0  0  0  0  0  0  0
    6.9019   -1.6922    0.2754 H   0  0  0  0  0  0  0  0  0  0  0  0
    4.4482   -1.0637    1.8110 H   0  0  0  0  0  0  0  0  0  0  0  0
    4.9679   -2.7177    1.1161 H   0  0  0  0  0  0  0  0  0  0  0  0
    3.0115    0.2618   -2.2490 H   0  0  0  0  0  0  0  0  0  0  0  0
    2.1816   -1.3318   -1.9727 H   0  0  0  0  0  0  0  0  0  0  0  0
    1.1699    1.4693   -1.8116 H   0  0  0  0  0  0  0  0  0  0  0  0
    0.3449   -0.1133   -2.2622 H   0  0  0  0  0  0  0  0  0  0  0  0
   -0.7183    2.7118   -1.2919 H   0  0  0  0  0  0  0  0  0  0  0  0
   -1.8298    4.7646   -0.6974 H   0  0  0  0  0  0  0  0  0  0  0  0
  1  2  1  0
  2  3  2  0
  2  4  2  0
  2  5  1  0
  5  6  2  0
  6  7  1  0
  7  8  2  0
  8  9  1  0
  9 10  1  0
 10 11  2  0
 11 12  1  0
 12 13  2  0
 13 14  1  0
 14 15  1  0
 15 16  1  0
 16 17  2  0
 17 18  1  0
 18 19  2  0
 19 20  1  0
 20 21  2  0
  9 22  1  0
 22 23  1  0
 23 24  1  0
 24 25  1  0
 25 26  1  0
 26 27  1  0
 27 28  1  0
 28 29  1  0
 29 30  1  0
 26 31  1  0
 31 32  1  0
  8 33  1  0
 33 34  2  0
 34  5  1  0
 14 10  1  0
 21 16  1  0
 32 22  1  0
 30 27  1  0
  1 35  1  0
  1 36  1  0
  1 37  1  0
  6 38  1  0
  7 39  1  0
  9 40  1  0
 15 41  1  0
 15 42  1  0
 17 43  1  0
 18 44  1  0
 19 45  1  0
 20 46  1  0
 21 47  1  0
 23 48  1  0
 23 49  1  0
 24 50  1  0
 24 51  1  0
 25 52  1  0
 25 53  1  0
 27 54  1  0
 28 55  1  0
 28 56  1  0
 29 57  1  0
 29 58  1  0
 30 59  1  0
 30 60  1  0
 31 61  1  0
 31 62  1  0
 32 63  1  0
 32 64  1  0
 33 65  1  0
 34 66  1  0
M  END
$$$$
