@<TRIPOS>MOLECULE
*****
 56 60 0 0 0
SMALL
GASTEIGER

@<TRIPOS>ATOM
      1 N          -4.9298   -2.9517   -0.3974 N.pl3   1  UNL1       -0.3134
      2 C          -4.9311   -1.5260   -0.5788 C.2     1  UNL1        0.2766
      3 N          -3.9437   -0.9103   -1.1247 N.2     1  UNL1       -0.2228
      4 C          -3.8517    0.5164   -1.3505 C.3     1  UNL1        0.1258
      5 C          -3.3699    0.7026   -2.8057 C.3     1  UNL1        0.1196
      6 F          -2.1309    0.0899   -2.9606 F       1  UNL1       -0.2462
      7 C          -2.8040    1.0626   -0.4952 C.ar    1  UNL1        0.0196
      8 C          -2.0755    0.2389    0.3404 C.ar    1  UNL1       -0.0322
      9 C          -1.0595    0.7422    1.1540 C.ar    1  UNL1        0.0329
     10 N          -0.3273   -0.1444    2.0168 N.pl3   1  UNL1       -0.2977
     11 C           0.8838    0.2923    2.6023 C.ar    1  UNL1        0.1492
     12 N           1.0060    0.9724    3.7418 N.ar    1  UNL1       -0.2351
     13 C           2.2136    1.3499    4.2344 C.ar    1  UNL1        0.0656
     14 C           3.3853    1.0489    3.5805 C.ar    1  UNL1        0.1507
     15 F           4.6108    1.4290    4.0691 F       1  UNL1       -0.2032
     16 C           3.2935    0.3429    2.3934 C.ar    1  UNL1        0.0416
     17 C           4.4688    0.0482    1.7434 C.ar    1  UNL1       -0.0328
     18 C           4.4029   -0.6595    0.5442 C.ar    1  UNL1        0.0437
     19 C           5.5701   -1.0156   -0.2061 C.1     1  UNL1       -0.0645
     20 C           6.5627   -1.3125   -0.8266 C.1     1  UNL1       -0.0936
     21 C           7.7919   -1.6736   -1.5760 C.3     1  UNL1        0.0211
     22 C           8.0537   -3.1457   -1.5535 C.3     1  UNL1       -0.0382
     23 C           8.9158   -2.1966   -0.7634 C.3     1  UNL1       -0.0382
     24 C           3.1506   -1.0120    0.0999 C.ar    1  UNL1        0.0438
     25 N           2.0159   -0.7127    0.7527 N.ar    1  UNL1       -0.2502
     26 C           2.0513   -0.0197    1.9301 C.ar    1  UNL1        0.1137
     27 C          -0.7515    2.0840    1.1484 C.ar    1  UNL1       -0.0378
     28 C          -1.4724    2.9194    0.3178 C.ar    1  UNL1       -0.0243
     29 C          -2.4685    2.3969   -0.4738 C.ar    1  UNL1        0.1291
     30 F          -3.1549    3.2328   -1.2669 F       1  UNL1       -0.2051
     31 C          -5.2016    1.1120   -1.1914 C.3     1  UNL1        0.0251
     32 C          -5.8426    0.6198    0.0662 C.3     1  UNL1        0.1998
     33 C          -7.1823    1.3086    0.2804 C.3     1  UNL1        0.4266
     34 F          -6.9289    2.6632    0.3662 F       1  UNL1       -0.1669
     35 F          -8.0325    1.0209   -0.7804 F       1  UNL1       -0.1669
     36 F          -7.7716    0.9086    1.4591 F       1  UNL1       -0.1669
     37 O          -6.0497   -0.7891   -0.1421 O.2     1  UNL1       -0.4534
     38 H          -5.7466   -3.5490   -0.6835 H       1  UNL1        0.1466
     39 H          -4.1000   -3.3818    0.0242 H       1  UNL1        0.1466
     40 H          -3.2032    1.7723   -3.0229 H       1  UNL1        0.0643
     41 H          -4.0630    0.2148   -3.5026 H       1  UNL1        0.0643
     42 H          -2.2791   -0.8287    0.3834 H       1  UNL1        0.0640
     43 H          -0.6534   -1.1023    2.2329 H       1  UNL1        0.1536
     44 H           2.2584    1.8984    5.1561 H       1  UNL1        0.0860
     45 H           5.4087    0.3514    2.1454 H       1  UNL1        0.0638
     46 H           8.0476   -1.0919   -2.4810 H       1  UNL1        0.0433
     47 H           8.4690   -3.5741   -2.5005 H       1  UNL1        0.0277
     48 H           7.3845   -3.8314   -0.9884 H       1  UNL1        0.0277
     49 H           8.8418   -2.2825    0.3398 H       1  UNL1        0.0277
     50 H           9.9427   -2.0780   -1.1490 H       1  UNL1        0.0277
     51 H           3.0950   -1.5672   -0.8426 H       1  UNL1        0.0842
     52 H           0.0455    2.4453    1.7942 H       1  UNL1        0.0637
     53 H          -1.2290    3.9696    0.3165 H       1  UNL1        0.0647
     54 H          -5.2503    2.2055   -1.3325 H       1  UNL1        0.0331
     55 H          -5.8253    0.6871   -2.0403 H       1  UNL1        0.0331
     56 H          -5.2401    0.7092    0.9768 H       1  UNL1        0.0826
@<TRIPOS>BOND
     1     1     2    1
     2     2     3    2
     3     3     4    1
     4     4     5    1
     5     5     6    1
     6     4     7    1
     7     7     8   ar
     8     8     9   ar
     9     9    10    1
    10    10    11    1
    11    11    12   ar
    12    12    13   ar
    13    13    14   ar
    14    14    15    1
    15    14    16   ar
    16    16    17   ar
    17    17    18   ar
    18    18    19    1
    19    19    20    3
    20    20    21    1
    21    21    22    1
    22    22    23    1
    23    18    24   ar
    24    24    25   ar
    25    25    26   ar
    26     9    27   ar
    27    27    28   ar
    28    28    29   ar
    29    29    30    1
    30     4    31    1
    31    31    32    1
    32    32    33    1
    33    33    34    1
    34    33    35    1
    35    33    36    1
    36    32    37    1
    37    37     2    1
    38    29     7   ar
    39    26    11   ar
    40    26    16   ar
    41    23    21    1
    42     1    38    1
    43     1    39    1
    44     5    40    1
    45     5    41    1
    46     8    42    1
    47    10    43    1
    48    13    44    1
    49    17    45    1
    50    21    46    1
    51    22    47    1
    52    22    48    1
    53    23    49    1
    54    23    50    1
    55    24    51    1
    56    27    52    1
    57    28    53    1
    58    31    54    1
    59    31    55    1
    60    32    56    1
