
     RDKit          3D

 56 60  0  0  0  0  0  0  0  0999 V2000
   -4.9298   -2.9517   -0.3974 N   0  0  0  0  0  0  0  0  0  0  0  0
   -4.9311   -1.5260   -0.5788 C   0  0  0  0  0  0  0  0  0  0  0  0
   -3.9437   -0.9103   -1.1247 N   0  0  0  0  0  0  0  0  0  0  0  0
   -3.8517    0.5164   -1.3505 C   0  0  2  0  0  0  0  0  0  0  0  0
   -3.3699    0.7026   -2.8057 C   0  0  0  0  0  0  0  0  0  0  0  0
   -2.1309    0.0899   -2.9606 F   0  0  0  0  0  0  0  0  0  0  0  0
   -2.8040    1.0626   -0.4952 C   0  0  0  0  0  0  0  0  0  0  0  0
   -2.0755    0.2389    0.3404 C   0  0  0  0  0  0  0  0  0  0  0  0
   -1.0595    0.7422    1.1540 C   0  0  0  0  0  0  0  0  0  0  0  0
   -0.3273   -0.1444    2.0168 N   0  0  0  0  0  0  0  0  0  0  0  0
    0.8838    0.2923    2.6023 C   0  0  0  0  0  0  0  0  0  0  0  0
    1.0060    0.9724    3.7418 N   0  0  0  0  0  0  0  0  0  0  0  0
    2.2136    1.3499    4.2344 C   0  0  0  0  0  0  0  0  0  0  0  0
    3.3853    1.0489    3.5805 C   0  0  0  0  0  0  0  0  0  0  0  0
    4.6108    1.4290    4.0691 F   0  0  0  0  0  0  0  0  0  0  0  0
    3.2935    0.3429    2.3934 C   0  0  0  0  0  0  0  0  0  0  0  0
    4.4688    0.0482    1.7434 C   0  0  0  0  0  0  0  0  0  0  0  0
    4.4029   -0.6595    0.5442 C   0  0  0  0  0  0  0  0  0  0  0  0
    5.5701   -1.0156   -0.2061 C   0  0  0  0  0  0  0  0  0  0  0  0
    6.5627   -1.3125   -0.8266 C   0  0  0  0  0  0  0  0  0  0  0  0
    7.7919   -1.6736   -1.5760 C   0  0  0  0  0  0  0  0  0  0  0  0
    8.0537   -3.1457   -1.5535 C   0  0  0  0  0  0  0  0  0  0  0  0
    8.9158   -2.1966   -0.7634 C   0  0  0  0  0  0  0  0  0  0  0  0
    3.1506   -1.0120    0.0999 C   0  0  0  0  0  0  0  0  0  0  0  0
    2.0159   -0.7127    0.7527 N   0  0  0  0  0  0  0  0  0  0  0  0
    2.0513   -0.0197    1.9301 C   0  0  0  0  0  0  0  0  0  0  0  0
   -0.7515    2.0840    1.1484 C   0  0  0  0  0  0  0  0  0  0  0  0
   -1.4724    2.9194    0.3178 C   0  0  0  0  0  0  0  0  0  0  0  0
   -2.4685    2.3969   -0.4738 C   0  0  0  0  0  0  0  0  0  0  0  0
   -3.1549    3.2328   -1.2669 F   0  0  0  0  0  0  0  0  0  0  0  0
   -5.2016    1.1120   -1.1914 C   0  0  0  0  0  0  0  0  0  0  0  0
   -5.8426    0.6198    0.0662 C   0  0  1  0  0  0  0  0  0  0  0  0
   -7.1823    1.3086    0.2804 C   0  0  0  0  0  0  0  0  0  0  0  0
   -6.9289    2.6632    0.3662 F   0  0  0  0  0  0  0  0  0  0  0  0
   -8.0325    1.0209   -0.7804 F   0  0  0  0  0  0  0  0  0  0  0  0
   -7.7716    0.9086    1.4591 F   0  0  0  0  0  0  0  0  0  0  0  0
   -6.0497   -0.7891   -0.1421 O   0  0  0  0  0  0  0  0  0  0  0  0
   -5.7466   -3.5490   -0.6835 H   0  0  0  0  0  0  0  0  0  0  0  0
   -4.1000   -3.3818    0.0242 H   0  0  0  0  0  0  0  0  0  0  0  0
   -3.2032    1.7723   -3.0229 H   0  0  0  0  0  0  0  0  0  0  0  0
   -4.0630    0.2148   -3.5026 H   0  0  0  0  0  0  0  0  0  0  0  0
   -2.2791   -0.8287    0.3834 H   0  0  0  0  0  0  0  0  0  0  0  0
   -0.6534   -1.1023    2.2329 H   0  0  0  0  0  0  0  0  0  0  0  0
    2.2584    1.8984    5.1561 H   0  0  0  0  0  0  0  0  0  0  0  0
    5.4087    0.3514    2.1454 H   0  0  0  0  0  0  0  0  0  0  0  0
    8.0476   -1.0919   -2.4810 H   0  0  0  0  0  0  0  0  0  0  0  0
    8.4690   -3.5741   -2.5005 H   0  0  0  0  0  0  0  0  0  0  0  0
    7.3845   -3.8314   -0.9884 H   0  0  0  0  0  0  0  0  0  0  0  0
    8.8418   -2.2825    0.3398 H   0  0  0  0  0  0  0  0  0  0  0  0
    9.9427   -2.0780   -1.1490 H   0  0  0  0  0  0  0  0  0  0  0  0
    3.0950   -1.5672   -0.8426 H   0  0  0  0  0  0  0  0  0  0  0  0
    0.0455    2.4453    1.7942 H   0  0  0  0  0  0  0  0  0  0  0  0
   -1.2290    3.9696    0.3165 H   0  0  0  0  0  0  0  0  0  0  0  0
   -5.2503    2.2055   -1.3325 H   0  0  0  0  0  0  0  0  0  0  0  0
   -5.8253    0.6871   -2.0403 H   0  0  0  0  0  0  0  0  0  0  0  0
   -5.2401    0.7092    0.9768 H   0  0  0  0  0  0  0  0  0  0  0  0
  1  2  1  0
  2  3  2  0
  3  4  1  0
  4  5  1  6
  5  6  1  0
  4  7  1  0
  7  8  2  0
  8  9  1  0
  9 10  1  0
 10 11  1  0
 11 12  2  0
 12 13  1  0
 13 14  2  0
 14 15  1  0
 14 16  1  0
 16 17  2  0
 17 18  1  0
 18 19  1  0
 19 20  3  0
 20 21  1  0
 21 22  1  0
 22 23  1  0
 18 24  2  0
 24 25  1  0
 25 26  2  0
  9 27  2  0
 27 28  1  0
 28 29  2  0
 29 30  1  0
  4 31  1  0
 31 32  1  0
 32 33  1  0
 33 34  1  0
 33 35  1  0
 33 36  1  0
 32 37  1  0
 37  2  1  0
 29  7  1  0
 26 11  1  0
 26 16  1  0
 23 21  1  0
  1 38  1  0
  1 39  1  0
  5 40  1  0
  5 41  1  0
  8 42  1  0
 10 43  1  0
 13 44  1  0
 17 45  1  0
 21 46  1  0
 22 47  1  0
 22 48  1  0
 23 49  1  0
 23 50  1  0
 24 51  1  0
 27 52  1  0
 28 53  1  0
 31 54  1  0
 31 55  1  0
 32 56  1  1
M  END
$$$$
