@<TRIPOS>MOLECULE
*****
 48 51 0 0 0
SMALL
GASTEIGER

@<TRIPOS>ATOM
      1 C          -6.9010   -0.3911   -1.0630 C.3     1  UNL1       -0.0560
      2 C          -6.2874   -0.1183    0.2755 C.3     1  UNL1       -0.0127
      3 C          -6.6080   -1.2703    1.2220 C.3     1  UNL1       -0.0560
      4 C          -6.7954    1.1370    0.9254 C.3     1  UNL1       -0.0560
      5 C          -4.8117   -0.0188    0.1017 C.ar    1  UNL1       -0.0419
      6 C          -4.0336   -1.1531    0.2156 C.ar    1  UNL1       -0.0574
      7 C          -2.6484   -1.0402    0.0491 C.ar    1  UNL1       -0.0493
      8 C          -2.0476    0.1559   -0.2218 C.ar    1  UNL1        0.0371
      9 C          -0.6183    0.2997   -0.3983 C.2     1  UNL1        0.2493
     10 O          -0.1038    1.4513   -0.6523 O.2     1  UNL1       -0.2698
     11 N           0.2551   -0.8157   -0.2978 N.am    1  UNL1       -0.2651
     12 C           1.6708   -0.6277   -0.4806 C.ar    1  UNL1        0.1441
     13 C           2.5332   -0.3341    0.5491 C.ar    1  UNL1        0.0514
     14 N           3.7968   -0.2200    0.0439 N.ar    1  UNL1       -0.3027
     15 C           4.9918    0.0490    0.5917 C.ar    1  UNL1        0.0351
     16 C           6.1735    0.1188   -0.1158 C.ar    1  UNL1        0.0640
     17 N           7.4209    0.4054    0.4934 N.ar    1  UNL1       -0.3044
     18 C           8.4584    1.1064    0.0146 C.ar    1  UNL1        0.0293
     19 C           9.4825    1.1348    0.9553 C.ar    1  UNL1        0.0458
     20 N           9.0265    0.4328    2.0050 N.ar    1  UNL1       -0.2437
     21 C           7.7818   -0.0017    1.7135 C.ar    1  UNL1        0.1004
     22 C           6.1056   -0.1057   -1.4791 C.ar    1  UNL1       -0.0329
     23 C           4.8664   -0.3831   -2.0382 C.ar    1  UNL1       -0.0168
     24 C           3.7172   -0.4398   -1.2789 C.ar    1  UNL1        0.1398
     25 N           2.4126   -0.6881   -1.5883 N.ar    1  UNL1       -0.2129
     26 C          -2.8532    1.2689   -0.3291 C.ar    1  UNL1       -0.0493
     27 C          -4.2313    1.1928   -0.1697 C.ar    1  UNL1       -0.0574
     28 H          -6.2997   -1.1973   -1.5464 H       1  UNL1        0.0238
     29 H          -7.9727   -0.7098   -0.9845 H       1  UNL1        0.0238
     30 H          -6.8190    0.5413   -1.6891 H       1  UNL1        0.0238
     31 H          -7.6328   -1.0870    1.5969 H       1  UNL1        0.0238
     32 H          -6.5860   -2.2416    0.7261 H       1  UNL1        0.0238
     33 H          -5.8497   -1.2509    2.0360 H       1  UNL1        0.0238
     34 H          -7.8707    0.9956    1.2022 H       1  UNL1        0.0238
     35 H          -6.7721    1.9963    0.2262 H       1  UNL1        0.0238
     36 H          -6.1703    1.3091    1.8348 H       1  UNL1        0.0238
     37 H          -4.5112   -2.0978    0.4299 H       1  UNL1        0.0621
     38 H          -2.1014   -1.9499    0.1487 H       1  UNL1        0.0625
     39 H          -0.1431   -1.7544   -0.0930 H       1  UNL1        0.1566
     40 H           2.2746   -0.2086    1.6007 H       1  UNL1        0.0848
     41 H           5.0059    0.2201    1.6677 H       1  UNL1        0.0834
     42 H           8.5042    1.5768   -0.9428 H       1  UNL1        0.0829
     43 H          10.4508    1.6187    0.8713 H       1  UNL1        0.0845
     44 H           7.1732   -0.5897    2.3709 H       1  UNL1        0.1032
     45 H           7.0011   -0.0607   -2.0658 H       1  UNL1        0.0640
     46 H           4.7714   -0.5638   -3.0961 H       1  UNL1        0.0655
     47 H          -2.4122    2.2185   -0.5404 H       1  UNL1        0.0625
     48 H          -4.7936    2.0903   -0.2655 H       1  UNL1        0.0621
@<TRIPOS>BOND
     1     1     2    1
     2     2     3    1
     3     2     4    1
     4     2     5    1
     5     5     6   ar
     6     6     7   ar
     7     7     8   ar
     8     8     9    1
     9     9    10    2
    10     9    11   am
    11    11    12    1
    12    12    13   ar
    13    13    14   ar
    14    14    15   ar
    15    15    16   ar
    16    16    17    1
    17    17    18   ar
    18    18    19   ar
    19    19    20   ar
    20    20    21   ar
    21    16    22   ar
    22    22    23   ar
    23    23    24   ar
    24    24    25   ar
    25     8    26   ar
    26    26    27   ar
    27    27     5   ar
    28    25    12   ar
    29    24    14   ar
    30    21    17   ar
    31     1    28    1
    32     1    29    1
    33     1    30    1
    34     3    31    1
    35     3    32    1
    36     3    33    1
    37     4    34    1
    38     4    35    1
    39     4    36    1
    40     6    37    1
    41     7    38    1
    42    11    39    1
    43    13    40    1
    44    15    41    1
    45    18    42    1
    46    19    43    1
    47    21    44    1
    48    22    45    1
    49    23    46    1
    50    26    47    1
    51    27    48    1
