
     RDKit          3D

 48 51  0  0  0  0  0  0  0  0999 V2000
   -6.9010   -0.3911   -1.0630 C   0  0  0  0  0  0  0  0  0  0  0  0
   -6.2874   -0.1183    0.2755 C   0  0  0  0  0  0  0  0  0  0  0  0
   -6.6080   -1.2703    1.2220 C   0  0  0  0  0  0  0  0  0  0  0  0
   -6.7954    1.1370    0.9254 C   0  0  0  0  0  0  0  0  0  0  0  0
   -4.8117   -0.0188    0.1017 C   0  0  0  0  0  0  0  0  0  0  0  0
   -4.0336   -1.1531    0.2156 C   0  0  0  0  0  0  0  0  0  0  0  0
   -2.6484   -1.0402    0.0491 C   0  0  0  0  0  0  0  0  0  0  0  0
   -2.0476    0.1559   -0.2218 C   0  0  0  0  0  0  0  0  0  0  0  0
   -0.6183    0.2997   -0.3983 C   0  0  0  0  0  0  0  0  0  0  0  0
   -0.1038    1.4513   -0.6523 O   0  0  0  0  0  0  0  0  0  0  0  0
    0.2551   -0.8157   -0.2978 N   0  0  0  0  0  0  0  0  0  0  0  0
    1.6708   -0.6277   -0.4806 C   0  0  0  0  0  0  0  0  0  0  0  0
    2.5332   -0.3341    0.5491 C   0  0  0  0  0  0  0  0  0  0  0  0
    3.7968   -0.2200    0.0439 N   0  0  0  0  0  0  0  0  0  0  0  0
    4.9918    0.0490    0.5917 C   0  0  0  0  0  0  0  0  0  0  0  0
    6.1735    0.1188   -0.1158 C   0  0  0  0  0  0  0  0  0  0  0  0
    7.4209    0.4054    0.4934 N   0  0  0  0  0  0  0  0  0  0  0  0
    8.4584    1.1064    0.0146 C   0  0  0  0  0  0  0  0  0  0  0  0
    9.4825    1.1348    0.9553 C   0  0  0  0  0  0  0  0  0  0  0  0
    9.0265    0.4328    2.0050 N   0  0  0  0  0  0  0  0  0  0  0  0
    7.7818   -0.0017    1.7135 C   0  0  0  0  0  0  0  0  0  0  0  0
    6.1056   -0.1057   -1.4791 C   0  0  0  0  0  0  0  0  0  0  0  0
    4.8664   -0.3831   -2.0382 C   0  0  0  0  0  0  0  0  0  0  0  0
    3.7172   -0.4398   -1.2789 C   0  0  0  0  0  0  0  0  0  0  0  0
    2.4126   -0.6881   -1.5883 N   0  0  0  0  0  0  0  0  0  0  0  0
   -2.8532    1.2689   -0.3291 C   0  0  0  0  0  0  0  0  0  0  0  0
   -4.2313    1.1928   -0.1697 C   0  0  0  0  0  0  0  0  0  0  0  0
   -6.2997   -1.1973   -1.5464 H   0  0  0  0  0  0  0  0  0  0  0  0
   -7.9727   -0.7098   -0.9845 H   0  0  0  0  0  0  0  0  0  0  0  0
   -6.8190    0.5413   -1.6891 H   0  0  0  0  0  0  0  0  0  0  0  0
   -7.6328   -1.0870    1.5969 H   0  0  0  0  0  0  0  0  0  0  0  0
   -6.5860   -2.2416    0.7261 H   0  0  0  0  0  0  0  0  0  0  0  0
   -5.8497   -1.2509    2.0360 H   0  0  0  0  0  0  0  0  0  0  0  0
   -7.8707    0.9956    1.2022 H   0  0  0  0  0  0  0  0  0  0  0  0
   -6.7721    1.9963    0.2262 H   0  0  0  0  0  0  0  0  0  0  0  0
   -6.1703    1.3091    1.8348 H   0  0  0  0  0  0  0  0  0  0  0  0
   -4.5112   -2.0978    0.4299 H   0  0  0  0  0  0  0  0  0  0  0  0
   -2.1014   -1.9499    0.1487 H   0  0  0  0  0  0  0  0  0  0  0  0
   -0.1431   -1.7544   -0.0930 H   0  0  0  0  0  0  0  0  0  0  0  0
    2.2746   -0.2086    1.6007 H   0  0  0  0  0  0  0  0  0  0  0  0
    5.0059    0.2201    1.6677 H   0  0  0  0  0  0  0  0  0  0  0  0
    8.5042    1.5768   -0.9428 H   0  0  0  0  0  0  0  0  0  0  0  0
   10.4508    1.6187    0.8713 H   0  0  0  0  0  0  0  0  0  0  0  0
    7.1732   -0.5897    2.3709 H   0  0  0  0  0  0  0  0  0  0  0  0
    7.0011   -0.0607   -2.0658 H   0  0  0  0  0  0  0  0  0  0  0  0
    4.7714   -0.5638   -3.0961 H   0  0  0  0  0  0  0  0  0  0  0  0
   -2.4122    2.2185   -0.5404 H   0  0  0  0  0  0  0  0  0  0  0  0
   -4.7936    2.0903   -0.2655 H   0  0  0  0  0  0  0  0  0  0  0  0
  1  2  1  0
  2  3  1  0
  2  4  1  0
  2  5  1  0
  5  6  2  0
  6  7  1  0
  7  8  2  0
  8  9  1  0
  9 10  2  0
  9 11  1  0
 11 12  1  0
 12 13  2  0
 13 14  1  0
 14 15  1  0
 15 16  2  0
 16 17  1  0
 17 18  1  0
 18 19  2  0
 19 20  1  0
 20 21  2  0
 16 22  1  0
 22 23  2  0
 23 24  1  0
 24 25  2  0
  8 26  1  0
 26 27  2  0
 27  5  1  0
 25 12  1  0
 24 14  1  0
 21 17  1  0
  1 28  1  0
  1 29  1  0
  1 30  1  0
  3 31  1  0
  3 32  1  0
  3 33  1  0
  4 34  1  0
  4 35  1  0
  4 36  1  0
  6 37  1  0
  7 38  1  0
 11 39  1  0
 13 40  1  0
 15 41  1  0
 18 42  1  0
 19 43  1  0
 21 44  1  0
 22 45  1  0
 23 46  1  0
 26 47  1  0
 27 48  1  0
M  END
$$$$
