@<TRIPOS>MOLECULE
*****
 42 43 0 0 0
SMALL
GASTEIGER

@<TRIPOS>ATOM
      1 C          -0.3813   -2.9849   -0.1079 C.3     1  UNL1       -0.0155
      2 N           0.2453   -2.7356    1.1434 N.3     1  UNL1       -0.3149
      3 C           0.1401   -1.3785    1.5894 C.3     1  UNL1        0.0245
      4 C           0.7892   -0.4828    0.6233 C.ar    1  UNL1        0.0093
      5 C           2.1478   -0.2338    0.8525 C.ar    1  UNL1       -0.0417
      6 C           2.8925    0.5086   -0.0413 C.ar    1  UNL1        0.0372
      7 C           4.3080    0.7740    0.1865 C.2     1  UNL1        0.2438
      8 O           4.9096    0.2547    1.1933 O.2     1  UNL1       -0.2702
      9 N           5.1322    1.5849   -0.6242 N.am    1  UNL1       -0.3144
     10 C           6.5487    1.8019   -0.3254 C.3     1  UNL1        0.0004
     11 C           2.2785    1.0028   -1.1671 C.ar    1  UNL1       -0.0461
     12 C           0.9535    0.7574   -1.3830 C.ar    1  UNL1       -0.0183
     13 C           0.1882    0.0137   -0.4920 C.ar    1  UNL1        0.1330
     14 O          -1.1787   -0.1810   -0.8019 O.3     1  UNL1       -0.4520
     15 C          -2.2002    0.3899   -0.0789 C.ar    1  UNL1        0.1699
     16 C          -2.0363    1.2623    0.9747 C.ar    1  UNL1       -0.0143
     17 C          -3.0775    1.8194    1.6789 C.ar    1  UNL1       -0.0397
     18 C          -4.3517    1.4706    1.2908 C.ar    1  UNL1        0.0447
     19 CL         -5.7142    2.1498    2.1509 Cl      1  UNL1       -0.0834
     20 C          -4.5344    0.6008    0.2411 C.ar    1  UNL1        0.0020
     21 C          -3.5004    0.0405   -0.4665 C.ar    1  UNL1        0.1635
     22 O          -3.7074   -0.8370   -1.5239 O.3     1  UNL1       -0.4914
     23 C          -5.0265   -1.1762   -1.8983 C.3     1  UNL1        0.0790
     24 H          -0.3411   -4.1097   -0.2747 H       1  UNL1        0.0388
     25 H          -1.4449   -2.7533   -0.1240 H       1  UNL1        0.0388
     26 H           0.2000   -2.4828   -0.9155 H       1  UNL1        0.0388
     27 H           1.2394   -3.0712    1.1005 H       1  UNL1        0.1219
     28 H          -0.9057   -1.0836    1.7783 H       1  UNL1        0.0475
     29 H           0.6365   -1.2536    2.6056 H       1  UNL1        0.0475
     30 H           2.6371   -0.6103    1.7195 H       1  UNL1        0.0629
     31 H           4.7352    2.0482   -1.4573 H       1  UNL1        0.1487
     32 H           6.6795    2.5573    0.4890 H       1  UNL1        0.0426
     33 H           7.0527    0.8641   -0.0391 H       1  UNL1        0.0426
     34 H           7.0241    2.2380   -1.2255 H       1  UNL1        0.0426
     35 H           2.8651    1.5956   -1.8909 H       1  UNL1        0.0626
     36 H           0.4426    1.1419   -2.2758 H       1  UNL1        0.0654
     37 H          -1.0074    1.5271    1.2686 H       1  UNL1        0.0656
     38 H          -2.8769    2.4966    2.4947 H       1  UNL1        0.0633
     39 H          -5.5557    0.3310   -0.0599 H       1  UNL1        0.0670
     40 H          -5.5397   -0.3084   -2.3617 H       1  UNL1        0.0660
     41 H          -5.0564   -2.0765   -2.5501 H       1  UNL1        0.0660
     42 H          -5.6095   -1.4718   -0.9852 H       1  UNL1        0.0660
@<TRIPOS>BOND
     1     1     2    1
     2     2     3    1
     3     3     4    1
     4     4     5   ar
     5     5     6   ar
     6     6     7    1
     7     7     8    2
     8     7     9   am
     9     9    10    1
    10     6    11   ar
    11    11    12   ar
    12    12    13   ar
    13    13    14    1
    14    14    15    1
    15    15    16   ar
    16    16    17   ar
    17    17    18   ar
    18    18    19    1
    19    18    20   ar
    20    20    21   ar
    21    21    22    1
    22    22    23    1
    23    13     4   ar
    24    21    15   ar
    25     1    24    1
    26     1    25    1
    27     1    26    1
    28     2    27    1
    29     3    28    1
    30     3    29    1
    31     5    30    1
    32     9    31    1
    33    10    32    1
    34    10    33    1
    35    10    34    1
    36    11    35    1
    37    12    36    1
    38    16    37    1
    39    17    38    1
    40    20    39    1
    41    23    40    1
    42    23    41    1
    43    23    42    1
