
     RDKit          3D

 42 43  0  0  0  0  0  0  0  0999 V2000
   -0.3813   -2.9849   -0.1079 C   0  0  0  0  0  0  0  0  0  0  0  0
    0.2453   -2.7356    1.1434 N   0  0  0  0  0  0  0  0  0  0  0  0
    0.1401   -1.3785    1.5894 C   0  0  0  0  0  0  0  0  0  0  0  0
    0.7892   -0.4828    0.6233 C   0  0  0  0  0  0  0  0  0  0  0  0
    2.1478   -0.2338    0.8525 C   0  0  0  0  0  0  0  0  0  0  0  0
    2.8925    0.5086   -0.0413 C   0  0  0  0  0  0  0  0  0  0  0  0
    4.3080    0.7740    0.1865 C   0  0  0  0  0  0  0  0  0  0  0  0
    4.9096    0.2547    1.1933 O   0  0  0  0  0  0  0  0  0  0  0  0
    5.1322    1.5849   -0.6242 N   0  0  0  0  0  0  0  0  0  0  0  0
    6.5487    1.8019   -0.3254 C   0  0  0  0  0  0  0  0  0  0  0  0
    2.2785    1.0028   -1.1671 C   0  0  0  0  0  0  0  0  0  0  0  0
    0.9535    0.7574   -1.3830 C   0  0  0  0  0  0  0  0  0  0  0  0
    0.1882    0.0137   -0.4920 C   0  0  0  0  0  0  0  0  0  0  0  0
   -1.1787   -0.1810   -0.8019 O   0  0  0  0  0  0  0  0  0  0  0  0
   -2.2002    0.3899   -0.0789 C   0  0  0  0  0  0  0  0  0  0  0  0
   -2.0363    1.2623    0.9747 C   0  0  0  0  0  0  0  0  0  0  0  0
   -3.0775    1.8194    1.6789 C   0  0  0  0  0  0  0  0  0  0  0  0
   -4.3517    1.4706    1.2908 C   0  0  0  0  0  0  0  0  0  0  0  0
   -5.7142    2.1498    2.1509 Cl  0  0  0  0  0  0  0  0  0  0  0  0
   -4.5344    0.6008    0.2411 C   0  0  0  0  0  0  0  0  0  0  0  0
   -3.5004    0.0405   -0.4665 C   0  0  0  0  0  0  0  0  0  0  0  0
   -3.7074   -0.8370   -1.5239 O   0  0  0  0  0  0  0  0  0  0  0  0
   -5.0265   -1.1762   -1.8983 C   0  0  0  0  0  0  0  0  0  0  0  0
   -0.3411   -4.1097   -0.2747 H   0  0  0  0  0  0  0  0  0  0  0  0
   -1.4449   -2.7533   -0.1240 H   0  0  0  0  0  0  0  0  0  0  0  0
    0.2000   -2.4828   -0.9155 H   0  0  0  0  0  0  0  0  0  0  0  0
    1.2394   -3.0712    1.1005 H   0  0  0  0  0  0  0  0  0  0  0  0
   -0.9057   -1.0836    1.7783 H   0  0  0  0  0  0  0  0  0  0  0  0
    0.6365   -1.2536    2.6056 H   0  0  0  0  0  0  0  0  0  0  0  0
    2.6371   -0.6103    1.7195 H   0  0  0  0  0  0  0  0  0  0  0  0
    4.7352    2.0482   -1.4573 H   0  0  0  0  0  0  0  0  0  0  0  0
    6.6795    2.5573    0.4890 H   0  0  0  0  0  0  0  0  0  0  0  0
    7.0527    0.8641   -0.0391 H   0  0  0  0  0  0  0  0  0  0  0  0
    7.0241    2.2380   -1.2255 H   0  0  0  0  0  0  0  0  0  0  0  0
    2.8651    1.5956   -1.8909 H   0  0  0  0  0  0  0  0  0  0  0  0
    0.4426    1.1419   -2.2758 H   0  0  0  0  0  0  0  0  0  0  0  0
   -1.0074    1.5271    1.2686 H   0  0  0  0  0  0  0  0  0  0  0  0
   -2.8769    2.4966    2.4947 H   0  0  0  0  0  0  0  0  0  0  0  0
   -5.5557    0.3310   -0.0599 H   0  0  0  0  0  0  0  0  0  0  0  0
   -5.5397   -0.3084   -2.3617 H   0  0  0  0  0  0  0  0  0  0  0  0
   -5.0564   -2.0765   -2.5501 H   0  0  0  0  0  0  0  0  0  0  0  0
   -5.6095   -1.4718   -0.9852 H   0  0  0  0  0  0  0  0  0  0  0  0
  1  2  1  0
  2  3  1  0
  3  4  1  0
  4  5  2  0
  5  6  1  0
  6  7  1  0
  7  8  2  0
  7  9  1  0
  9 10  1  0
  6 11  2  0
 11 12  1  0
 12 13  2  0
 13 14  1  0
 14 15  1  0
 15 16  2  0
 16 17  1  0
 17 18  2  0
 18 19  1  0
 18 20  1  0
 20 21  2  0
 21 22  1  0
 22 23  1  0
 13  4  1  0
 21 15  1  0
  1 24  1  0
  1 25  1  0
  1 26  1  0
  2 27  1  0
  3 28  1  0
  3 29  1  0
  5 30  1  0
  9 31  1  0
 10 32  1  0
 10 33  1  0
 10 34  1  0
 11 35  1  0
 12 36  1  0
 16 37  1  0
 17 38  1  0
 20 39  1  0
 23 40  1  0
 23 41  1  0
 23 42  1  0
M  END
$$$$
