@<TRIPOS>MOLECULE
*****
 28 30 0 0 0
SMALL
GASTEIGER

@<TRIPOS>ATOM
      1 O          -1.8314    2.9683   -0.8815 O.2     1  UNL1       -0.2870
      2 C          -1.3236    1.8800   -0.5374 C.ar    1  UNL1        0.1931
      3 C           0.0600    1.6951   -0.4702 C.ar    1  UNL1        0.0287
      4 C           0.6019    0.4813   -0.0867 C.ar    1  UNL1        0.1392
      5 C           2.0442    0.2496   -0.0044 C.ar    1  UNL1        0.0174
      6 C           2.9789    1.2101   -0.2987 C.ar    1  UNL1       -0.0511
      7 C           4.3316    0.8694   -0.1830 C.ar    1  UNL1       -0.0611
      8 C           4.7425   -0.3828    0.2117 C.ar    1  UNL1       -0.0617
      9 C           3.7836   -1.3447    0.5062 C.ar    1  UNL1       -0.0611
     10 C           2.4733   -0.9993    0.3893 C.ar    1  UNL1       -0.0511
     11 O          -0.2620   -0.4625    0.2029 O.2     1  UNL1       -0.4545
     12 C          -1.5503   -0.3468    0.1580 C.ar    1  UNL1        0.1427
     13 C          -2.3953   -1.4094    0.4849 C.ar    1  UNL1        0.0229
     14 C          -3.7632   -1.3251    0.4493 C.ar    1  UNL1        0.1204
     15 O          -4.5506   -2.4410    0.7932 O.3     1  UNL1       -0.5066
     16 C          -4.3504   -0.1362    0.0732 C.ar    1  UNL1       -0.0193
     17 C          -3.5380    0.9333   -0.2561 C.ar    1  UNL1       -0.0439
     18 C          -2.1581    0.8339   -0.2156 C.ar    1  UNL1        0.0642
     19 H           0.6953    2.5204   -0.7242 H       1  UNL1        0.0693
     20 H           2.6858    2.1888   -0.6070 H       1  UNL1        0.0625
     21 H           5.1051    1.6058   -0.4083 H       1  UNL1        0.0618
     22 H           5.7917   -0.6537    0.3035 H       1  UNL1        0.0618
     23 H           4.0659   -2.3442    0.8209 H       1  UNL1        0.0618
     24 H           1.7337   -1.7800    0.6287 H       1  UNL1        0.0625
     25 H          -1.9094   -2.3447    0.7809 H       1  UNL1        0.0691
     26 H          -4.0988   -3.3357    0.8893 H       1  UNL1        0.2921
     27 H          -5.4234   -0.0293    0.0325 H       1  UNL1        0.0654
     28 H          -3.9390    1.8996   -0.5612 H       1  UNL1        0.0627
@<TRIPOS>BOND
     1     1     2    2
     2     2     3   ar
     3     3     4   ar
     4     4     5    1
     5     5     6   ar
     6     6     7   ar
     7     7     8   ar
     8     8     9   ar
     9     9    10   ar
    10     4    11   ar
    11    11    12   ar
    12    12    13   ar
    13    13    14   ar
    14    14    15    1
    15    14    16   ar
    16    16    17   ar
    17    17    18   ar
    18    18     2   ar
    19    10     5   ar
    20    18    12   ar
    21     3    19    1
    22     6    20    1
    23     7    21    1
    24     8    22    1
    25     9    23    1
    26    10    24    1
    27    13    25    1
    28    15    26    1
    29    16    27    1
    30    17    28    1
