@<TRIPOS>MOLECULE
*****
 63 67 0 0 0
SMALL
GASTEIGER

@<TRIPOS>ATOM
      1 C           5.2213   -1.1060   -3.3140 C.3     1  UNL1       -0.0360
      2 C           4.4400   -1.3681   -2.0773 C.ar    1  UNL1       -0.0012
      3 C           3.4186   -0.5386   -1.6468 C.ar    1  UNL1       -0.0131
      4 C           2.6878   -0.7731   -0.5007 C.ar    1  UNL1        0.1499
      5 N           1.6386    0.0843   -0.0598 N.am    1  UNL1       -0.2374
      6 C           0.2911   -0.0958   -0.4780 C.2     1  UNL1        0.2564
      7 O          -0.1623   -0.9822   -1.2668 O.2     1  UNL1       -0.2694
      8 C          -0.5531    0.9149    0.1418 C.ar    1  UNL1        0.0813
      9 C          -1.8436    1.3625    0.2314 C.ar    1  UNL1        0.0637
     10 N          -3.0317    0.8879   -0.3834 N.am    1  UNL1       -0.2836
     11 C          -3.8360   -0.1006    0.2460 C.2     1  UNL1        0.2185
     12 O          -3.5211   -0.5842    1.3640 O.2     1  UNL1       -0.2754
     13 C          -5.0840   -0.6164   -0.3729 C.3     1  UNL1        0.0370
     14 C          -5.7644   -1.6444    0.4601 C.3     1  UNL1        0.0066
     15 N          -6.9558   -2.1032   -0.1835 N.3     1  UNL1       -0.3079
     16 C          -7.6426   -3.1088    0.6070 C.3     1  UNL1       -0.0130
     17 C          -7.8404   -1.0519   -0.5937 C.3     1  UNL1       -0.0130
     18 C          -1.7746    2.4542    1.1042 C.ar    1  UNL1        0.0266
     19 N          -0.4898    2.6182    1.4943 N.ar    1  UNL1       -0.3492
     20 C          -0.0480    3.6743    2.4148 C.3     1  UNL1        0.0117
     21 C           0.2816    1.6818    0.9145 C.ar    1  UNL1        0.0581
     22 C           1.6867    1.2046    0.8212 C.3     1  UNL1        0.0986
     23 C           2.5988    2.2845    0.4272 C.ar    1  UNL1       -0.0207
     24 C           3.4394    2.8428    1.3627 C.ar    1  UNL1       -0.0550
     25 C           4.3198    3.8774    1.0219 C.ar    1  UNL1       -0.0431
     26 C           4.3475    4.3451   -0.2665 C.ar    1  UNL1        0.0410
     27 CL          5.4381    5.6467   -0.7472 Cl      1  UNL1       -0.0835
     28 C           3.5179    3.8013   -1.2105 C.ar    1  UNL1       -0.0431
     29 C           2.6482    2.7719   -0.8521 C.ar    1  UNL1       -0.0550
     30 N           3.0225   -1.8887    0.2121 N.ar    1  UNL1       -0.1476
     31 N           3.9923   -2.7018   -0.1708 N.ar    1  UNL1       -0.1896
     32 C           4.5053   -3.8525    0.3559 C.ar    1  UNL1        0.2205
     33 C           3.9971   -4.4637    1.6061 C.3     1  UNL1        0.2993
     34 F           4.1419   -3.5934    2.6534 F       1  UNL1       -0.2005
     35 F           2.6596   -4.8228    1.4444 F       1  UNL1       -0.2005
     36 N           5.5015   -4.3079   -0.4221 N.ar    1  UNL1       -0.1263
     37 N           5.6095   -3.4509   -1.4236 N.ar    1  UNL1       -0.1275
     38 C           4.7036   -2.4696   -1.2904 C.ar    1  UNL1        0.1811
     39 H           4.5299   -0.5439   -4.0061 H       1  UNL1        0.0279
     40 H           5.5546   -2.0393   -3.8037 H       1  UNL1        0.0279
     41 H           6.0548   -0.4272   -3.0499 H       1  UNL1        0.0279
     42 H           3.2132    0.3186   -2.2623 H       1  UNL1        0.0656
     43 H          -3.3528    1.2390   -1.3009 H       1  UNL1        0.1549
     44 H          -4.8160   -1.0030   -1.3686 H       1  UNL1        0.0371
     45 H          -5.7708    0.2583   -0.4625 H       1  UNL1        0.0371
     46 H          -5.1318   -2.5232    0.6848 H       1  UNL1        0.0431
     47 H          -6.0541   -1.2126    1.4405 H       1  UNL1        0.0431
     48 H          -6.8610   -3.8004    0.9975 H       1  UNL1        0.0391
     49 H          -8.2241   -2.6779    1.4386 H       1  UNL1        0.0391
     50 H          -8.3099   -3.7153   -0.0226 H       1  UNL1        0.0391
     51 H          -7.4307   -0.5534   -1.4749 H       1  UNL1        0.0391
     52 H          -8.8078   -1.5374   -0.9054 H       1  UNL1        0.0391
     53 H          -8.1105   -0.3583    0.2263 H       1  UNL1        0.0391
     54 H          -2.6064    3.0811    1.4281 H       1  UNL1        0.0828
     55 H          -0.8860    3.8930    3.1269 H       1  UNL1        0.0456
     56 H           0.1158    4.6265    1.8610 H       1  UNL1        0.0456
     57 H           0.8153    3.3554    3.0119 H       1  UNL1        0.0456
     58 H           1.9712    0.8235    1.8330 H       1  UNL1        0.0620
     59 H           3.4722    2.5253    2.3952 H       1  UNL1        0.0621
     60 H           4.9842    4.3264    1.7383 H       1  UNL1        0.0632
     61 H           3.5377    4.1626   -2.2103 H       1  UNL1        0.0632
     62 H           1.9958    2.3426   -1.5895 H       1  UNL1        0.0621
     63 H           4.5558   -5.3885    1.8471 H       1  UNL1        0.1105
@<TRIPOS>BOND
     1     1     2    1
     2     2     3   ar
     3     3     4   ar
     4     4     5    1
     5     5     6   am
     6     6     7    2
     7     6     8    1
     8     8     9   ar
     9     9    10    1
    10    10    11   am
    11    11    12    2
    12    11    13    1
    13    13    14    1
    14    14    15    1
    15    15    16    1
    16    15    17    1
    17     9    18   ar
    18    18    19   ar
    19    19    20    1
    20    19    21   ar
    21    21    22    1
    22    22    23    1
    23    23    24   ar
    24    24    25   ar
    25    25    26   ar
    26    26    27    1
    27    26    28   ar
    28    28    29   ar
    29     4    30   ar
    30    30    31   ar
    31    31    32   ar
    32    32    33    1
    33    33    34    1
    34    33    35    1
    35    32    36   ar
    36    36    37   ar
    37    37    38   ar
    38    38     2   ar
    39    22     5    1
    40    29    23   ar
    41    38    31   ar
    42    21     8   ar
    43     1    39    1
    44     1    40    1
    45     1    41    1
    46     3    42    1
    47    10    43    1
    48    13    44    1
    49    13    45    1
    50    14    46    1
    51    14    47    1
    52    16    48    1
    53    16    49    1
    54    16    50    1
    55    17    51    1
    56    17    52    1
    57    17    53    1
    58    18    54    1
    59    20    55    1
    60    20    56    1
    61    20    57    1
    62    22    58    1
    63    24    59    1
    64    25    60    1
    65    28    61    1
    66    29    62    1
    67    33    63    1
