@<TRIPOS>MOLECULE
*****
 60 63 0 0 0
SMALL
GASTEIGER

@<TRIPOS>ATOM
      1 C           0.2451   -2.9669    0.1965 C.3     1  UNL1       -0.0421
      2 C           0.5497   -1.8476    1.1575 C.3     1  UNL1        0.0515
      3 C           1.8786   -1.3025    0.8534 C.ar    1  UNL1       -0.0271
      4 C           2.2042   -0.0724    1.4280 C.ar    1  UNL1       -0.0562
      5 C           3.4284    0.4558    1.1635 C.ar    1  UNL1       -0.0536
      6 C           4.3200   -0.2095    0.3491 C.ar    1  UNL1       -0.0151
      7 C           5.6368    0.4023    0.0904 C.ar    1  UNL1        0.0175
      8 C           6.3411    0.9397    1.1453 C.ar    1  UNL1       -0.0486
      9 C           7.5809    1.5229    0.9428 C.ar    1  UNL1       -0.0257
     10 C           8.1100    1.5629   -0.3308 C.ar    1  UNL1        0.1262
     11 F           9.3280    2.1306   -0.5601 F       1  UNL1       -0.2054
     12 C           7.3923    1.0209   -1.3748 C.ar    1  UNL1        0.0094
     13 C           6.1416    0.4288   -1.1909 C.ar    1  UNL1        0.1338
     14 F           5.4512   -0.0987   -2.2301 F       1  UNL1       -0.2048
     15 C           3.9912   -1.4105   -0.2069 C.ar    1  UNL1       -0.0536
     16 C           2.7462   -1.9713    0.0482 C.ar    1  UNL1       -0.0562
     17 N          -0.4688   -0.7939    1.0399 N.am    1  UNL1       -0.2605
     18 C          -0.5975   -0.1809   -0.2548 C.3     1  UNL1        0.0224
     19 C          -1.6453    0.8861   -0.3053 C.3     1  UNL1        0.0075
     20 C          -2.8283    0.5370    0.5477 C.3     1  UNL1        0.1415
     21 C          -3.3423   -0.8221    0.0933 C.3     1  UNL1       -0.0064
     22 C          -3.7653   -0.8125   -1.3554 C.3     1  UNL1       -0.0258
     23 C          -4.2540   -2.2371   -1.6522 C.3     1  UNL1        0.0443
     24 O          -3.1621   -3.0778   -1.4099 O.3     1  UNL1       -0.3950
     25 C          -3.8691    1.5638    0.5085 C.ar    1  UNL1       -0.0041
     26 C          -3.7206    2.7024   -0.2469 C.ar    1  UNL1       -0.0548
     27 C          -4.7143    3.6553   -0.2681 C.ar    1  UNL1       -0.0614
     28 C          -5.8741    3.4979    0.4591 C.ar    1  UNL1       -0.0617
     29 C          -5.9892    2.3441    1.2052 C.ar    1  UNL1       -0.0614
     30 C          -5.0124    1.3742    1.2457 C.ar    1  UNL1       -0.0548
     31 O          -2.3768    0.4259    1.8849 O.3     1  UNL1       -0.4388
     32 C          -1.2796   -0.3914    2.1101 C.2     1  UNL1        0.4042
     33 O          -0.9906   -0.7858    3.2694 O.2     1  UNL1       -0.2262
     34 H           0.5076   -2.6974   -0.8622 H       1  UNL1        0.0251
     35 H           0.8654   -3.8451    0.4572 H       1  UNL1        0.0251
     36 H          -0.8116   -3.2974    0.2732 H       1  UNL1        0.0251
     37 H           0.5765   -2.2578    2.1809 H       1  UNL1        0.0549
     38 H           1.4853    0.4353    2.0677 H       1  UNL1        0.0621
     39 H           3.6857    1.4223    1.6143 H       1  UNL1        0.0624
     40 H           5.8852    0.8847    2.1264 H       1  UNL1        0.0625
     41 H           8.0885    1.9262    1.7939 H       1  UNL1        0.0646
     42 H           7.7892    1.0407   -2.3877 H       1  UNL1        0.0675
     43 H           4.6800   -1.9494   -0.8508 H       1  UNL1        0.0624
     44 H           2.4773   -2.9343   -0.3950 H       1  UNL1        0.0621
     45 H          -0.7380   -0.9502   -1.0413 H       1  UNL1        0.0467
     46 H           0.4108    0.2754   -0.4825 H       1  UNL1        0.0467
     47 H          -1.9842    1.0130   -1.3525 H       1  UNL1        0.0322
     48 H          -1.1578    1.8353    0.0017 H       1  UNL1        0.0322
     49 H          -4.1564   -1.1233    0.7659 H       1  UNL1        0.0308
     50 H          -2.5511   -1.5933    0.1885 H       1  UNL1        0.0308
     51 H          -4.5128   -0.0580   -1.5983 H       1  UNL1        0.0289
     52 H          -2.9012   -0.6689   -2.0348 H       1  UNL1        0.0289
     53 H          -5.0147   -2.4627   -0.8790 H       1  UNL1        0.0557
     54 H          -4.6220   -2.3412   -2.6760 H       1  UNL1        0.0557
     55 H          -3.2518   -3.5652   -0.5627 H       1  UNL1        0.2094
     56 H          -2.8151    2.8814   -0.8479 H       1  UNL1        0.0622
     57 H          -4.5998    4.5629   -0.8682 H       1  UNL1        0.0618
     58 H          -6.6707    4.2559    0.4456 H       1  UNL1        0.0618
     59 H          -6.9240    2.2336    1.7816 H       1  UNL1        0.0618
     60 H          -5.1953    0.5075    1.8589 H       1  UNL1        0.0622
@<TRIPOS>BOND
     1     1     2    1
     2     2     3    1
     3     3     4   ar
     4     4     5   ar
     5     5     6   ar
     6     6     7    1
     7     7     8   ar
     8     8     9   ar
     9     9    10   ar
    10    10    11    1
    11    10    12   ar
    12    12    13   ar
    13    13    14    1
    14     6    15   ar
    15    15    16   ar
    16     2    17    1
    17    17    18    1
    18    18    19    1
    19    19    20    1
    20    20    21    1
    21    21    22    1
    22    22    23    1
    23    23    24    1
    24    20    25    1
    25    25    26   ar
    26    26    27   ar
    27    27    28   ar
    28    28    29   ar
    29    29    30   ar
    30    20    31    1
    31    31    32    1
    32    32    33    2
    33    16     3   ar
    34    32    17   am
    35    13     7   ar
    36    30    25   ar
    37     1    34    1
    38     1    35    1
    39     1    36    1
    40     2    37    1
    41     4    38    1
    42     5    39    1
    43     8    40    1
    44     9    41    1
    45    12    42    1
    46    15    43    1
    47    16    44    1
    48    18    45    1
    49    18    46    1
    50    19    47    1
    51    19    48    1
    52    21    49    1
    53    21    50    1
    54    22    51    1
    55    22    52    1
    56    23    53    1
    57    23    54    1
    58    24    55    1
    59    26    56    1
    60    27    57    1
    61    28    58    1
    62    29    59    1
    63    30    60    1
