
     RDKit          3D

 60 63  0  0  0  0  0  0  0  0999 V2000
    0.2451   -2.9669    0.1965 C   0  0  0  0  0  0  0  0  0  0  0  0
    0.5497   -1.8476    1.1575 C   0  0  1  0  0  0  0  0  0  0  0  0
    1.8786   -1.3025    0.8534 C   0  0  0  0  0  0  0  0  0  0  0  0
    2.2042   -0.0724    1.4280 C   0  0  0  0  0  0  0  0  0  0  0  0
    3.4284    0.4558    1.1635 C   0  0  0  0  0  0  0  0  0  0  0  0
    4.3200   -0.2095    0.3491 C   0  0  0  0  0  0  0  0  0  0  0  0
    5.6368    0.4023    0.0904 C   0  0  0  0  0  0  0  0  0  0  0  0
    6.3411    0.9397    1.1453 C   0  0  0  0  0  0  0  0  0  0  0  0
    7.5809    1.5229    0.9428 C   0  0  0  0  0  0  0  0  0  0  0  0
    8.1100    1.5629   -0.3308 C   0  0  0  0  0  0  0  0  0  0  0  0
    9.3280    2.1306   -0.5601 F   0  0  0  0  0  0  0  0  0  0  0  0
    7.3923    1.0209   -1.3748 C   0  0  0  0  0  0  0  0  0  0  0  0
    6.1416    0.4288   -1.1909 C   0  0  0  0  0  0  0  0  0  0  0  0
    5.4512   -0.0987   -2.2301 F   0  0  0  0  0  0  0  0  0  0  0  0
    3.9912   -1.4105   -0.2069 C   0  0  0  0  0  0  0  0  0  0  0  0
    2.7462   -1.9713    0.0482 C   0  0  0  0  0  0  0  0  0  0  0  0
   -0.4688   -0.7939    1.0399 N   0  0  0  0  0  0  0  0  0  0  0  0
   -0.5975   -0.1809   -0.2548 C   0  0  0  0  0  0  0  0  0  0  0  0
   -1.6453    0.8861   -0.3053 C   0  0  0  0  0  0  0  0  0  0  0  0
   -2.8283    0.5370    0.5477 C   0  0  2  0  0  0  0  0  0  0  0  0
   -3.3423   -0.8221    0.0933 C   0  0  0  0  0  0  0  0  0  0  0  0
   -3.7653   -0.8125   -1.3554 C   0  0  0  0  0  0  0  0  0  0  0  0
   -4.2540   -2.2371   -1.6522 C   0  0  0  0  0  0  0  0  0  0  0  0
   -3.1621   -3.0778   -1.4099 O   0  0  0  0  0  0  0  0  0  0  0  0
   -3.8691    1.5638    0.5085 C   0  0  0  0  0  0  0  0  0  0  0  0
   -3.7206    2.7024   -0.2469 C   0  0  0  0  0  0  0  0  0  0  0  0
   -4.7143    3.6553   -0.2681 C   0  0  0  0  0  0  0  0  0  0  0  0
   -5.8741    3.4979    0.4591 C   0  0  0  0  0  0  0  0  0  0  0  0
   -5.9892    2.3441    1.2052 C   0  0  0  0  0  0  0  0  0  0  0  0
   -5.0124    1.3742    1.2457 C   0  0  0  0  0  0  0  0  0  0  0  0
   -2.3768    0.4259    1.8849 O   0  0  0  0  0  0  0  0  0  0  0  0
   -1.2796   -0.3914    2.1101 C   0  0  0  0  0  0  0  0  0  0  0  0
   -0.9906   -0.7858    3.2694 O   0  0  0  0  0  0  0  0  0  0  0  0
    0.5076   -2.6974   -0.8622 H   0  0  0  0  0  0  0  0  0  0  0  0
    0.8654   -3.8451    0.4572 H   0  0  0  0  0  0  0  0  0  0  0  0
   -0.8116   -3.2974    0.2732 H   0  0  0  0  0  0  0  0  0  0  0  0
    0.5765   -2.2578    2.1809 H   0  0  0  0  0  0  0  0  0  0  0  0
    1.4853    0.4353    2.0677 H   0  0  0  0  0  0  0  0  0  0  0  0
    3.6857    1.4223    1.6143 H   0  0  0  0  0  0  0  0  0  0  0  0
    5.8852    0.8847    2.1264 H   0  0  0  0  0  0  0  0  0  0  0  0
    8.0885    1.9262    1.7939 H   0  0  0  0  0  0  0  0  0  0  0  0
    7.7892    1.0407   -2.3877 H   0  0  0  0  0  0  0  0  0  0  0  0
    4.6800   -1.9494   -0.8508 H   0  0  0  0  0  0  0  0  0  0  0  0
    2.4773   -2.9343   -0.3950 H   0  0  0  0  0  0  0  0  0  0  0  0
   -0.7380   -0.9502   -1.0413 H   0  0  0  0  0  0  0  0  0  0  0  0
    0.4108    0.2754   -0.4825 H   0  0  0  0  0  0  0  0  0  0  0  0
   -1.9842    1.0130   -1.3525 H   0  0  0  0  0  0  0  0  0  0  0  0
   -1.1578    1.8353    0.0017 H   0  0  0  0  0  0  0  0  0  0  0  0
   -4.1564   -1.1233    0.7659 H   0  0  0  0  0  0  0  0  0  0  0  0
   -2.5511   -1.5933    0.1885 H   0  0  0  0  0  0  0  0  0  0  0  0
   -4.5128   -0.0580   -1.5983 H   0  0  0  0  0  0  0  0  0  0  0  0
   -2.9012   -0.6689   -2.0348 H   0  0  0  0  0  0  0  0  0  0  0  0
   -5.0147   -2.4627   -0.8790 H   0  0  0  0  0  0  0  0  0  0  0  0
   -4.6220   -2.3412   -2.6760 H   0  0  0  0  0  0  0  0  0  0  0  0
   -3.2518   -3.5652   -0.5627 H   0  0  0  0  0  0  0  0  0  0  0  0
   -2.8151    2.8814   -0.8479 H   0  0  0  0  0  0  0  0  0  0  0  0
   -4.5998    4.5629   -0.8682 H   0  0  0  0  0  0  0  0  0  0  0  0
   -6.6707    4.2559    0.4456 H   0  0  0  0  0  0  0  0  0  0  0  0
   -6.9240    2.2336    1.7816 H   0  0  0  0  0  0  0  0  0  0  0  0
   -5.1953    0.5075    1.8589 H   0  0  0  0  0  0  0  0  0  0  0  0
  1  2  1  0
  2  3  1  0
  3  4  2  0
  4  5  1  0
  5  6  2  0
  6  7  1  0
  7  8  2  0
  8  9  1  0
  9 10  2  0
 10 11  1  0
 10 12  1  0
 12 13  2  0
 13 14  1  0
  6 15  1  0
 15 16  2  0
  2 17  1  0
 17 18  1  0
 18 19  1  0
 19 20  1  0
 20 21  1  6
 21 22  1  0
 22 23  1  0
 23 24  1  0
 20 25  1  0
 25 26  2  0
 26 27  1  0
 27 28  2  0
 28 29  1  0
 29 30  2  0
 20 31  1  0
 31 32  1  0
 32 33  2  0
 16  3  1  0
 32 17  1  0
 13  7  1  0
 30 25  1  0
  1 34  1  0
  1 35  1  0
  1 36  1  0
  2 37  1  1
  4 38  1  0
  5 39  1  0
  8 40  1  0
  9 41  1  0
 12 42  1  0
 15 43  1  0
 16 44  1  0
 18 45  1  0
 18 46  1  0
 19 47  1  0
 19 48  1  0
 21 49  1  0
 21 50  1  0
 22 51  1  0
 22 52  1  0
 23 53  1  0
 23 54  1  0
 24 55  1  0
 26 56  1  0
 27 57  1  0
 28 58  1  0
 29 59  1  0
 30 60  1  0
M  END
$$$$
