@<TRIPOS>MOLECULE
*****
 73 78 0 0 0
SMALL
GASTEIGER

@<TRIPOS>ATOM
      1 C          -3.5252    7.9719    0.6658 C.3     1  UNL1        0.0804
      2 O          -2.9033    6.7800    1.0770 O.3     1  UNL1       -0.4795
      3 C          -2.4753    5.8662    0.1376 C.ar    1  UNL1        0.2191
      4 C          -1.8554    4.6775    0.5375 C.ar    1  UNL1        0.0404
      5 C          -1.4363    3.7799   -0.4240 C.ar    1  UNL1        0.1364
      6 N          -0.8012    2.5581   -0.0803 N.am    1  UNL1       -0.2240
      7 C           0.5921    2.2845    0.1037 C.2     1  UNL1        0.3219
      8 O           1.4139    3.1697    0.4502 O.2     1  UNL1       -0.2512
      9 N           0.8360    0.9073   -0.1662 N.am    1  UNL1       -0.1920
     10 C           2.0740    0.1798   -0.1161 C.ar    1  UNL1        0.0455
     11 C           2.1088   -1.1722   -0.3767 C.ar    1  UNL1       -0.0392
     12 C           3.3357   -1.8379   -0.3221 C.ar    1  UNL1       -0.0523
     13 C           4.5069   -1.1899   -0.0175 C.ar    1  UNL1       -0.0177
     14 C           5.7906   -1.9046    0.0352 C.ar    1  UNL1       -0.0165
     15 C           6.0547   -2.9841   -0.7710 C.ar    1  UNL1       -0.0532
     16 C           7.2649   -3.6501   -0.7177 C.ar    1  UNL1       -0.0458
     17 C           8.2565   -3.2547    0.1499 C.ar    1  UNL1        0.0771
     18 C           9.5480   -3.9317    0.2349 C.2     1  UNL1        0.3382
     19 O          10.4041   -3.5279    1.0364 O.2     1  UNL1       -0.2451
     20 O           9.8436   -5.0184   -0.5598 O.3     1  UNL1       -0.4771
     21 C           7.9849   -2.1711    0.9559 C.ar    1  UNL1        0.0555
     22 CL          9.2195   -1.6365    2.0726 Cl      1  UNL1       -0.0827
     23 C           6.7816   -1.4988    0.9117 C.ar    1  UNL1       -0.0349
     24 C           4.4370    0.1498    0.2355 C.ar    1  UNL1       -0.0523
     25 C           3.2224    0.8504    0.1896 C.ar    1  UNL1       -0.0392
     26 C          -0.4577    0.3835   -0.5154 C.2     1  UNL1        0.2516
     27 O          -0.6924   -0.5956   -1.2507 O.2     1  UNL1       -0.2724
     28 C          -1.4265    1.2472    0.1768 C.3     1  UNL1        0.1240
     29 C          -1.4214    0.9468    1.6358 C.3     1  UNL1       -0.0095
     30 C          -2.1896   -0.2795    1.9904 C.3     1  UNL1        0.0017
     31 N          -2.9929   -0.8088    0.9696 N.3     1  UNL1       -0.2965
     32 C          -2.9163   -2.1931    0.7175 C.3     1  UNL1        0.0415
     33 C          -3.7784   -2.6769   -0.3656 C.ar    1  UNL1        0.0581
     34 N          -3.2976   -2.9928   -1.5708 N.ar    1  UNL1       -0.2583
     35 C          -4.0921   -3.4411   -2.5745 C.ar    1  UNL1        0.0279
     36 C          -5.4465   -3.5877   -2.3790 C.ar    1  UNL1       -0.0433
     37 C          -5.9837   -3.2717   -1.1464 C.ar    1  UNL1       -0.0557
     38 C          -5.1251   -2.8131   -0.1414 C.ar    1  UNL1       -0.0279
     39 C          -5.7030   -2.4802    1.1633 C.3     1  UNL1       -0.0380
     40 C          -3.5773    0.0213    0.0032 C.3     1  UNL1        0.0017
     41 C          -2.8095    1.2342   -0.3762 C.3     1  UNL1       -0.0095
     42 N          -1.6642    4.1294   -1.7141 N.ar    1  UNL1       -0.2200
     43 C          -2.2516    5.2551   -2.0972 C.ar    1  UNL1        0.1219
     44 N          -2.6602    6.1300   -1.1664 N.ar    1  UNL1       -0.2013
     45 H          -2.7247    8.6104    0.2134 H       1  UNL1        0.0660
     46 H          -4.3445    7.7980   -0.0739 H       1  UNL1        0.0660
     47 H          -3.9701    8.4722    1.5740 H       1  UNL1        0.0660
     48 H          -1.7154    4.4824    1.5849 H       1  UNL1        0.0705
     49 H           1.2020   -1.6936   -0.6137 H       1  UNL1        0.0636
     50 H           3.3514   -2.8974   -0.5281 H       1  UNL1        0.0624
     51 H           5.2699   -3.3009   -1.4609 H       1  UNL1        0.0624
     52 H           7.4357   -4.4947   -1.3673 H       1  UNL1        0.0626
     53 H          10.7475   -5.4809   -0.5546 H       1  UNL1        0.2954
     54 H           6.5806   -0.6384    1.5596 H       1  UNL1        0.0638
     55 H           5.3456    0.6761    0.4767 H       1  UNL1        0.0624
     56 H           3.2803    1.9205    0.4079 H       1  UNL1        0.0636
     57 H          -0.3416    0.8766    1.9510 H       1  UNL1        0.0303
     58 H          -1.8041    1.8254    2.2312 H       1  UNL1        0.0303
     59 H          -2.7347   -0.1000    2.9538 H       1  UNL1        0.0427
     60 H          -1.4120   -1.0675    2.2416 H       1  UNL1        0.0427
     61 H          -3.0500   -2.7725    1.6639 H       1  UNL1        0.0491
     62 H          -1.8519   -2.4331    0.4209 H       1  UNL1        0.0491
     63 H          -3.6948   -3.6961   -3.5507 H       1  UNL1        0.0829
     64 H          -6.1108   -3.9421   -3.1546 H       1  UNL1        0.0633
     65 H          -7.0374   -3.3827   -0.9835 H       1  UNL1        0.0621
     66 H          -6.1796   -3.3689    1.6435 H       1  UNL1        0.0278
     67 H          -6.5452   -1.7525    0.9860 H       1  UNL1        0.0278
     68 H          -5.0027   -1.9679    1.8294 H       1  UNL1        0.0278
     69 H          -4.6134    0.3798    0.3069 H       1  UNL1        0.0427
     70 H          -3.7751   -0.5922   -0.9207 H       1  UNL1        0.0427
     71 H          -2.7948    1.3275   -1.4818 H       1  UNL1        0.0303
     72 H          -3.3086    2.1541    0.0011 H       1  UNL1        0.0303
     73 H          -2.3947    5.4543   -3.1664 H       1  UNL1        0.1049
@<TRIPOS>BOND
     1     1     2    1
     2     2     3    1
     3     3     4   ar
     4     4     5   ar
     5     5     6    1
     6     6     7   am
     7     7     8    2
     8     7     9   am
     9     9    10    1
    10    10    11   ar
    11    11    12   ar
    12    12    13   ar
    13    13    14    1
    14    14    15   ar
    15    15    16   ar
    16    16    17   ar
    17    17    18    1
    18    18    19    2
    19    18    20    1
    20    17    21   ar
    21    21    22    1
    22    21    23   ar
    23    13    24   ar
    24    24    25   ar
    25     9    26   am
    26    26    27    2
    27    26    28    1
    28    28    29    1
    29    29    30    1
    30    30    31    1
    31    31    32    1
    32    32    33    1
    33    33    34   ar
    34    34    35   ar
    35    35    36   ar
    36    36    37   ar
    37    37    38   ar
    38    38    39    1
    39    31    40    1
    40    40    41    1
    41     5    42   ar
    42    42    43   ar
    43    43    44   ar
    44    44     3   ar
    45    28     6    1
    46    38    33   ar
    47    25    10   ar
    48    41    28    1
    49    23    14   ar
    50     1    45    1
    51     1    46    1
    52     1    47    1
    53     4    48    1
    54    11    49    1
    55    12    50    1
    56    15    51    1
    57    16    52    1
    58    20    53    1
    59    23    54    1
    60    24    55    1
    61    25    56    1
    62    29    57    1
    63    29    58    1
    64    30    59    1
    65    30    60    1
    66    32    61    1
    67    32    62    1
    68    35    63    1
    69    36    64    1
    70    37    65    1
    71    39    66    1
    72    39    67    1
    73    39    68    1
    74    40    69    1
    75    40    70    1
    76    41    71    1
    77    41    72    1
    78    43    73    1
