
     RDKit          3D

 39 42  0  0  0  0  0  0  0  0999 V2000
   -5.8790    0.0594    1.1008 C   0  0  0  0  0  0  0  0  0  0  0  0
   -4.5264   -0.3687    0.5197 C   0  0  2  0  0  0  0  0  0  0  0  0
   -3.5670    0.7549    0.8039 C   0  0  0  0  0  0  0  0  0  0  0  0
   -2.1802    0.4085    0.5770 N   0  0  0  0  0  0  0  0  0  0  0  0
   -1.5270    0.0728   -0.6826 C   0  0  0  0  0  0  0  0  0  0  0  0
   -2.3067   -0.3706   -1.7404 C   0  0  0  0  0  0  0  0  0  0  0  0
   -1.1202   -0.6547   -3.0492 S   0  0  0  0  0  0  0  0  0  0  0  0
    0.3140   -0.1675   -2.1026 C   0  0  0  0  0  0  0  0  0  0  0  0
    1.6536   -0.1125   -2.4334 C   0  0  0  0  0  0  0  0  0  0  0  0
    2.5830    0.3045   -1.5085 C   0  0  0  0  0  0  0  0  0  0  0  0
    2.1137    0.6597   -0.2500 C   0  0  0  0  0  0  0  0  0  0  0  0
    2.9657    1.0615    0.6619 O   0  0  0  0  0  0  0  0  0  0  0  0
    4.0153    1.3980    1.3123 C   0  0  0  0  0  0  0  0  0  0  0  0
    5.1055    0.3422    1.5489 C   0  0  0  0  0  0  0  0  0  0  0  0
    5.7756   -0.2831    0.3739 C   0  0  0  0  0  0  0  0  0  0  0  0
    4.7393   -1.0373    1.0770 C   0  0  0  0  0  0  0  0  0  0  0  0
    0.7457    0.5951    0.0618 C   0  0  0  0  0  0  0  0  0  0  0  0
   -0.1947    0.1682   -0.8902 C   0  0  0  0  0  0  0  0  0  0  0  0
   -3.7185   -0.6005   -1.9120 C   0  0  0  0  0  0  0  0  0  0  0  0
   -4.0474   -0.8773   -3.0937 O   0  0  0  0  0  0  0  0  0  0  0  0
   -4.7463   -0.5464   -0.9046 N   0  0  0  0  0  0  0  0  0  0  0  0
   -6.6385   -0.6833    0.7862 H   0  0  0  0  0  0  0  0  0  0  0  0
   -6.1201    1.0388    0.5934 H   0  0  0  0  0  0  0  0  0  0  0  0
   -5.8296    0.2238    2.1800 H   0  0  0  0  0  0  0  0  0  0  0  0
   -4.2501   -1.3166    1.0255 H   0  0  0  0  0  0  0  0  0  0  0  0
   -3.8641    1.5976    0.1336 H   0  0  0  0  0  0  0  0  0  0  0  0
   -3.7046    1.0759    1.8403 H   0  0  0  0  0  0  0  0  0  0  0  0
   -1.5572    0.3946    1.4107 H   0  0  0  0  0  0  0  0  0  0  0  0
    1.9615   -0.3987   -3.4206 H   0  0  0  0  0  0  0  0  0  0  0  0
    3.6267    0.3712   -1.7102 H   0  0  0  0  0  0  0  0  0  0  0  0
    3.7854    1.8334    2.3475 H   0  0  0  0  0  0  0  0  0  0  0  0
    4.5970    2.2793    0.8192 H   0  0  0  0  0  0  0  0  0  0  0  0
    5.7367    0.4684    2.4438 H   0  0  0  0  0  0  0  0  0  0  0  0
    6.8219   -0.6924    0.5086 H   0  0  0  0  0  0  0  0  0  0  0  0
    5.6410    0.2282   -0.5823 H   0  0  0  0  0  0  0  0  0  0  0  0
    5.0414   -1.8625    1.7636 H   0  0  0  0  0  0  0  0  0  0  0  0
    3.7694   -1.2190    0.6154 H   0  0  0  0  0  0  0  0  0  0  0  0
    0.4831    0.8917    1.0637 H   0  0  0  0  0  0  0  0  0  0  0  0
   -5.6976   -0.6483   -1.2884 H   0  0  0  0  0  0  0  0  0  0  0  0
  1  2  1  0
  2  3  1  0
  3  4  1  0
  4  5  1  0
  5  6  2  0
  6  7  1  0
  7  8  1  0
  8  9  2  0
  9 10  1  0
 10 11  2  0
 11 12  1  0
 12 13  1  0
 13 14  1  0
 14 15  1  0
 15 16  1  0
 11 17  1  0
 17 18  2  0
  6 19  1  0
 19 20  2  0
 19 21  1  0
 21  2  1  0
 18  5  1  0
 18  8  1  0
 16 14  1  0
  1 22  1  0
  1 23  1  0
  1 24  1  0
  2 25  1  1
  3 26  1  0
  3 27  1  0
  4 28  1  0
  9 29  1  0
 10 30  1  0
 13 31  1  0
 13 32  1  0
 14 33  1  0
 15 34  1  0
 15 35  1  0
 16 36  1  0
 16 37  1  0
 17 38  1  0
 21 39  1  0
M  END
$$$$
