@<TRIPOS>MOLECULE
*****
 39 42 0 0 0
SMALL
GASTEIGER

@<TRIPOS>ATOM
      1 C          -5.8790    0.0594    1.1008 C.3     1  UNL1       -0.0452
      2 C          -4.5264   -0.3687    0.5197 C.3     1  UNL1        0.0360
      3 C          -3.5670    0.7549    0.8039 C.3     1  UNL1        0.0273
      4 N          -2.1802    0.4085    0.5770 N.pl3   1  UNL1       -0.3406
      5 C          -1.5270    0.0728   -0.6826 C.ar    1  UNL1        0.0546
      6 C          -2.3067   -0.3706   -1.7404 C.ar    1  UNL1        0.0958
      7 S          -1.1202   -0.6547   -3.0492 S.2     1  UNL1       -0.0818
      8 C           0.3140   -0.1675   -2.1026 C.ar    1  UNL1        0.0221
      9 C           1.6536   -0.1125   -2.4334 C.ar    1  UNL1       -0.0439
     10 C           2.5830    0.3045   -1.5085 C.ar    1  UNL1       -0.0189
     11 C           2.1137    0.6597   -0.2500 C.ar    1  UNL1        0.1212
     12 O           2.9657    1.0615    0.6619 O.3     1  UNL1       -0.4917
     13 C           4.0153    1.3980    1.3123 C.3     1  UNL1        0.0924
     14 C           5.1055    0.3422    1.5489 C.3     1  UNL1       -0.0068
     15 C           5.7756   -0.2831    0.3739 C.3     1  UNL1       -0.0468
     16 C           4.7393   -1.0373    1.0770 C.3     1  UNL1       -0.0468
     17 C           0.7457    0.5951    0.0618 C.ar    1  UNL1       -0.0099
     18 C          -0.1947    0.1682   -0.8902 C.ar    1  UNL1        0.0142
     19 C          -3.7185   -0.6005   -1.9120 C.2     1  UNL1        0.2528
     20 O          -4.0474   -0.8773   -3.0937 O.2     1  UNL1       -0.2696
     21 N          -4.7463   -0.5464   -0.9046 N.am    1  UNL1       -0.3068
     22 H          -6.6385   -0.6833    0.7862 H       1  UNL1        0.0248
     23 H          -6.1201    1.0388    0.5934 H       1  UNL1        0.0248
     24 H          -5.8296    0.2238    2.1800 H       1  UNL1        0.0248
     25 H          -4.2501   -1.3166    1.0255 H       1  UNL1        0.0511
     26 H          -3.8641    1.5976    0.1336 H       1  UNL1        0.0479
     27 H          -3.7046    1.0759    1.8403 H       1  UNL1        0.0479
     28 H          -1.5572    0.3946    1.4107 H       1  UNL1        0.1462
     29 H           1.9615   -0.3987   -3.4206 H       1  UNL1        0.0630
     30 H           3.6267    0.3712   -1.7102 H       1  UNL1        0.0654
     31 H           3.7854    1.8334    2.3475 H       1  UNL1        0.0699
     32 H           4.5970    2.2793    0.8192 H       1  UNL1        0.0699
     33 H           5.7367    0.4684    2.4438 H       1  UNL1        0.0334
     34 H           6.8219   -0.6924    0.5086 H       1  UNL1        0.0269
     35 H           5.6410    0.2282   -0.5823 H       1  UNL1        0.0269
     36 H           5.0414   -1.8625    1.7636 H       1  UNL1        0.0269
     37 H           3.7694   -1.2190    0.6154 H       1  UNL1        0.0269
     38 H           0.4831    0.8917    1.0637 H       1  UNL1        0.0661
     39 H          -5.6976   -0.6483   -1.2884 H       1  UNL1        0.1494
@<TRIPOS>BOND
     1     1     2    1
     2     2     3    1
     3     3     4    1
     4     4     5    1
     5     5     6   ar
     6     6     7   ar
     7     7     8   ar
     8     8     9   ar
     9     9    10   ar
    10    10    11   ar
    11    11    12    1
    12    12    13    1
    13    13    14    1
    14    14    15    1
    15    15    16    1
    16    11    17   ar
    17    17    18   ar
    18     6    19    1
    19    19    20    2
    20    19    21   am
    21    21     2    1
    22    18     5   ar
    23    18     8   ar
    24    16    14    1
    25     1    22    1
    26     1    23    1
    27     1    24    1
    28     2    25    1
    29     3    26    1
    30     3    27    1
    31     4    28    1
    32     9    29    1
    33    10    30    1
    34    13    31    1
    35    13    32    1
    36    14    33    1
    37    15    34    1
    38    15    35    1
    39    16    36    1
    40    16    37    1
    41    17    38    1
    42    21    39    1
