@<TRIPOS>MOLECULE
*****
 37 40 0 0 0
SMALL
GASTEIGER

@<TRIPOS>ATOM
      1 O           0.0154   -0.4174   -0.5600 O.2     1  UNL1       -0.2751
      2 C           0.2848    0.7025   -0.0268 C.2     1  UNL1        0.2219
      3 C          -0.6842    1.2558    0.9544 C.3     1  UNL1        0.0500
      4 C          -1.8361    0.3366    1.1249 C.ar    1  UNL1       -0.0295
      5 C          -1.9467   -0.4779    2.2491 C.ar    1  UNL1       -0.0574
      6 C          -2.9960   -1.3409    2.4363 C.ar    1  UNL1       -0.0594
      7 C          -3.9856   -1.4262    1.5009 C.ar    1  UNL1       -0.0357
      8 C          -3.9151   -0.6361    0.3710 C.ar    1  UNL1        0.0712
      9 N          -4.9094   -0.7433   -0.5333 N.ar    1  UNL1       -0.2550
     10 C          -4.8520    0.0297   -1.6484 C.ar    1  UNL1        0.0283
     11 C          -3.8163    0.9027   -1.8657 C.ar    1  UNL1       -0.0430
     12 C          -2.8009    1.0059   -0.9325 C.ar    1  UNL1       -0.0509
     13 C          -2.8499    0.2264    0.2015 C.ar    1  UNL1        0.0040
     14 N           1.4765    1.3519   -0.3911 N.am    1  UNL1       -0.2791
     15 C           2.3377    0.6845   -1.3710 C.ar    1  UNL1        0.0836
     16 S           2.1280    0.8640   -3.0780 S.2     1  UNL1       -0.0801
     17 C           3.4863   -0.2128   -3.5596 C.ar    1  UNL1       -0.0078
     18 C           3.9875   -0.6199   -2.3390 C.ar    1  UNL1        0.0374
     19 BR          5.5173   -1.8388   -2.3508 Br      1  UNL1       -0.0490
     20 C           3.3667   -0.1335   -1.2374 C.ar    1  UNL1        0.0614
     21 C           3.8701   -0.4915    0.1308 C.ar    1  UNL1        0.1648
     22 N           4.8900   -1.3102    0.4177 N.ar    1  UNL1       -0.1295
     23 N           5.0784   -1.3837    1.7234 N.ar    1  UNL1       -0.1377
     24 C           4.1726   -0.6037    2.3208 C.ar    1  UNL1        0.1175
     25 N           3.4281   -0.0554    1.3126 N.ar    1  UNL1       -0.3276
     26 H          -0.2230    1.3733    1.9581 H       1  UNL1        0.0407
     27 H          -1.0263    2.2840    0.6697 H       1  UNL1        0.0407
     28 H          -1.1727   -0.4115    2.9818 H       1  UNL1        0.0621
     29 H          -3.0310   -1.9399    3.3137 H       1  UNL1        0.0618
     30 H          -4.8281   -2.1016    1.6242 H       1  UNL1        0.0639
     31 H          -5.6452   -0.0314   -2.4065 H       1  UNL1        0.0830
     32 H          -3.7746    1.5206   -2.7611 H       1  UNL1        0.0633
     33 H          -1.9789    1.6705   -1.0621 H       1  UNL1        0.0625
     34 H           1.7480    2.2446   -0.0057 H       1  UNL1        0.1553
     35 H           3.7955   -0.4509   -4.5928 H       1  UNL1        0.0705
     36 H           4.0348   -0.4245    3.3818 H       1  UNL1        0.1046
     37 H           2.6542    0.5980    1.4800 H       1  UNL1        0.1683
@<TRIPOS>BOND
     1     1     2    2
     2     2     3    1
     3     3     4    1
     4     4     5   ar
     5     5     6   ar
     6     6     7   ar
     7     7     8   ar
     8     8     9   ar
     9     9    10   ar
    10    10    11   ar
    11    11    12   ar
    12    12    13   ar
    13     2    14   am
    14    14    15    1
    15    15    16   ar
    16    16    17   ar
    17    17    18   ar
    18    18    19    1
    19    18    20   ar
    20    20    21    1
    21    21    22   ar
    22    22    23   ar
    23    23    24   ar
    24    24    25   ar
    25    13     4   ar
    26    20    15   ar
    27    25    21   ar
    28    13     8   ar
    29     3    26    1
    30     3    27    1
    31     5    28    1
    32     6    29    1
    33     7    30    1
    34    10    31    1
    35    11    32    1
    36    12    33    1
    37    14    34    1
    38    17    35    1
    39    24    36    1
    40    25    37    1
