
     RDKit          3D

 59 61  0  0  0  0  0  0  0  0999 V2000
    2.0830   -4.1559   -1.8553 C   0  0  0  0  0  0  0  0  0  0  0  0
    2.4372   -3.0174   -1.2243 O   0  0  0  0  0  0  0  0  0  0  0  0
    1.3982   -2.1962   -0.7723 C   0  0  0  0  0  0  0  0  0  0  0  0
    0.5378   -1.9623   -1.9790 C   0  0  0  0  0  0  0  0  0  0  0  0
    0.7610   -2.9248    0.3549 C   0  0  0  0  0  0  0  0  0  0  0  0
    2.0376   -0.9490   -0.2802 C   0  0  0  0  0  0  0  0  0  0  0  0
    3.4366   -0.9044   -0.3187 C   0  0  0  0  0  0  0  0  0  0  0  0
    4.1505    0.1625    0.0731 N   0  0  0  0  0  0  0  0  0  0  0  0
    3.5732    1.2944    0.5422 C   0  0  0  0  0  0  0  0  0  0  0  0
    4.3758    2.4371    0.9590 C   0  0  0  0  0  0  0  0  0  0  0  0
    3.8441    3.5876    1.4400 C   0  0  0  0  0  0  0  0  0  0  0  0
    4.7219    4.6138    1.8048 C   0  0  0  0  0  0  0  0  0  0  0  0
    3.9608    6.0750    2.4208 Cl  0  0  0  0  0  0  0  0  0  0  0  0
    6.0875    4.4847    1.6889 C   0  0  0  0  0  0  0  0  0  0  0  0
    6.6349    3.3144    1.1994 C   0  0  0  0  0  0  0  0  0  0  0  0
    5.7638    2.3137    0.8442 C   0  0  0  0  0  0  0  0  0  0  0  0
    6.2967    1.1644    0.3642 F   0  0  0  0  0  0  0  0  0  0  0  0
    2.2029    1.2547    0.5820 C   0  0  0  0  0  0  0  0  0  0  0  0
    1.4368    0.1591    0.1818 C   0  0  0  0  0  0  0  0  0  0  0  0
    0.0427    0.3434    0.1378 N   0  0  0  0  0  0  0  0  0  0  0  0
   -0.8328   -0.1247    1.1162 C   0  0  0  0  0  0  0  0  0  0  0  0
   -0.3455   -0.6304    2.3368 C   0  0  0  0  0  0  0  0  0  0  0  0
   -1.1622   -1.1040    3.3292 C   0  0  0  0  0  0  0  0  0  0  0  0
   -2.4927   -1.0998    3.1629 N   0  0  0  0  0  0  0  0  0  0  0  0
   -3.0028   -0.6331    2.0282 C   0  0  0  0  0  0  0  0  0  0  0  0
   -2.1997   -0.1397    0.9874 C   0  0  0  0  0  0  0  0  0  0  0  0
   -2.8247    0.3228   -0.2297 C   0  0  0  0  0  0  0  0  0  0  0  0
   -2.2519    0.7160   -1.2700 O   0  0  0  0  0  0  0  0  0  0  0  0
   -4.2637    0.3603   -0.3198 N   0  0  0  0  0  0  0  0  0  0  0  0
   -4.8760    0.8281   -1.5583 C   0  0  0  0  0  0  0  0  0  0  0  0
   -6.3787    0.7999   -1.4768 C   0  0  0  0  0  0  0  0  0  0  0  0
   -6.9084   -0.6039   -1.2534 C   0  0  0  0  0  0  0  0  0  0  0  0
   -6.9082    1.2508   -2.6831 O   0  0  0  0  0  0  0  0  0  0  0  0
    1.4901   -4.8894   -1.3059 H   0  0  0  0  0  0  0  0  0  0  0  0
    1.6691   -4.0012   -2.8860 H   0  0  0  0  0  0  0  0  0  0  0  0
    3.0605   -4.6972   -2.0707 H   0  0  0  0  0  0  0  0  0  0  0  0
   -0.1586   -1.1561   -1.7822 H   0  0  0  0  0  0  0  0  0  0  0  0
    0.0647   -2.8938   -2.3546 H   0  0  0  0  0  0  0  0  0  0  0  0
    1.2181   -1.6292   -2.8054 H   0  0  0  0  0  0  0  0  0  0  0  0
    1.2336   -2.6681    1.3478 H   0  0  0  0  0  0  0  0  0  0  0  0
    1.0184   -4.0266    0.2745 H   0  0  0  0  0  0  0  0  0  0  0  0
   -0.3191   -2.8131    0.4672 H   0  0  0  0  0  0  0  0  0  0  0  0
    4.0016   -1.7823   -0.6860 H   0  0  0  0  0  0  0  0  0  0  0  0
    2.7807    3.6971    1.5340 H   0  0  0  0  0  0  0  0  0  0  0  0
    6.7342    5.3078    1.9844 H   0  0  0  0  0  0  0  0  0  0  0  0
    7.7098    3.2579    1.1253 H   0  0  0  0  0  0  0  0  0  0  0  0
    1.6964    2.1514    0.9561 H   0  0  0  0  0  0  0  0  0  0  0  0
   -0.2515    0.9115   -0.7192 H   0  0  0  0  0  0  0  0  0  0  0  0
    0.7049   -0.6366    2.4826 H   0  0  0  0  0  0  0  0  0  0  0  0
   -0.7724   -1.4886    4.2599 H   0  0  0  0  0  0  0  0  0  0  0  0
   -4.0782   -0.6474    1.9307 H   0  0  0  0  0  0  0  0  0  0  0  0
   -4.9141    0.0819    0.4304 H   0  0  0  0  0  0  0  0  0  0  0  0
   -4.4993    0.1962   -2.3748 H   0  0  0  0  0  0  0  0  0  0  0  0
   -4.5758    1.8713   -1.7848 H   0  0  0  0  0  0  0  0  0  0  0  0
   -6.7644    1.4155   -0.6352 H   0  0  0  0  0  0  0  0  0  0  0  0
   -6.3991   -1.3664   -1.8456 H   0  0  0  0  0  0  0  0  0  0  0  0
   -6.9467   -0.8586   -0.1621 H   0  0  0  0  0  0  0  0  0  0  0  0
   -7.9685   -0.5953   -1.5768 H   0  0  0  0  0  0  0  0  0  0  0  0
   -7.0701    2.2221   -2.6188 H   0  0  0  0  0  0  0  0  0  0  0  0
  1  2  1  0
  2  3  1  0
  3  4  1  0
  3  5  1  0
  3  6  1  0
  6  7  2  0
  7  8  1  0
  8  9  2  0
  9 10  1  0
 10 11  2  0
 11 12  1  0
 12 13  1  0
 12 14  2  0
 14 15  1  0
 15 16  2  0
 16 17  1  0
  9 18  1  0
 18 19  2  0
 19 20  1  0
 20 21  1  0
 21 22  2  0
 22 23  1  0
 23 24  2  0
 24 25  1  0
 25 26  2  0
 26 27  1  0
 27 28  2  0
 27 29  1  0
 29 30  1  0
 30 31  1  0
 31 32  1  0
 31 33  1  0
 19  6  1  0
 26 21  1  0
 16 10  1  0
  1 34  1  0
  1 35  1  0
  1 36  1  0
  4 37  1  0
  4 38  1  0
  4 39  1  0
  5 40  1  0
  5 41  1  0
  5 42  1  0
  7 43  1  0
 11 44  1  0
 14 45  1  0
 15 46  1  0
 18 47  1  0
 20 48  1  0
 22 49  1  0
 23 50  1  0
 25 51  1  0
 29 52  1  0
 30 53  1  0
 30 54  1  0
 31 55  1  0
 32 56  1  0
 32 57  1  0
 32 58  1  0
 33 59  1  0
M  END
$$$$
