@<TRIPOS>MOLECULE
*****
 59 61 0 0 0
SMALL
GASTEIGER

@<TRIPOS>ATOM
      1 C           2.0830   -4.1559   -1.8553 C.3     1  UNL1        0.0376
      2 O           2.4372   -3.0174   -1.2243 O.3     1  UNL1       -0.3724
      3 C           1.3982   -2.1962   -0.7723 C.3     1  UNL1        0.0915
      4 C           0.5378   -1.9623   -1.9790 C.3     1  UNL1       -0.0318
      5 C           0.7610   -2.9248    0.3549 C.3     1  UNL1       -0.0318
      6 C           2.0376   -0.9490   -0.2802 C.ar    1  UNL1        0.0228
      7 C           3.4366   -0.9044   -0.3187 C.ar    1  UNL1        0.0359
      8 N           4.1505    0.1625    0.0731 N.ar    1  UNL1       -0.2544
      9 C           3.5732    1.2944    0.5422 C.ar    1  UNL1        0.0755
     10 C           4.3758    2.4371    0.9590 C.ar    1  UNL1        0.0369
     11 C           3.8441    3.5876    1.4400 C.ar    1  UNL1       -0.0314
     12 C           4.7219    4.6138    1.8048 C.ar    1  UNL1        0.0418
     13 CL          3.9608    6.0750    2.4208 Cl      1  UNL1       -0.0835
     14 C           6.0875    4.4847    1.6889 C.ar    1  UNL1       -0.0406
     15 C           6.6349    3.3144    1.1994 C.ar    1  UNL1       -0.0244
     16 C           5.7638    2.3137    0.8442 C.ar    1  UNL1        0.1326
     17 F           6.2967    1.1644    0.3642 F       1  UNL1       -0.2048
     18 C           2.2029    1.2547    0.5820 C.ar    1  UNL1       -0.0141
     19 C           1.4368    0.1591    0.1818 C.ar    1  UNL1        0.0408
     20 N           0.0427    0.3434    0.1378 N.pl3   1  UNL1       -0.3134
     21 C          -0.8328   -0.1247    1.1162 C.ar    1  UNL1        0.0465
     22 C          -0.3455   -0.6304    2.3368 C.ar    1  UNL1       -0.0217
     23 C          -1.1622   -1.1040    3.3292 C.ar    1  UNL1        0.0293
     24 N          -2.4927   -1.0998    3.1629 N.ar    1  UNL1       -0.2624
     25 C          -3.0028   -0.6331    2.0282 C.ar    1  UNL1        0.0415
     26 C          -2.1997   -0.1397    0.9874 C.ar    1  UNL1        0.0758
     27 C          -2.8247    0.3228   -0.2297 C.2     1  UNL1        0.2474
     28 O          -2.2519    0.7160   -1.2700 O.2     1  UNL1       -0.2701
     29 N          -4.2637    0.3603   -0.3198 N.am    1  UNL1       -0.3088
     30 C          -4.8760    0.8281   -1.5583 C.3     1  UNL1        0.0377
     31 C          -6.3787    0.7999   -1.4768 C.3     1  UNL1        0.0679
     32 C          -6.9084   -0.6039   -1.2534 C.3     1  UNL1       -0.0375
     33 O          -6.9082    1.2508   -2.6831 O.3     1  UNL1       -0.3905
     34 H           1.4901   -4.8894   -1.3059 H       1  UNL1        0.0524
     35 H           1.6691   -4.0012   -2.8860 H       1  UNL1        0.0524
     36 H           3.0605   -4.6972   -2.0707 H       1  UNL1        0.0524
     37 H          -0.1586   -1.1561   -1.7822 H       1  UNL1        0.0261
     38 H           0.0647   -2.8938   -2.3546 H       1  UNL1        0.0261
     39 H           1.2181   -1.6292   -2.8054 H       1  UNL1        0.0261
     40 H           1.2336   -2.6681    1.3478 H       1  UNL1        0.0261
     41 H           1.0184   -4.0266    0.2745 H       1  UNL1        0.0261
     42 H          -0.3191   -2.8131    0.4672 H       1  UNL1        0.0261
     43 H           4.0016   -1.7823   -0.6860 H       1  UNL1        0.0834
     44 H           2.7807    3.6971    1.5340 H       1  UNL1        0.0639
     45 H           6.7342    5.3078    1.9844 H       1  UNL1        0.0633
     46 H           7.7098    3.2579    1.1253 H       1  UNL1        0.0647
     47 H           1.6964    2.1514    0.9561 H       1  UNL1        0.0658
     48 H          -0.2515    0.9115   -0.7192 H       1  UNL1        0.1522
     49 H           0.7049   -0.6366    2.4826 H       1  UNL1        0.0651
     50 H          -0.7724   -1.4886    4.2599 H       1  UNL1        0.0830
     51 H          -4.0782   -0.6474    1.9307 H       1  UNL1        0.0838
     52 H          -4.9141    0.0819    0.4304 H       1  UNL1        0.1491
     53 H          -4.4993    0.1962   -2.3748 H       1  UNL1        0.0487
     54 H          -4.5758    1.8713   -1.7848 H       1  UNL1        0.0487
     55 H          -6.7644    1.4155   -0.6352 H       1  UNL1        0.0606
     56 H          -6.3991   -1.3664   -1.8456 H       1  UNL1        0.0255
     57 H          -6.9467   -0.8586   -0.1621 H       1  UNL1        0.0255
     58 H          -7.9685   -0.5953   -1.5768 H       1  UNL1        0.0255
     59 H          -7.0701    2.2221   -2.6188 H       1  UNL1        0.2098
@<TRIPOS>BOND
     1     1     2    1
     2     2     3    1
     3     3     4    1
     4     3     5    1
     5     3     6    1
     6     6     7   ar
     7     7     8   ar
     8     8     9   ar
     9     9    10    1
    10    10    11   ar
    11    11    12   ar
    12    12    13    1
    13    12    14   ar
    14    14    15   ar
    15    15    16   ar
    16    16    17    1
    17     9    18   ar
    18    18    19   ar
    19    19    20    1
    20    20    21    1
    21    21    22   ar
    22    22    23   ar
    23    23    24   ar
    24    24    25   ar
    25    25    26   ar
    26    26    27    1
    27    27    28    2
    28    27    29   am
    29    29    30    1
    30    30    31    1
    31    31    32    1
    32    31    33    1
    33    19     6   ar
    34    26    21   ar
    35    16    10   ar
    36     1    34    1
    37     1    35    1
    38     1    36    1
    39     4    37    1
    40     4    38    1
    41     4    39    1
    42     5    40    1
    43     5    41    1
    44     5    42    1
    45     7    43    1
    46    11    44    1
    47    14    45    1
    48    15    46    1
    49    18    47    1
    50    20    48    1
    51    22    49    1
    52    23    50    1
    53    25    51    1
    54    29    52    1
    55    30    53    1
    56    30    54    1
    57    31    55    1
    58    32    56    1
    59    32    57    1
    60    32    58    1
    61    33    59    1
