
     RDKit          3D

 49 51  0  0  0  0  0  0  0  0999 V2000
   -2.0366    1.8722    0.3944 C   0  0  0  0  0  0  0  0  0  0  0  0
   -2.9496    0.7003    0.6798 C   0  0  0  0  0  0  0  0  0  0  0  0
   -3.9023    1.1419    1.7879 C   0  0  0  0  0  0  0  0  0  0  0  0
   -2.2578   -0.4805    1.1675 C   0  0  0  0  0  0  0  0  0  0  0  0
   -1.9453   -0.5882    2.5765 N   0  0  0  0  0  0  0  0  0  0  0  0
   -1.8953   -1.4463    0.4541 N   0  0  0  0  0  0  0  0  0  0  0  0
   -2.0697   -1.6193   -0.9784 C   0  0  2  0  0  0  0  0  0  0  0  0
   -1.9751   -3.1481   -1.1347 C   0  0  0  0  0  0  0  0  0  0  0  0
   -2.1291   -3.4801   -2.4532 F   0  0  0  0  0  0  0  0  0  0  0  0
   -0.9555   -1.0150   -1.6672 C   0  0  0  0  0  0  0  0  0  0  0  0
    0.0595   -0.4536   -0.8897 C   0  0  0  0  0  0  0  0  0  0  0  0
    1.1847    0.1327   -1.4037 C   0  0  0  0  0  0  0  0  0  0  0  0
    2.2098    0.7006   -0.5829 N   0  0  0  0  0  0  0  0  0  0  0  0
    3.3138   -0.0393   -0.1170 C   0  0  0  0  0  0  0  0  0  0  0  0
    3.4156   -1.2518   -0.4279 O   0  0  0  0  0  0  0  0  0  0  0  0
    4.3628    0.5343    0.7204 C   0  0  0  0  0  0  0  0  0  0  0  0
    5.4328   -0.2096    1.1638 C   0  0  0  0  0  0  0  0  0  0  0  0
    6.4315    0.3010    1.9501 C   0  0  0  0  0  0  0  0  0  0  0  0
    6.3692    1.6316    2.3223 C   0  0  0  0  0  0  0  0  0  0  0  0
    7.6132    2.3698    3.3334 Cl  0  0  0  0  0  0  0  0  0  0  0  0
    5.2921    2.3673    1.8720 C   0  0  0  0  0  0  0  0  0  0  0  0
    4.3274    1.8353    1.1004 N   0  0  0  0  0  0  0  0  0  0  0  0
    1.3236    0.1706   -2.7792 C   0  0  0  0  0  0  0  0  0  0  0  0
    0.3388   -0.3749   -3.5786 C   0  0  0  0  0  0  0  0  0  0  0  0
   -0.7832   -0.9583   -3.0357 C   0  0  0  0  0  0  0  0  0  0  0  0
   -1.7402   -1.4686   -3.8238 F   0  0  0  0  0  0  0  0  0  0  0  0
   -3.4467   -1.2447   -1.3338 C   0  0  0  0  0  0  0  0  0  0  0  0
   -3.9387    0.3488   -0.7370 S   0  0  0  0  0  6  0  0  0  0  0  0
   -3.7975    1.4066   -1.7953 O   0  0  0  0  0  0  0  0  0  0  0  0
   -5.4158    0.2735   -0.3697 O   0  0  0  0  0  0  0  0  0  0  0  0
   -1.1980    1.9541    1.0840 H   0  0  0  0  0  0  0  0  0  0  0  0
   -1.7439    1.8153   -0.6709 H   0  0  0  0  0  0  0  0  0  0  0  0
   -2.6798    2.7961    0.4712 H   0  0  0  0  0  0  0  0  0  0  0  0
   -4.3443    0.2886    2.3148 H   0  0  0  0  0  0  0  0  0  0  0  0
   -3.3567    1.8416    2.4493 H   0  0  0  0  0  0  0  0  0  0  0  0
   -4.7171    1.7187    1.2933 H   0  0  0  0  0  0  0  0  0  0  0  0
   -2.2977   -1.4307    3.0609 H   0  0  0  0  0  0  0  0  0  0  0  0
   -1.4051    0.1138    3.1020 H   0  0  0  0  0  0  0  0  0  0  0  0
   -0.9587   -3.5035   -0.8221 H   0  0  0  0  0  0  0  0  0  0  0  0
   -2.7426   -3.6496   -0.5202 H   0  0  0  0  0  0  0  0  0  0  0  0
    0.0092   -0.4521    0.2116 H   0  0  0  0  0  0  0  0  0  0  0  0
    2.1359    1.6950   -0.3220 H   0  0  0  0  0  0  0  0  0  0  0  0
    5.4856   -1.2417    0.8779 H   0  0  0  0  0  0  0  0  0  0  0  0
    7.2734   -0.2873    2.2981 H   0  0  0  0  0  0  0  0  0  0  0  0
    5.2728    3.4198    2.1853 H   0  0  0  0  0  0  0  0  0  0  0  0
    2.2205    0.6377   -3.1851 H   0  0  0  0  0  0  0  0  0  0  0  0
    0.4427   -0.3482   -4.6711 H   0  0  0  0  0  0  0  0  0  0  0  0
   -4.1150   -1.9784   -0.7851 H   0  0  0  0  0  0  0  0  0  0  0  0
   -3.7176   -1.3978   -2.3978 H   0  0  0  0  0  0  0  0  0  0  0  0
  1  2  1  0
  2  3  1  0
  2  4  1  0
  4  5  1  0
  4  6  2  0
  6  7  1  0
  7  8  1  1
  8  9  1  0
  7 10  1  0
 10 11  2  0
 11 12  1  0
 12 13  1  0
 13 14  1  0
 14 15  2  0
 14 16  1  0
 16 17  2  0
 17 18  1  0
 18 19  2  0
 19 20  1  0
 19 21  1  0
 21 22  2  0
 12 23  2  0
 23 24  1  0
 24 25  2  0
 25 26  1  0
  7 27  1  0
 27 28  1  0
 28 29  2  0
 28 30  2  0
 28  2  1  0
 25 10  1  0
 22 16  1  0
  1 31  1  0
  1 32  1  0
  1 33  1  0
  3 34  1  0
  3 35  1  0
  3 36  1  0
  5 37  1  0
  5 38  1  0
  8 39  1  0
  8 40  1  0
 11 41  1  0
 13 42  1  0
 17 43  1  0
 18 44  1  0
 21 45  1  0
 23 46  1  0
 24 47  1  0
 27 48  1  0
 27 49  1  0
M  END
$$$$
