@<TRIPOS>MOLECULE
*****
 49 51 0 0 0
SMALL
GASTEIGER

@<TRIPOS>ATOM
      1 C          -2.0366    1.8722    0.3944 C.3     1  UNL1       -0.0288
      2 C          -2.9496    0.7003    0.6798 C.3     1  UNL1        0.1831
      3 C          -3.9023    1.1419    1.7879 C.3     1  UNL1       -0.0288
      4 C          -2.2578   -0.4805    1.1675 C.2     1  UNL1        0.3068
      5 N          -1.9453   -0.5882    2.5765 N.pl3   1  UNL1       -0.2488
      6 N          -1.8953   -1.4463    0.4541 N.2     1  UNL1       -0.0698
      7 C          -2.0697   -1.6193   -0.9784 C.3     1  UNL1        0.2263
      8 C          -1.9751   -3.1481   -1.1347 C.3     1  UNL1        0.1433
      9 F          -2.1291   -3.4801   -2.4532 F       1  UNL1       -0.2438
     10 C          -0.9555   -1.0150   -1.6672 C.ar    1  UNL1        0.0448
     11 C           0.0595   -0.4536   -0.8897 C.ar    1  UNL1       -0.0300
     12 C           1.1847    0.1327   -1.4037 C.ar    1  UNL1        0.0343
     13 N           2.2098    0.7006   -0.5829 N.am    1  UNL1       -0.2802
     14 C           3.3138   -0.0393   -0.1170 C.2     1  UNL1        0.2666
     15 O           3.4156   -1.2518   -0.4279 O.2     1  UNL1       -0.2682
     16 C           4.3628    0.5343    0.7204 C.ar    1  UNL1        0.1257
     17 C           5.4328   -0.2096    1.1638 C.ar    1  UNL1       -0.0298
     18 C           6.4315    0.3010    1.9501 C.ar    1  UNL1       -0.0397
     19 C           6.3692    1.6316    2.3223 C.ar    1  UNL1        0.0591
     20 CL          7.6132    2.3698    3.3334 Cl      1  UNL1       -0.0820
     21 C           5.2921    2.3673    1.8720 C.ar    1  UNL1        0.0467
     22 N           4.3274    1.8353    1.1004 N.ar    1  UNL1       -0.2489
     23 C           1.3236    0.1706   -2.7792 C.ar    1  UNL1       -0.0377
     24 C           0.3388   -0.3749   -3.5786 C.ar    1  UNL1       -0.0243
     25 C          -0.7832   -0.9583   -3.0357 C.ar    1  UNL1        0.1312
     26 F          -1.7402   -1.4686   -3.8238 F       1  UNL1       -0.2050
     27 C          -3.4467   -1.2447   -1.3338 C.3     1  UNL1        0.1211
     28 S          -3.9387    0.3488   -0.7370 S.O2    1  UNL1       -0.0100
     29 O          -3.7975    1.4066   -1.7953 O.2     1  UNL1       -0.1731
     30 O          -5.4158    0.2735   -0.3697 O.2     1  UNL1       -0.1731
     31 H          -1.1980    1.9541    1.0840 H       1  UNL1        0.0256
     32 H          -1.7439    1.8153   -0.6709 H       1  UNL1        0.0256
     33 H          -2.6798    2.7961    0.4712 H       1  UNL1        0.0256
     34 H          -4.3443    0.2886    2.3148 H       1  UNL1        0.0256
     35 H          -3.3567    1.8416    2.4493 H       1  UNL1        0.0256
     36 H          -4.7171    1.7187    1.2933 H       1  UNL1        0.0256
     37 H          -2.2977   -1.4307    3.0609 H       1  UNL1        0.2881
     38 H          -1.4051    0.1138    3.1020 H       1  UNL1        0.2881
     39 H          -0.9587   -3.5035   -0.8221 H       1  UNL1        0.0666
     40 H          -2.7426   -3.6496   -0.5202 H       1  UNL1        0.0666
     41 H           0.0092   -0.4521    0.2116 H       1  UNL1        0.0641
     42 H           2.1359    1.6950   -0.3220 H       1  UNL1        0.1552
     43 H           5.4856   -1.2417    0.8779 H       1  UNL1        0.0641
     44 H           7.2734   -0.2873    2.2981 H       1  UNL1        0.0633
     45 H           5.2728    3.4198    2.1853 H       1  UNL1        0.0844
     46 H           2.2205    0.6377   -3.1851 H       1  UNL1        0.0637
     47 H           0.4427   -0.3482   -4.6711 H       1  UNL1        0.0647
     48 H          -4.1150   -1.9784   -0.7851 H       1  UNL1        0.0551
     49 H          -3.7176   -1.3978   -2.3978 H       1  UNL1        0.0551
@<TRIPOS>BOND
     1     1     2    1
     2     2     3    1
     3     2     4    1
     4     4     5    1
     5     4     6    2
     6     6     7    1
     7     7     8    1
     8     8     9    1
     9     7    10    1
    10    10    11   ar
    11    11    12   ar
    12    12    13    1
    13    13    14   am
    14    14    15    2
    15    14    16    1
    16    16    17   ar
    17    17    18   ar
    18    18    19   ar
    19    19    20    1
    20    19    21   ar
    21    21    22   ar
    22    12    23   ar
    23    23    24   ar
    24    24    25   ar
    25    25    26    1
    26     7    27    1
    27    27    28    1
    28    28    29    2
    29    28    30    2
    30    28     2    1
    31    25    10   ar
    32    22    16   ar
    33     1    31    1
    34     1    32    1
    35     1    33    1
    36     3    34    1
    37     3    35    1
    38     3    36    1
    39     5    37    1
    40     5    38    1
    41     8    39    1
    42     8    40    1
    43    11    41    1
    44    13    42    1
    45    17    43    1
    46    18    44    1
    47    21    45    1
    48    23    46    1
    49    24    47    1
    50    27    48    1
    51    27    49    1
