@<TRIPOS>MOLECULE
*****
 65 68 0 0 0
SMALL
GASTEIGER

@<TRIPOS>ATOM
      1 C          10.3522   -1.0800   -1.4834 C.3     1  UNL1       -0.0279
      2 C           9.7074   -0.9623   -0.0976 C.3     1  UNL1        0.0991
      3 C          10.1618   -2.1227    0.7700 C.3     1  UNL1       -0.0279
      4 O           8.3187   -0.9337   -0.2206 O.3     1  UNL1       -0.4475
      5 C           7.5857    0.1838    0.1201 C.2     1  UNL1        0.4032
      6 O           8.1822    1.1906    0.5486 O.2     1  UNL1       -0.2262
      7 N           6.1851    0.1629   -0.0234 N.am    1  UNL1       -0.2644
      8 C           5.5472   -1.0168   -0.5164 C.3     1  UNL1        0.0336
      9 C           4.0549   -0.8879   -0.6325 C.3     1  UNL1        0.0295
     10 N           3.4505    0.0156    0.3060 N.pl3   1  UNL1       -0.3122
     11 C           2.0414    0.0674    0.3612 C.ar    1  UNL1        0.1214
     12 C           1.3603    0.7292    1.3208 C.ar    1  UNL1       -0.0199
     13 C          -0.0275    0.7636    1.3309 C.ar    1  UNL1       -0.0357
     14 C          -0.7395    0.1135    0.3484 C.ar    1  UNL1        0.0521
     15 N          -2.1619    0.1623    0.3701 N.am    1  UNL1       -0.2776
     16 C          -2.9051    1.1723   -0.2991 C.2     1  UNL1        0.2858
     17 O          -2.2223    2.0356   -0.9219 O.2     1  UNL1       -0.2664
     18 C          -4.3639    1.2287   -0.2824 C.ar    1  UNL1        0.2233
     19 O          -5.2265    0.4605    0.2891 O.2     1  UNL1       -0.4191
     20 C          -6.4560    0.8155    0.0871 C.ar    1  UNL1        0.2912
     21 N          -7.6619    0.2195    0.5517 N.pl3   1  UNL1       -0.2851
     22 C          -8.9696    0.7374    0.2252 C.3     1  UNL1        0.0163
     23 C          -9.9713   -0.3151   -0.1334 C.3     1  UNL1       -0.0370
     24 C          -9.8708   -1.5338    0.7563 C.3     1  UNL1       -0.0502
     25 C          -8.4360   -2.0265    0.7369 C.3     1  UNL1       -0.0370
     26 C          -7.5913   -0.9558    1.3920 C.3     1  UNL1        0.0163
     27 N          -6.3933    1.9314   -0.6978 N.ar    1  UNL1       -0.1905
     28 C          -5.0985    2.1970   -0.9333 C.ar    1  UNL1        0.1959
     29 C          -4.6169    3.3356   -1.7491 C.3     1  UNL1        0.4381
     30 F          -5.6852    4.0662   -2.2223 F       1  UNL1       -0.1643
     31 F          -3.9027    2.9071   -2.8498 F       1  UNL1       -0.1643
     32 F          -3.7759    4.1436   -0.9710 F       1  UNL1       -0.1643
     33 C          -0.0356   -0.5583   -0.6242 C.ar    1  UNL1        0.0509
     34 N           1.3024   -0.5649   -0.5950 N.ar    1  UNL1       -0.2385
     35 C           4.2342    0.8552    1.1674 C.3     1  UNL1        0.0295
     36 C           5.4288    1.3422    0.3305 C.3     1  UNL1        0.0336
     37 H          11.4322   -1.2355   -1.2991 H       1  UNL1        0.0265
     38 H          10.1794   -0.1088   -1.9988 H       1  UNL1        0.0265
     39 H           9.9125   -1.9319   -2.0489 H       1  UNL1        0.0265
     40 H          10.0474    0.0190    0.3002 H       1  UNL1        0.0729
     41 H          10.8579   -1.7437    1.5671 H       1  UNL1        0.0265
     42 H           9.3117   -2.5955    1.3009 H       1  UNL1        0.0265
     43 H          10.6805   -2.8600    0.1142 H       1  UNL1        0.0265
     44 H           5.8529   -1.9275    0.0359 H       1  UNL1        0.0481
     45 H           5.9393   -1.1755   -1.5650 H       1  UNL1        0.0481
     46 H           3.6369   -1.9090   -0.3842 H       1  UNL1        0.0480
     47 H           3.7411   -0.7152   -1.6873 H       1  UNL1        0.0480
     48 H           1.8652    1.2525    2.1211 H       1  UNL1        0.0652
     49 H          -0.5327    1.3128    2.1288 H       1  UNL1        0.0638
     50 H          -2.6750   -0.5728    0.8986 H       1  UNL1        0.1553
     51 H          -8.9375    1.4885   -0.5886 H       1  UNL1        0.0465
     52 H          -9.3515    1.2466    1.1520 H       1  UNL1        0.0465
     53 H         -10.9912    0.1094    0.0184 H       1  UNL1        0.0280
     54 H          -9.9008   -0.5846   -1.2003 H       1  UNL1        0.0280
     55 H         -10.1253   -1.2506    1.7816 H       1  UNL1        0.0266
     56 H         -10.5545   -2.2937    0.3785 H       1  UNL1        0.0266
     57 H          -8.3503   -2.9975    1.2625 H       1  UNL1        0.0280
     58 H          -8.0996   -2.0947   -0.3163 H       1  UNL1        0.0280
     59 H          -6.5398   -1.3622    1.3921 H       1  UNL1        0.0465
     60 H          -7.9071   -0.7484    2.4339 H       1  UNL1        0.0465
     61 H          -0.6130   -1.0640   -1.3887 H       1  UNL1        0.0849
     62 H           3.6790    1.7338    1.5608 H       1  UNL1        0.0480
     63 H           4.5881    0.2301    2.0127 H       1  UNL1        0.0480
     64 H           6.0197    2.0589    0.9332 H       1  UNL1        0.0481
     65 H           5.0335    1.8405   -0.5605 H       1  UNL1        0.0481
@<TRIPOS>BOND
     1     1     2    1
     2     2     3    1
     3     2     4    1
     4     4     5    1
     5     5     6    2
     6     5     7   am
     7     7     8    1
     8     8     9    1
     9     9    10    1
    10    10    11    1
    11    11    12   ar
    12    12    13   ar
    13    13    14   ar
    14    14    15    1
    15    15    16   am
    16    16    17    2
    17    16    18    1
    18    18    19   ar
    19    19    20   ar
    20    20    21    1
    21    21    22    1
    22    22    23    1
    23    23    24    1
    24    24    25    1
    25    25    26    1
    26    20    27   ar
    27    27    28   ar
    28    28    29    1
    29    29    30    1
    30    29    31    1
    31    29    32    1
    32    14    33   ar
    33    33    34   ar
    34    10    35    1
    35    35    36    1
    36    36     7    1
    37    34    11   ar
    38    28    18   ar
    39    26    21    1
    40     1    37    1
    41     1    38    1
    42     1    39    1
    43     2    40    1
    44     3    41    1
    45     3    42    1
    46     3    43    1
    47     8    44    1
    48     8    45    1
    49     9    46    1
    50     9    47    1
    51    12    48    1
    52    13    49    1
    53    15    50    1
    54    22    51    1
    55    22    52    1
    56    23    53    1
    57    23    54    1
    58    24    55    1
    59    24    56    1
    60    25    57    1
    61    25    58    1
    62    26    59    1
    63    26    60    1
    64    33    61    1
    65    35    62    1
    66    35    63    1
    67    36    64    1
    68    36    65    1
