@<TRIPOS>MOLECULE
*****
 52 56 0 0 0
SMALL
GASTEIGER

@<TRIPOS>ATOM
      1 O           4.3787   -1.9264   -0.8369 O.2     1  UNL1       -0.2525
      2 C           4.6069   -0.7099   -0.8676 C.2     1  UNL1        0.3042
      3 N           5.3489   -0.2019    0.2093 N.am    1  UNL1       -0.2963
      4 C           5.8124   -1.0654    1.2848 C.3     1  UNL1        0.0247
      5 C           7.1841   -0.7809    1.8064 C.3     1  UNL1       -0.0328
      6 C           6.0296   -0.4833    2.6611 C.3     1  UNL1       -0.0328
      7 N           4.2120    0.2256   -1.8523 N.am    1  UNL1       -0.2662
      8 C           3.4611   -0.0136   -3.0363 C.ar    1  UNL1        0.0832
      9 C           4.1005   -0.3406   -4.2368 C.ar    1  UNL1        0.0443
     10 N           3.1594   -0.5093   -5.1752 N.ar    1  UNL1       -0.2822
     11 N           1.9717   -0.3026   -4.6135 N.ar    1  UNL1       -0.1689
     12 C           2.1252   -0.0014   -3.3211 C.ar    1  UNL1        0.1486
     13 C           1.1146    0.3013   -2.3154 C.ar    1  UNL1        0.1613
     14 N           1.3736    0.5935   -1.0335 N.ar    1  UNL1       -0.2260
     15 C           0.2006    0.8230   -0.3734 C.ar    1  UNL1        0.0895
     16 C          -0.1905    1.1574    0.9202 C.ar    1  UNL1       -0.0338
     17 C          -1.5407    1.3034    1.1884 C.ar    1  UNL1       -0.0514
     18 C          -2.5048    1.1281    0.2162 C.ar    1  UNL1       -0.0008
     19 C          -3.9642    1.2836    0.4972 C.3     1  UNL1       -0.0057
     20 N          -4.5068    0.0086    0.9034 N.4     1  UNL1        0.2417
     21 C          -5.9660    0.1160    0.7921 C.3     1  UNL1       -0.0075
     22 C          -6.5496   -1.2471    0.9709 C.3     1  UNL1        0.0878
     23 O          -6.1249   -1.7788    2.1625 O.3     1  UNL1       -0.3693
     24 C          -5.4254   -0.9031    2.9795 C.3     1  UNL1        0.0878
     25 C          -4.2109   -0.3242    2.2849 C.3     1  UNL1       -0.0075
     26 C          -2.1470    0.7929   -1.0894 C.ar    1  UNL1       -0.0280
     27 C          -0.7847    0.6484   -1.3482 C.ar    1  UNL1        0.0669
     28 N          -0.2179    0.3292   -2.5345 N.ar    1  UNL1       -0.3366
     29 H           5.6175    0.8030    0.3189 H       1  UNL1        0.1505
     30 H           5.5428   -2.1516    1.2028 H       1  UNL1        0.0499
     31 H           7.7397    0.0498    1.3344 H       1  UNL1        0.0284
     32 H           7.8323   -1.6280    2.1146 H       1  UNL1        0.0284
     33 H           5.7818    0.5905    2.8087 H       1  UNL1        0.0284
     34 H           5.8553   -1.0970    3.5520 H       1  UNL1        0.0284
     35 H           4.4601    1.2426   -1.7813 H       1  UNL1        0.1565
     36 H           5.1784   -0.4459   -4.4039 H       1  UNL1        0.0843
     37 H           3.3681   -0.7599   -6.1657 H       1  UNL1        0.1883
     38 H           0.5922    1.2819    1.6355 H       1  UNL1        0.0639
     39 H          -1.8243    1.5614    2.1911 H       1  UNL1        0.0623
     40 H          -4.0403    1.9948    1.3449 H       1  UNL1        0.0867
     41 H          -4.5013    1.6716   -0.3753 H       1  UNL1        0.0867
     42 H          -4.1337   -0.7439    0.2758 H       1  UNL1        0.2038
     43 H          -6.2667    0.8382    1.5945 H       1  UNL1        0.0837
     44 H          -6.1648    0.5452   -0.2193 H       1  UNL1        0.0837
     45 H          -6.2830   -1.8428    0.0885 H       1  UNL1        0.0613
     46 H          -7.6686   -1.1308    1.0673 H       1  UNL1        0.0613
     47 H          -5.0400   -1.4645    3.8490 H       1  UNL1        0.0613
     48 H          -6.0946   -0.1235    3.3847 H       1  UNL1        0.0613
     49 H          -3.4102   -1.0707    2.3427 H       1  UNL1        0.0837
     50 H          -3.9090    0.5536    2.8713 H       1  UNL1        0.0837
     51 H          -2.8873    0.6567   -1.8427 H       1  UNL1        0.0643
     52 H          -0.6906    0.1422   -3.4315 H       1  UNL1        0.1674
@<TRIPOS>UNITY_ATOM_ATTR
20 1
charge 1
@<TRIPOS>BOND
     1     1     2    2
     2     2     3   am
     3     3     4    1
     4     4     5    1
     5     5     6    1
     6     2     7   am
     7     7     8    1
     8     8     9   ar
     9     9    10   ar
    10    10    11   ar
    11    11    12   ar
    12    12    13    1
    13    13    14   ar
    14    14    15   ar
    15    15    16   ar
    16    16    17   ar
    17    17    18   ar
    18    18    19    1
    19    19    20    1
    20    20    21    1
    21    21    22    1
    22    22    23    1
    23    23    24    1
    24    24    25    1
    25    18    26   ar
    26    26    27   ar
    27    27    28   ar
    28     6     4    1
    29    12     8   ar
    30    28    13   ar
    31    27    15   ar
    32    25    20    1
    33     3    29    1
    34     4    30    1
    35     5    31    1
    36     5    32    1
    37     6    33    1
    38     6    34    1
    39     7    35    1
    40     9    36    1
    41    10    37    1
    42    16    38    1
    43    17    39    1
    44    19    40    1
    45    19    41    1
    46    20    42    1
    47    21    43    1
    48    21    44    1
    49    22    45    1
    50    22    46    1
    51    24    47    1
    52    24    48    1
    53    25    49    1
    54    25    50    1
    55    26    51    1
    56    28    52    1
