
     RDKit          3D

 72 76  0  0  0  0  0  0  0  0999 V2000
    0.8866    0.2910   -1.7304 O   0  0  0  0  0  0  0  0  0  0  0  0
    0.6936    0.3213   -0.3431 C   0  0  0  0  0  0  0  0  0  0  0  0
   -0.6564    0.3857   -0.1119 N   0  0  0  0  0  0  0  0  0  0  0  0
   -1.5770    0.4425   -1.2550 C   0  0  2  0  0  0  0  0  0  0  0  0
   -2.7963    1.2326   -0.8406 C   0  0  0  0  0  0  0  0  0  0  0  0
   -2.6169    2.5018   -0.4343 O   0  0  0  0  0  0  0  0  0  0  0  0
   -2.1086    3.3774   -1.3736 C   0  0  0  0  0  0  0  0  0  0  0  0
   -2.0391    4.7537   -0.7918 C   0  0  0  0  0  0  0  0  0  0  0  0
   -0.8945    5.2042   -0.2047 C   0  0  0  0  0  0  0  0  0  0  0  0
   -0.8579    6.4809    0.3347 C   0  0  0  0  0  0  0  0  0  0  0  0
   -1.9709    7.2930    0.2760 C   0  0  0  0  0  0  0  0  0  0  0  0
   -3.1232    6.8543   -0.3103 C   0  0  0  0  0  0  0  0  0  0  0  0
   -3.1510    5.5701   -0.8466 C   0  0  0  0  0  0  0  0  0  0  0  0
   -2.0315   -1.0023   -1.4327 C   0  0  0  0  0  0  0  0  0  0  0  0
   -2.3556   -1.4174   -2.5952 O   0  0  0  0  0  0  0  0  0  0  0  0
   -2.0804   -1.8230   -0.2902 N   0  0  0  0  0  0  0  0  0  0  0  0
   -2.4921   -3.2226   -0.4001 C   0  0  2  0  0  0  0  0  0  0  0  0
   -3.8161   -3.2685   -1.2152 C   0  0  0  0  0  0  0  0  0  0  0  0
   -4.8467   -3.9623   -0.4824 N   0  0  0  0  0  0  0  0  0  0  0  0
   -5.2104   -3.1395    0.6845 C   0  0  0  0  0  0  0  0  0  0  0  0
   -3.9686   -2.9504    1.5195 C   0  0  0  0  0  0  0  0  0  0  0  0
   -2.7870   -3.7672    0.9441 C   0  0  0  0  0  0  0  0  0  0  0  0
   -3.2109   -5.2229    0.8154 C   0  0  0  0  0  0  0  0  0  0  0  0
   -4.4824   -5.2513    0.0089 C   0  0  0  0  0  0  0  0  0  0  0  0
    1.9272    0.2698    0.2498 C   0  0  0  0  0  0  0  0  0  0  0  0
    1.2775    0.9569    1.7031 C   0  0  0  0  0  0  0  0  0  0  0  0
    2.0290    1.1720    2.7262 C   0  0  0  0  0  0  0  0  0  0  0  0
    3.3685    0.9488    2.9251 C   0  0  0  0  0  0  0  0  0  0  0  0
    3.8861    0.3978    1.7569 N   0  0  0  0  0  0  0  0  0  0  0  0
    3.0817    0.2217    0.8054 C   0  0  0  0  0  0  0  0  0  0  0  0
    3.7726   -0.3997   -0.4840 O   0  0  0  0  0  0  0  0  0  0  0  0
    5.0777   -0.5531   -0.3345 C   0  0  0  0  0  0  0  0  0  0  0  0
    5.9137    0.1693   -1.2194 C   0  0  0  0  0  0  0  0  0  0  0  0
    7.2706    0.0753   -1.1411 C   0  0  0  0  0  0  0  0  0  0  0  0
    7.8713   -0.7322   -0.1934 C   0  0  0  0  0  0  0  0  0  0  0  0
    9.3424   -0.8296   -0.1416 C   0  0  0  0  0  0  0  0  0  0  0  0
    9.6999   -1.9637   -0.8623 F   0  0  0  0  0  0  0  0  0  0  0  0
    9.8782    0.2937   -0.7503 F   0  0  0  0  0  0  0  0  0  0  0  0
    9.7857   -0.8746    1.1515 F   0  0  0  0  0  0  0  0  0  0  0  0
    7.0696   -1.4391    0.6710 C   0  0  0  0  0  0  0  0  0  0  0  0
    5.7061   -1.3453    0.5940 C   0  0  0  0  0  0  0  0  0  0  0  0
    4.6935   -2.2818    1.7080 Cl  0  0  0  0  0  0  0  0  0  0  0  0
   -1.0440    0.3812    0.8299 H   0  0  0  0  0  0  0  0  0  0  0  0
   -1.0773    0.7455   -2.1537 H   0  0  0  0  0  0  0  0  0  0  0  0
   -3.3810    0.6670   -0.0628 H   0  0  0  0  0  0  0  0  0  0  0  0
   -3.4835    1.1921   -1.7401 H   0  0  0  0  0  0  0  0  0  0  0  0
   -2.7184    3.3934   -2.2977 H   0  0  0  0  0  0  0  0  0  0  0  0
   -1.0589    3.0566   -1.5861 H   0  0  0  0  0  0  0  0  0  0  0  0
   -0.0161    4.5529   -0.1642 H   0  0  0  0  0  0  0  0  0  0  0  0
    0.0731    6.7769    0.7827 H   0  0  0  0  0  0  0  0  0  0  0  0
   -1.9027    8.2966    0.7092 H   0  0  0  0  0  0  0  0  0  0  0  0
   -3.9940    7.4734   -0.3540 H   0  0  0  0  0  0  0  0  0  0  0  0
   -4.0687    5.2678   -1.2913 H   0  0  0  0  0  0  0  0  0  0  0  0
   -1.8286   -1.4527    0.6462 H   0  0  0  0  0  0  0  0  0  0  0  0
   -1.7475   -3.7611   -1.0178 H   0  0  0  0  0  0  0  0  0  0  0  0
   -3.6606   -3.7264   -2.1835 H   0  0  0  0  0  0  0  0  0  0  0  0
   -4.1316   -2.2210   -1.3421 H   0  0  0  0  0  0  0  0  0  0  0  0
   -5.6440   -2.1942    0.3111 H   0  0  0  0  0  0  0  0  0  0  0  0
   -5.9500   -3.7470    1.2645 H   0  0  0  0  0  0  0  0  0  0  0  0
   -3.6709   -1.8929    1.4258 H   0  0  0  0  0  0  0  0  0  0  0  0
   -4.0959   -3.1479    2.5821 H   0  0  0  0  0  0  0  0  0  0  0  0
   -1.9731   -3.6607    1.6829 H   0  0  0  0  0  0  0  0  0  0  0  0
   -3.3419   -5.6808    1.8210 H   0  0  0  0  0  0  0  0  0  0  0  0
   -2.4205   -5.7566    0.2542 H   0  0  0  0  0  0  0  0  0  0  0  0
   -5.3005   -5.5703    0.7201 H   0  0  0  0  0  0  0  0  0  0  0  0
   -4.5042   -6.0328   -0.7769 H   0  0  0  0  0  0  0  0  0  0  0  0
    0.2907    1.1704    1.5516 H   0  0  0  0  0  0  0  0  0  0  0  0
    1.5785    1.6346    3.6764 H   0  0  0  0  0  0  0  0  0  0  0  0
    3.9703    1.1160    3.7364 H   0  0  0  0  0  0  0  0  0  0  0  0
    5.4521    0.7930   -1.9517 H   0  0  0  0  0  0  0  0  0  0  0  0
    7.9368    0.6272   -1.8151 H   0  0  0  0  0  0  0  0  0  0  0  0
    7.5541   -2.0680    1.4154 H   0  0  0  0  0  0  0  0  0  0  0  0
  1  2  2  0
  2  3  1  0
  3  4  1  0
  4  5  1  0
  5  6  1  0
  6  7  1  0
  7  8  1  0
  8  9  2  0
  9 10  1  0
 10 11  2  0
 11 12  1  0
 12 13  2  0
  4 14  1  0
 14 15  2  0
 14 16  1  0
 16 17  1  0
 17 18  1  0
 18 19  1  0
 19 20  1  0
 20 21  1  0
 21 22  1  0
 22 23  1  0
 23 24  1  0
  2 25  1  0
 25 26  2  0
 26 27  1  0
 27 28  2  0
 28 29  1  0
 29 30  2  0
 30 31  1  0
 31 32  1  0
 32 33  2  0
 33 34  1  0
 34 35  2  0
 35 36  1  0
 36 37  1  0
 36 38  1  0
 36 39  1  0
 35 40  1  0
 40 41  2  0
 41 42  1  0
 13  8  1  0
 22 17  1  0
 30 25  1  0
 41 32  1  0
 24 19  1  0
  3 43  1  0
  4 44  1  6
  5 45  1  0
  5 46  1  0
  7 47  1  0
  7 48  1  0
  9 49  1  0
 10 50  1  0
 11 51  1  0
 12 52  1  0
 13 53  1  0
 16 54  1  0
 17 55  1  6
 18 56  1  0
 18 57  1  0
 20 58  1  0
 20 59  1  0
 21 60  1  0
 21 61  1  0
 22 62  1  0
 23 63  1  0
 23 64  1  0
 24 65  1  0
 24 66  1  0
 26 67  1  0
 27 68  1  0
 28 69  1  0
 33 70  1  0
 34 71  1  0
 40 72  1  0
M  END
$$$$
