@<TRIPOS>MOLECULE
*****
 72 76 0 0 0
SMALL
GASTEIGER

@<TRIPOS>ATOM
      1 O           0.8866    0.2910   -1.7304 O.2     1  UNL1       -0.2700
      2 C           0.6936    0.3213   -0.3431 C.2     1  UNL1        0.2499
      3 N          -0.6564    0.3857   -0.1119 N.am    1  UNL1       -0.2979
      4 C          -1.5770    0.4425   -1.2550 C.3     1  UNL1        0.1231
      5 C          -2.7963    1.2326   -0.8406 C.3     1  UNL1        0.0750
      6 O          -2.6169    2.5018   -0.4343 O.3     1  UNL1       -0.3729
      7 C          -2.1086    3.3774   -1.3736 C.3     1  UNL1        0.0728
      8 C          -2.0391    4.7537   -0.7918 C.ar    1  UNL1       -0.0219
      9 C          -0.8945    5.2042   -0.2047 C.ar    1  UNL1       -0.0564
     10 C          -0.8579    6.4809    0.3347 C.ar    1  UNL1       -0.0614
     11 C          -1.9709    7.2930    0.2760 C.ar    1  UNL1       -0.0617
     12 C          -3.1232    6.8543   -0.3103 C.ar    1  UNL1       -0.0614
     13 C          -3.1510    5.5701   -0.8466 C.ar    1  UNL1       -0.0564
     14 C          -2.0315   -1.0023   -1.4327 C.2     1  UNL1        0.2359
     15 O          -2.3556   -1.4174   -2.5952 O.2     1  UNL1       -0.2737
     16 N          -2.0804   -1.8230   -0.2902 N.am    1  UNL1       -0.3094
     17 C          -2.4921   -3.2226   -0.4001 C.3     1  UNL1        0.0388
     18 C          -3.8161   -3.2685   -1.2152 C.3     1  UNL1        0.0176
     19 N          -4.8467   -3.9623   -0.4824 N.3     1  UNL1       -0.3005
     20 C          -5.2104   -3.1395    0.6845 C.3     1  UNL1       -0.0007
     21 C          -3.9686   -2.9504    1.5195 C.3     1  UNL1       -0.0356
     22 C          -2.7870   -3.7672    0.9441 C.3     1  UNL1       -0.0191
     23 C          -3.2109   -5.2229    0.8154 C.3     1  UNL1       -0.0356
     24 C          -4.4824   -5.2513    0.0089 C.3     1  UNL1       -0.0007
     25 C           1.9272    0.2698    0.2498 C.ar    1  UNL1        0.0985
     26 C           1.2775    0.9569    1.7031 C.ar    1  UNL1       -0.0430
     27 C           2.0290    1.1720    2.7262 C.ar    1  UNL1       -0.0426
     28 C           3.3685    0.9488    2.9251 C.ar    1  UNL1        0.0314
     29 N           3.8861    0.3978    1.7569 N.ar    1  UNL1       -0.2203
     30 C           3.0817    0.2217    0.8054 C.ar    1  UNL1        0.2327
     31 O           3.7726   -0.3997   -0.4840 O.3     1  UNL1       -0.4358
     32 C           5.0777   -0.5531   -0.3345 C.ar    1  UNL1        0.1486
     33 C           5.9137    0.1693   -1.2194 C.ar    1  UNL1       -0.0173
     34 C           7.2706    0.0753   -1.1411 C.ar    1  UNL1       -0.0466
     35 C           7.8713   -0.7322   -0.1934 C.ar    1  UNL1        0.0564
     36 C           9.3424   -0.8296   -0.1416 C.3     1  UNL1        0.4175
     37 F           9.6999   -1.9637   -0.8623 F       1  UNL1       -0.1659
     38 F           9.8782    0.2937   -0.7503 F       1  UNL1       -0.1659
     39 F           9.7857   -0.8746    1.1515 F       1  UNL1       -0.1659
     40 C           7.0696   -1.4391    0.6710 C.ar    1  UNL1       -0.0282
     41 C           5.7061   -1.3453    0.5940 C.ar    1  UNL1        0.0837
     42 CL          4.6935   -2.2818    1.7080 Cl      1  UNL1       -0.0797
     43 H          -1.0440    0.3812    0.8299 H       1  UNL1        0.1499
     44 H          -1.0773    0.7455   -2.1537 H       1  UNL1        0.0618
     45 H          -3.3810    0.6670   -0.0628 H       1  UNL1        0.0583
     46 H          -3.4835    1.1921   -1.7401 H       1  UNL1        0.0583
     47 H          -2.7184    3.3934   -2.2977 H       1  UNL1        0.0610
     48 H          -1.0589    3.0566   -1.5861 H       1  UNL1        0.0610
     49 H          -0.0161    4.5529   -0.1642 H       1  UNL1        0.0621
     50 H           0.0731    6.7769    0.7827 H       1  UNL1        0.0618
     51 H          -1.9027    8.2966    0.7092 H       1  UNL1        0.0618
     52 H          -3.9940    7.4734   -0.3540 H       1  UNL1        0.0618
     53 H          -4.0687    5.2678   -1.2913 H       1  UNL1        0.0621
     54 H          -1.8286   -1.4527    0.6462 H       1  UNL1        0.1491
     55 H          -1.7475   -3.7611   -1.0178 H       1  UNL1        0.0513
     56 H          -3.6606   -3.7264   -2.1835 H       1  UNL1        0.0445
     57 H          -4.1316   -2.2210   -1.3421 H       1  UNL1        0.0445
     58 H          -5.6440   -2.1942    0.3111 H       1  UNL1        0.0427
     59 H          -5.9500   -3.7470    1.2645 H       1  UNL1        0.0427
     60 H          -3.6709   -1.8929    1.4258 H       1  UNL1        0.0281
     61 H          -4.0959   -3.1479    2.5821 H       1  UNL1        0.0281
     62 H          -1.9731   -3.6607    1.6829 H       1  UNL1        0.0320
     63 H          -3.3419   -5.6808    1.8210 H       1  UNL1        0.0281
     64 H          -2.4205   -5.7566    0.2542 H       1  UNL1        0.0281
     65 H          -5.3005   -5.5703    0.7201 H       1  UNL1        0.0427
     66 H          -4.5042   -6.0328   -0.7769 H       1  UNL1        0.0427
     67 H           0.2907    1.1704    1.5516 H       1  UNL1        0.0627
     68 H           1.5785    1.6346    3.6764 H       1  UNL1        0.0633
     69 H           3.9703    1.1160    3.7364 H       1  UNL1        0.0831
     70 H           5.4521    0.7930   -1.9517 H       1  UNL1        0.0655
     71 H           7.9368    0.6272   -1.8151 H       1  UNL1        0.0624
     72 H           7.5541   -2.0680    1.4154 H       1  UNL1        0.0639
@<TRIPOS>BOND
     1     1     2    2
     2     2     3   am
     3     3     4    1
     4     4     5    1
     5     5     6    1
     6     6     7    1
     7     7     8    1
     8     8     9   ar
     9     9    10   ar
    10    10    11   ar
    11    11    12   ar
    12    12    13   ar
    13     4    14    1
    14    14    15    2
    15    14    16   am
    16    16    17    1
    17    17    18    1
    18    18    19    1
    19    19    20    1
    20    20    21    1
    21    21    22    1
    22    22    23    1
    23    23    24    1
    24     2    25    1
    25    25    26   ar
    26    26    27   ar
    27    27    28   ar
    28    28    29   ar
    29    29    30   ar
    30    30    31    1
    31    31    32    1
    32    32    33   ar
    33    33    34   ar
    34    34    35   ar
    35    35    36    1
    36    36    37    1
    37    36    38    1
    38    36    39    1
    39    35    40   ar
    40    40    41   ar
    41    41    42    1
    42    13     8   ar
    43    22    17    1
    44    30    25   ar
    45    41    32   ar
    46    24    19    1
    47     3    43    1
    48     4    44    1
    49     5    45    1
    50     5    46    1
    51     7    47    1
    52     7    48    1
    53     9    49    1
    54    10    50    1
    55    11    51    1
    56    12    52    1
    57    13    53    1
    58    16    54    1
    59    17    55    1
    60    18    56    1
    61    18    57    1
    62    20    58    1
    63    20    59    1
    64    21    60    1
    65    21    61    1
    66    22    62    1
    67    23    63    1
    68    23    64    1
    69    24    65    1
    70    24    66    1
    71    26    67    1
    72    27    68    1
    73    28    69    1
    74    33    70    1
    75    34    71    1
    76    40    72    1
