@<TRIPOS>MOLECULE
*****
 53 57 0 0 0
SMALL
GASTEIGER

@<TRIPOS>ATOM
      1 C           1.7017   -3.2089   -0.5876 C.3     1  UNL1        0.0789
      2 O           1.0808   -2.0253   -1.0429 O.3     1  UNL1       -0.4930
      3 C           1.7294   -0.7906   -0.8324 C.ar    1  UNL1        0.1446
      4 C           2.9594   -0.7650   -0.1848 C.ar    1  UNL1       -0.0074
      5 C           3.6441    0.4090    0.0513 C.ar    1  UNL1        0.0210
      6 C           4.9218    0.3817    0.7299 C.ar    1  UNL1       -0.0123
      7 C           5.8977   -0.5581    0.3809 C.ar    1  UNL1       -0.0538
      8 C           7.1199   -0.5960    1.0189 C.ar    1  UNL1       -0.0585
      9 C           7.4085    0.3090    2.0321 C.ar    1  UNL1       -0.0264
     10 C           6.4475    1.2428    2.3836 C.ar    1  UNL1        0.1240
     11 F           6.7192    2.1252    3.3662 F       1  UNL1       -0.2055
     12 C           5.2301    1.2695    1.7377 C.ar    1  UNL1       -0.0186
     13 C           3.0418    1.5689   -0.3916 C.ar    1  UNL1        0.1333
     14 F           3.6479    2.7624   -0.1992 F       1  UNL1       -0.2048
     15 C           1.8236    1.5659   -1.0355 C.ar    1  UNL1        0.0017
     16 C           1.1510    0.3853   -1.2645 C.ar    1  UNL1        0.0943
     17 N          -0.1013    0.3154   -1.9191 N.ar    1  UNL1       -0.2733
     18 C          -0.1695   -0.0951   -3.2061 C.ar    1  UNL1        0.2563
     19 O           0.9098   -0.3993   -3.7628 O.2     1  UNL1       -0.2673
     20 C          -1.3983   -0.1590   -3.8343 C.ar    1  UNL1        0.0039
     21 C          -2.5239    0.2030   -3.1158 C.ar    1  UNL1       -0.0474
     22 C          -2.4533    0.6222   -1.8015 C.ar    1  UNL1        0.0009
     23 C          -3.6063    0.9816   -1.1010 C.ar    1  UNL1       -0.0259
     24 C          -3.5430    1.3998    0.2088 C.ar    1  UNL1        0.1092
     25 S          -4.9580    1.8518    1.1346 S.O2    1  UNL1        0.0736
     26 O          -4.6560    3.0851    1.9707 O.2     1  UNL1       -0.1499
     27 O          -6.0653    2.3252    0.1934 O.2     1  UNL1       -0.1499
     28 N          -5.5498    0.5854    2.1289 N.pl3   1  UNL1       -0.1968
     29 C          -6.0300   -0.6598    1.6808 C.ar    1  UNL1        0.1805
     30 C          -6.1568   -1.1586    0.4175 C.ar    1  UNL1        0.0203
     31 C          -6.6860   -2.4228    0.5401 C.ar    1  UNL1        0.1261
     32 O          -6.8477   -2.6221    1.8104 O.2     1  UNL1       -0.3611
     33 N          -6.4793   -1.6189    2.5365 N.ar    1  UNL1       -0.0620
     34 C          -2.2725    1.4414    0.7825 C.ar    1  UNL1       -0.0331
     35 C          -1.1352    1.0874    0.0925 C.ar    1  UNL1       -0.0353
     36 C          -1.2070    0.6696   -1.2180 C.ar    1  UNL1        0.0574
     37 H           2.6518   -3.4198   -1.1309 H       1  UNL1        0.0660
     38 H           1.9248   -3.0807    0.4920 H       1  UNL1        0.0660
     39 H           1.0059   -4.0633   -0.6904 H       1  UNL1        0.0660
     40 H           3.3941   -1.7091    0.1464 H       1  UNL1        0.0662
     41 H           5.6695   -1.2664   -0.4134 H       1  UNL1        0.0624
     42 H           7.8893   -1.3238    0.7561 H       1  UNL1        0.0619
     43 H           8.3558    0.3026    2.5482 H       1  UNL1        0.0646
     44 H           4.4477    1.9981    1.9940 H       1  UNL1        0.0652
     45 H           1.3530    2.4975   -1.3843 H       1  UNL1        0.0668
     46 H          -1.4550   -0.4885   -4.8677 H       1  UNL1        0.0672
     47 H          -3.5053    0.1683   -3.5674 H       1  UNL1        0.0626
     48 H          -4.5620    0.9360   -1.5984 H       1  UNL1        0.0644
     49 H          -5.5395    0.7905    3.1766 H       1  UNL1        0.1753
     50 H          -5.9002   -0.6697   -0.4983 H       1  UNL1        0.0685
     51 H          -6.9096   -3.0879   -0.2697 H       1  UNL1        0.1058
     52 H          -2.2472    1.7765    1.8223 H       1  UNL1        0.0638
     53 H          -0.1682    1.1321    0.5691 H       1  UNL1        0.0639
@<TRIPOS>BOND
     1     1     2    1
     2     2     3    1
     3     3     4   ar
     4     4     5   ar
     5     5     6    1
     6     6     7   ar
     7     7     8   ar
     8     8     9   ar
     9     9    10   ar
    10    10    11    1
    11    10    12   ar
    12     5    13   ar
    13    13    14    1
    14    13    15   ar
    15    15    16   ar
    16    16    17    1
    17    17    18   ar
    18    18    19    2
    19    18    20   ar
    20    20    21   ar
    21    21    22   ar
    22    22    23   ar
    23    23    24   ar
    24    24    25    1
    25    25    26    2
    26    25    27    2
    27    25    28    1
    28    28    29    1
    29    29    30   ar
    30    30    31   ar
    31    31    32   ar
    32    32    33   ar
    33    24    34   ar
    34    34    35   ar
    35    35    36   ar
    36    16     3   ar
    37    36    17   ar
    38    12     6   ar
    39    36    22   ar
    40    33    29   ar
    41     1    37    1
    42     1    38    1
    43     1    39    1
    44     4    40    1
    45     7    41    1
    46     8    42    1
    47     9    43    1
    48    12    44    1
    49    15    45    1
    50    20    46    1
    51    21    47    1
    52    23    48    1
    53    28    49    1
    54    30    50    1
    55    31    51    1
    56    34    52    1
    57    35    53    1
