
     RDKit          3D

 53 57  0  0  0  0  0  0  0  0999 V2000
    1.7017   -3.2089   -0.5876 C   0  0  0  0  0  0  0  0  0  0  0  0
    1.0808   -2.0253   -1.0429 O   0  0  0  0  0  0  0  0  0  0  0  0
    1.7294   -0.7906   -0.8324 C   0  0  0  0  0  0  0  0  0  0  0  0
    2.9594   -0.7650   -0.1848 C   0  0  0  0  0  0  0  0  0  0  0  0
    3.6441    0.4090    0.0513 C   0  0  0  0  0  0  0  0  0  0  0  0
    4.9218    0.3817    0.7299 C   0  0  0  0  0  0  0  0  0  0  0  0
    5.8977   -0.5581    0.3809 C   0  0  0  0  0  0  0  0  0  0  0  0
    7.1199   -0.5960    1.0189 C   0  0  0  0  0  0  0  0  0  0  0  0
    7.4085    0.3090    2.0321 C   0  0  0  0  0  0  0  0  0  0  0  0
    6.4475    1.2428    2.3836 C   0  0  0  0  0  0  0  0  0  0  0  0
    6.7192    2.1252    3.3662 F   0  0  0  0  0  0  0  0  0  0  0  0
    5.2301    1.2695    1.7377 C   0  0  0  0  0  0  0  0  0  0  0  0
    3.0418    1.5689   -0.3916 C   0  0  0  0  0  0  0  0  0  0  0  0
    3.6479    2.7624   -0.1992 F   0  0  0  0  0  0  0  0  0  0  0  0
    1.8236    1.5659   -1.0355 C   0  0  0  0  0  0  0  0  0  0  0  0
    1.1510    0.3853   -1.2645 C   0  0  0  0  0  0  0  0  0  0  0  0
   -0.1013    0.3154   -1.9191 N   0  0  0  0  0  0  0  0  0  0  0  0
   -0.1695   -0.0951   -3.2061 C   0  0  0  0  0  0  0  0  0  0  0  0
    0.9098   -0.3993   -3.7628 O   0  0  0  0  0  0  0  0  0  0  0  0
   -1.3983   -0.1590   -3.8343 C   0  0  0  0  0  0  0  0  0  0  0  0
   -2.5239    0.2030   -3.1158 C   0  0  0  0  0  0  0  0  0  0  0  0
   -2.4533    0.6222   -1.8015 C   0  0  0  0  0  0  0  0  0  0  0  0
   -3.6063    0.9816   -1.1010 C   0  0  0  0  0  0  0  0  0  0  0  0
   -3.5430    1.3998    0.2088 C   0  0  0  0  0  0  0  0  0  0  0  0
   -4.9580    1.8518    1.1346 S   0  0  0  0  0  6  0  0  0  0  0  0
   -4.6560    3.0851    1.9707 O   0  0  0  0  0  0  0  0  0  0  0  0
   -6.0653    2.3252    0.1934 O   0  0  0  0  0  0  0  0  0  0  0  0
   -5.5498    0.5854    2.1289 N   0  0  0  0  0  0  0  0  0  0  0  0
   -6.0300   -0.6598    1.6808 C   0  0  0  0  0  0  0  0  0  0  0  0
   -6.1568   -1.1586    0.4175 C   0  0  0  0  0  0  0  0  0  0  0  0
   -6.6860   -2.4228    0.5401 C   0  0  0  0  0  0  0  0  0  0  0  0
   -6.8477   -2.6221    1.8104 O   0  0  0  0  0  0  0  0  0  0  0  0
   -6.4793   -1.6189    2.5365 N   0  0  0  0  0  0  0  0  0  0  0  0
   -2.2725    1.4414    0.7825 C   0  0  0  0  0  0  0  0  0  0  0  0
   -1.1352    1.0874    0.0925 C   0  0  0  0  0  0  0  0  0  0  0  0
   -1.2070    0.6696   -1.2180 C   0  0  0  0  0  0  0  0  0  0  0  0
    2.6518   -3.4198   -1.1309 H   0  0  0  0  0  0  0  0  0  0  0  0
    1.9248   -3.0807    0.4920 H   0  0  0  0  0  0  0  0  0  0  0  0
    1.0059   -4.0633   -0.6904 H   0  0  0  0  0  0  0  0  0  0  0  0
    3.3941   -1.7091    0.1464 H   0  0  0  0  0  0  0  0  0  0  0  0
    5.6695   -1.2664   -0.4134 H   0  0  0  0  0  0  0  0  0  0  0  0
    7.8893   -1.3238    0.7561 H   0  0  0  0  0  0  0  0  0  0  0  0
    8.3558    0.3026    2.5482 H   0  0  0  0  0  0  0  0  0  0  0  0
    4.4477    1.9981    1.9940 H   0  0  0  0  0  0  0  0  0  0  0  0
    1.3530    2.4975   -1.3843 H   0  0  0  0  0  0  0  0  0  0  0  0
   -1.4550   -0.4885   -4.8677 H   0  0  0  0  0  0  0  0  0  0  0  0
   -3.5053    0.1683   -3.5674 H   0  0  0  0  0  0  0  0  0  0  0  0
   -4.5620    0.9360   -1.5984 H   0  0  0  0  0  0  0  0  0  0  0  0
   -5.5395    0.7905    3.1766 H   0  0  0  0  0  0  0  0  0  0  0  0
   -5.9002   -0.6697   -0.4983 H   0  0  0  0  0  0  0  0  0  0  0  0
   -6.9096   -3.0879   -0.2697 H   0  0  0  0  0  0  0  0  0  0  0  0
   -2.2472    1.7765    1.8223 H   0  0  0  0  0  0  0  0  0  0  0  0
   -0.1682    1.1321    0.5691 H   0  0  0  0  0  0  0  0  0  0  0  0
  1  2  1  0
  2  3  1  0
  3  4  2  0
  4  5  1  0
  5  6  1  0
  6  7  2  0
  7  8  1  0
  8  9  2  0
  9 10  1  0
 10 11  1  0
 10 12  2  0
  5 13  2  0
 13 14  1  0
 13 15  1  0
 15 16  2  0
 16 17  1  0
 17 18  1  0
 18 19  2  0
 18 20  1  0
 20 21  2  0
 21 22  1  0
 22 23  2  0
 23 24  1  0
 24 25  1  0
 25 26  2  0
 25 27  2  0
 25 28  1  0
 28 29  1  0
 29 30  1  0
 30 31  2  0
 31 32  1  0
 32 33  1  0
 24 34  2  0
 34 35  1  0
 35 36  2  0
 16  3  1  0
 36 17  1  0
 12  6  1  0
 36 22  1  0
 33 29  2  0
  1 37  1  0
  1 38  1  0
  1 39  1  0
  4 40  1  0
  7 41  1  0
  8 42  1  0
  9 43  1  0
 12 44  1  0
 15 45  1  0
 20 46  1  0
 21 47  1  0
 23 48  1  0
 28 49  1  0
 30 50  1  0
 31 51  1  0
 34 52  1  0
 35 53  1  0
M  END
$$$$
