@<TRIPOS>MOLECULE
*****
 48 51 0 0 0
SMALL
GASTEIGER

@<TRIPOS>ATOM
      1 C           3.0314   -2.1481    3.1894 C.3     1  UNL1       -0.0493
      2 C           3.0412   -2.0807    1.6678 C.3     1  UNL1        0.0126
      3 N           1.8295   -1.3967    1.2468 N.am    1  UNL1       -0.2918
      4 C           1.9207    0.0030    0.9855 C.3     1  UNL1        0.0402
      5 C           2.7487    0.1726   -0.2530 C.ar    1  UNL1       -0.0266
      6 C           2.3853   -0.3027   -1.4839 C.ar    1  UNL1       -0.0568
      7 C           3.1591   -0.0472   -2.6275 C.ar    1  UNL1       -0.0580
      8 C           4.3112    0.6883   -2.5579 C.ar    1  UNL1       -0.0199
      9 C           4.7028    1.1835   -1.3139 C.ar    1  UNL1        0.1204
     10 O           5.8729    1.9315   -1.2674 O.3     1  UNL1       -0.4951
     11 C           6.3987    2.5121   -0.0890 C.3     1  UNL1        0.0788
     12 C           3.9366    0.9250   -0.2127 C.ar    1  UNL1       -0.0153
     13 C           0.6832   -2.1685    1.0345 C.2     1  UNL1        0.2721
     14 O           0.7496   -3.4314    1.1486 O.2     1  UNL1       -0.2677
     15 C          -0.6475   -1.6578    0.6889 C.ar    1  UNL1        0.1641
     16 N          -1.7454   -1.9305    0.9167 N.ar    1  UNL1       -0.2344
     17 C          -2.8638   -1.3150    0.5325 C.ar    1  UNL1        0.0791
     18 C          -4.1904   -1.6654    0.8323 C.ar    1  UNL1       -0.0346
     19 C          -5.1973   -0.8884    0.3408 C.ar    1  UNL1       -0.0519
     20 C          -5.0213    0.2381   -0.4437 C.ar    1  UNL1       -0.0138
     21 C          -6.1522    1.0259   -0.9298 C.ar    1  UNL1        0.0193
     22 C          -7.3953    0.5272   -1.2514 C.ar    1  UNL1        0.0568
     23 N          -8.1268    1.5902   -1.6449 N.ar    1  UNL1       -0.1817
     24 N          -7.4275    2.6916   -1.5873 N.ar    1  UNL1       -0.2841
     25 C          -6.2152    2.3882   -1.1556 C.ar    1  UNL1        0.0300
     26 C          -3.7259    0.5911   -0.7455 C.ar    1  UNL1       -0.0381
     27 C          -2.6696   -0.2458   -0.2146 C.ar    1  UNL1        0.0402
     28 S          -0.9014   -0.1195   -0.3670 S.2     1  UNL1       -0.0627
     29 H           3.8544   -1.5611    3.6067 H       1  UNL1        0.0245
     30 H           2.0777   -1.7470    3.5880 H       1  UNL1        0.0245
     31 H           3.0779   -3.1971    3.5515 H       1  UNL1        0.0245
     32 H           3.9424   -1.5002    1.3231 H       1  UNL1        0.0462
     33 H           3.0389   -3.1165    1.2950 H       1  UNL1        0.0462
     34 H           0.9933    0.5710    0.9503 H       1  UNL1        0.0514
     35 H           2.5325    0.5161    1.8044 H       1  UNL1        0.0514
     36 H           1.5012   -0.9111   -1.5936 H       1  UNL1        0.0621
     37 H           2.8201   -0.4505   -3.5723 H       1  UNL1        0.0619
     38 H           4.9275    0.8997   -3.4176 H       1  UNL1        0.0654
     39 H           5.5136    2.9129    0.4852 H       1  UNL1        0.0660
     40 H           6.9961    3.4153   -0.3691 H       1  UNL1        0.0660
     41 H           6.9536    1.7851    0.5096 H       1  UNL1        0.0660
     42 H           4.2482    1.3139    0.7605 H       1  UNL1        0.0657
     43 H          -4.4636   -2.5211    1.4340 H       1  UNL1        0.0639
     44 H          -6.2410   -1.1432    0.5615 H       1  UNL1        0.0624
     45 H          -7.7601   -0.4879   -1.2141 H       1  UNL1        0.0854
     46 H          -7.7114    3.6881   -1.8297 H       1  UNL1        0.1882
     47 H          -5.3408    3.0349   -0.9765 H       1  UNL1        0.0830
     48 H          -3.4519    1.4283   -1.3360 H       1  UNL1        0.0635
@<TRIPOS>BOND
     1     1     2    1
     2     2     3    1
     3     3     4    1
     4     4     5    1
     5     5     6   ar
     6     6     7   ar
     7     7     8   ar
     8     8     9   ar
     9     9    10    1
    10    10    11    1
    11     9    12   ar
    12     3    13   am
    13    13    14    2
    14    13    15    1
    15    15    16   ar
    16    16    17   ar
    17    17    18   ar
    18    18    19   ar
    19    19    20   ar
    20    20    21    1
    21    21    22   ar
    22    22    23   ar
    23    23    24   ar
    24    24    25   ar
    25    20    26   ar
    26    26    27   ar
    27    27    28   ar
    28    12     5   ar
    29    28    15   ar
    30    27    17   ar
    31    25    21   ar
    32     1    29    1
    33     1    30    1
    34     1    31    1
    35     2    32    1
    36     2    33    1
    37     4    34    1
    38     4    35    1
    39     6    36    1
    40     7    37    1
    41     8    38    1
    42    11    39    1
    43    11    40    1
    44    11    41    1
    45    12    42    1
    46    18    43    1
    47    19    44    1
    48    22    45    1
    49    24    46    1
    50    25    47    1
    51    26    48    1
