@<TRIPOS>MOLECULE
*****
 55 58 0 0 0
SMALL
GASTEIGER

@<TRIPOS>ATOM
      1 C          -2.8369   -4.9730   -0.2901 C.3     1  UNL1        0.0124
      2 C          -3.4260   -3.8344   -1.0684 C.2     1  UNL1        0.2128
      3 O          -4.3309   -4.1044   -1.8916 O.2     1  UNL1       -0.2759
      4 N          -2.9438   -2.5215   -0.8452 N.am    1  UNL1       -0.2968
      5 C          -3.5152   -1.4295   -1.5979 C.3     1  UNL1        0.0204
      6 C          -4.1324   -0.4857   -0.5809 C.3     1  UNL1        0.0055
      7 C          -3.0497   -0.0464    0.3296 C.ar    1  UNL1        0.0473
      8 C          -2.0067   -0.8608    0.6565 C.ar    1  UNL1        0.0324
      9 C          -1.1675   -0.1736    1.5163 C.ar    1  UNL1        0.1498
     10 N           0.0329   -0.6100    2.1145 N.pl3   1  UNL1       -0.2978
     11 C           1.3117   -0.4242    1.5104 C.ar    1  UNL1        0.0325
     12 C           2.4748   -0.8606    2.1074 C.ar    1  UNL1       -0.0399
     13 C           3.7170   -0.6822    1.5265 C.ar    1  UNL1       -0.0522
     14 C           3.8425   -0.0500    0.3068 C.ar    1  UNL1       -0.0148
     15 C           5.1352    0.1587   -0.3402 C.ar    1  UNL1        0.0196
     16 C           5.4186    0.2080   -1.6987 C.ar    1  UNL1        0.0571
     17 N           6.7381    0.4196   -1.8216 N.ar    1  UNL1       -0.1793
     18 N           7.3225    0.5097   -0.6405 N.ar    1  UNL1       -0.2739
     19 C           8.7527    0.7380   -0.4006 C.3     1  UNL1        0.0302
     20 C           6.3529    0.3519    0.2788 C.ar    1  UNL1        0.0329
     21 C           2.6764    0.3858   -0.2883 C.ar    1  UNL1       -0.0522
     22 C           1.4364    0.2081    0.2908 C.ar    1  UNL1       -0.0399
     23 N          -1.7561    1.0484    1.6708 N.ar    1  UNL1       -0.1554
     24 N          -2.8669    1.1202    0.9689 N.ar    1  UNL1       -0.2657
     25 C          -3.7416    2.2479    0.8924 C.3     1  UNL1        0.0501
     26 C          -3.3090    3.1520   -0.2644 C.3     1  UNL1        0.0433
     27 C          -4.2009    4.3169   -0.3551 C.2     1  UNL1        0.2122
     28 N          -4.0046    5.3015   -1.3533 N.am    1  UNL1       -0.3293
     29 O          -5.1392    4.4405    0.4536 O.2     1  UNL1       -0.2760
     30 C          -1.8987   -2.2446    0.1128 C.3     1  UNL1        0.0447
     31 H          -1.7859   -4.7717   -0.0027 H       1  UNL1        0.0323
     32 H          -2.9469   -5.8956   -0.8676 H       1  UNL1        0.0323
     33 H          -3.4149   -5.0474    0.6585 H       1  UNL1        0.0323
     34 H          -2.7615   -0.8691   -2.1624 H       1  UNL1        0.0468
     35 H          -4.3169   -1.7716   -2.2767 H       1  UNL1        0.0468
     36 H          -4.8900   -1.0084    0.0497 H       1  UNL1        0.0343
     37 H          -4.6391    0.3652   -1.0758 H       1  UNL1        0.0343
     38 H          -0.0222   -1.0893    3.0393 H       1  UNL1        0.1536
     39 H           2.3895   -1.3624    3.0727 H       1  UNL1        0.0636
     40 H           4.6374   -1.0277    1.9993 H       1  UNL1        0.0624
     41 H           4.6964    0.0947   -2.4846 H       1  UNL1        0.0854
     42 H           9.3313   -0.1038   -0.8075 H       1  UNL1        0.0473
     43 H           8.9853    1.7046   -0.9119 H       1  UNL1        0.0473
     44 H           8.8775    0.9091    0.6758 H       1  UNL1        0.0473
     45 H           6.5340    0.3777    1.3404 H       1  UNL1        0.0832
     46 H           2.7748    0.8888   -1.2586 H       1  UNL1        0.0624
     47 H           0.5178    0.5629   -0.1995 H       1  UNL1        0.0636
     48 H          -3.7733    2.8301    1.8357 H       1  UNL1        0.0513
     49 H          -4.8088    1.9520    0.6961 H       1  UNL1        0.0513
     50 H          -3.3431    2.5678   -1.2062 H       1  UNL1        0.0376
     51 H          -2.2575    3.4635   -0.1276 H       1  UNL1        0.0376
     52 H          -4.7838    5.9223   -1.6263 H       1  UNL1        0.1449
     53 H          -3.0646    5.3774   -1.7952 H       1  UNL1        0.1449
     54 H          -0.9077   -2.4039   -0.4016 H       1  UNL1        0.0515
     55 H          -1.9139   -2.9712    0.9547 H       1  UNL1        0.0515
@<TRIPOS>BOND
     1     1     2    1
     2     2     3    2
     3     2     4   am
     4     4     5    1
     5     5     6    1
     6     6     7    1
     7     7     8   ar
     8     8     9   ar
     9     9    10    1
    10    10    11    1
    11    11    12   ar
    12    12    13   ar
    13    13    14   ar
    14    14    15    1
    15    15    16   ar
    16    16    17   ar
    17    17    18   ar
    18    18    19    1
    19    18    20   ar
    20    14    21   ar
    21    21    22   ar
    22     9    23   ar
    23    23    24   ar
    24    24    25    1
    25    25    26    1
    26    26    27    1
    27    27    28   am
    28    27    29    2
    29     8    30    1
    30    30     4    1
    31    24     7   ar
    32    22    11   ar
    33    20    15   ar
    34     1    31    1
    35     1    32    1
    36     1    33    1
    37     5    34    1
    38     5    35    1
    39     6    36    1
    40     6    37    1
    41    10    38    1
    42    12    39    1
    43    13    40    1
    44    16    41    1
    45    19    42    1
    46    19    43    1
    47    19    44    1
    48    20    45    1
    49    21    46    1
    50    22    47    1
    51    25    48    1
    52    25    49    1
    53    26    50    1
    54    26    51    1
    55    28    52    1
    56    28    53    1
    57    30    54    1
    58    30    55    1
