
     RDKit          3D

 48 51  0  0  0  0  0  0  0  0999 V2000
   -4.2238   -1.1756    2.8979 O   0  0  0  0  0  0  0  0  0  0  0  0
   -4.8159   -0.3572    2.1195 C   0  0  0  0  0  0  0  0  0  0  0  0
   -5.9983    0.2247    2.6406 N   0  0  0  0  0  0  0  0  0  0  0  0
   -6.4488   -0.0905    3.8984 O   0  0  0  0  0  0  0  0  0  0  0  0
   -4.2880   -0.0630    0.7940 C   0  0  0  0  0  0  0  0  0  0  0  0
   -4.8828    0.8091   -0.0866 C   0  0  0  0  0  0  0  0  0  0  0  0
   -4.3375    1.0592   -1.3495 C   0  0  0  0  0  0  0  0  0  0  0  0
   -3.1772    0.4317   -1.7499 C   0  0  0  0  0  0  0  0  0  0  0  0
   -2.5807   -0.4432   -0.8665 C   0  0  0  0  0  0  0  0  0  0  0  0
   -3.1276   -0.6923    0.3970 C   0  0  0  0  0  0  0  0  0  0  0  0
   -1.3402   -1.1408   -1.2419 C   0  0  0  0  0  0  0  0  0  0  0  0
   -0.6655   -0.4994   -2.3269 N   0  0  0  0  0  0  0  0  0  0  0  0
   -0.0337    0.7372   -1.9685 C   0  0  0  0  0  0  0  0  0  0  0  0
    0.9931    0.5661   -0.9092 C   0  0  0  0  0  0  0  0  0  0  0  0
    0.7101    0.6559    0.4382 C   0  0  0  0  0  0  0  0  0  0  0  0
    1.9010    0.4423    1.0782 C   0  0  0  0  0  0  0  0  0  0  0  0
    2.8693    0.2301    0.1211 C   0  0  0  0  0  0  0  0  0  0  0  0
    4.2700   -0.0326    0.4367 C   0  0  0  0  0  0  0  0  0  0  0  0
    5.2129   -0.2403   -0.5452 C   0  0  0  0  0  0  0  0  0  0  0  0
    6.5139   -0.4844   -0.2543 C   0  0  0  0  0  0  0  0  0  0  0  0
    6.9618   -0.5373    1.0456 C   0  0  0  0  0  0  0  0  0  0  0  0
    6.0383   -0.3328    2.0478 C   0  0  0  0  0  0  0  0  0  0  0  0
    6.4788   -0.3829    3.3984 N   0  0  0  0  0  4  0  0  0  0  0  0
    5.6843   -0.2047    4.3476 O   0  0  0  0  0  0  0  0  0  0  0  0
    7.7908   -0.6285    3.7120 O   0  0  0  0  0  1  0  0  0  0  0  0
    4.7164   -0.0850    1.7438 C   0  0  0  0  0  0  0  0  0  0  0  0
    2.2825    0.3136   -1.0314 O   0  0  0  0  0  0  0  0  0  0  0  0
   -1.5566   -0.2735   -3.4344 C   0  0  0  0  0  0  0  0  0  0  0  0
   -2.6354    0.7295   -3.1019 C   0  0  0  0  0  0  0  0  0  0  0  0
   -6.5449    0.9048    2.0708 H   0  0  0  0  0  0  0  0  0  0  0  0
   -7.2284   -0.7034    3.7370 H   0  0  0  0  0  0  0  0  0  0  0  0
   -5.7927    1.3004    0.2288 H   0  0  0  0  0  0  0  0  0  0  0  0
   -4.8723    1.7656   -1.9878 H   0  0  0  0  0  0  0  0  0  0  0  0
   -2.6493   -1.3840    1.0860 H   0  0  0  0  0  0  0  0  0  0  0  0
   -0.6356   -1.2452   -0.3891 H   0  0  0  0  0  0  0  0  0  0  0  0
   -1.5889   -2.1815   -1.5555 H   0  0  0  0  0  0  0  0  0  0  0  0
    0.5083    1.1093   -2.8694 H   0  0  0  0  0  0  0  0  0  0  0  0
   -0.7447    1.5295   -1.6722 H   0  0  0  0  0  0  0  0  0  0  0  0
   -0.2312    0.8507    0.9277 H   0  0  0  0  0  0  0  0  0  0  0  0
    2.0177    0.4480    2.1662 H   0  0  0  0  0  0  0  0  0  0  0  0
    4.8890   -0.2043   -1.5718 H   0  0  0  0  0  0  0  0  0  0  0  0
    7.2081   -0.6396   -1.0662 H   0  0  0  0  0  0  0  0  0  0  0  0
    8.0076   -0.7353    1.2093 H   0  0  0  0  0  0  0  0  0  0  0  0
    3.9966    0.0749    2.5422 H   0  0  0  0  0  0  0  0  0  0  0  0
   -0.9593    0.1891   -4.2716 H   0  0  0  0  0  0  0  0  0  0  0  0
   -1.9648   -1.2075   -3.8539 H   0  0  0  0  0  0  0  0  0  0  0  0
   -2.2735    1.7659   -3.1147 H   0  0  0  0  0  0  0  0  0  0  0  0
   -3.4531    0.6263   -3.8663 H   0  0  0  0  0  0  0  0  0  0  0  0
  1  2  2  0
  2  3  1  0
  3  4  1  0
  2  5  1  0
  5  6  2  0
  6  7  1  0
  7  8  2  0
  8  9  1  0
  9 10  2  0
  9 11  1  0
 11 12  1  0
 12 13  1  0
 13 14  1  0
 14 15  2  0
 15 16  1  0
 16 17  2  0
 17 18  1  0
 18 19  2  0
 19 20  1  0
 20 21  2  0
 21 22  1  0
 22 23  1  0
 23 24  2  0
 23 25  1  0
 22 26  2  0
 17 27  1  0
 12 28  1  0
 28 29  1  0
 10  5  1  0
 27 14  1  0
 29  8  1  0
 26 18  1  0
  3 30  1  0
  4 31  1  0
  6 32  1  0
  7 33  1  0
 10 34  1  0
 11 35  1  0
 11 36  1  0
 13 37  1  0
 13 38  1  0
 15 39  1  0
 16 40  1  0
 19 41  1  0
 20 42  1  0
 21 43  1  0
 26 44  1  0
 28 45  1  0
 28 46  1  0
 29 47  1  0
 29 48  1  0
M  CHG  2  23   1  25  -1
M  END
$$$$
