@<TRIPOS>MOLECULE
*****
 48 51 0 0 0
SMALL
GASTEIGER

@<TRIPOS>ATOM
      1 O          -4.2238   -1.1756    2.8979 O.2     1  UNL1       -0.2681
      2 C          -4.8159   -0.3572    2.1195 C.2     1  UNL1        0.2665
      3 N          -5.9983    0.2247    2.6406 N.am    1  UNL1       -0.1935
      4 O          -6.4488   -0.0905    3.8984 O.3     1  UNL1       -0.2949
      5 C          -4.2880   -0.0630    0.7940 C.ar    1  UNL1        0.0390
      6 C          -4.8828    0.8091   -0.0866 C.ar    1  UNL1       -0.0493
      7 C          -4.3375    1.0592   -1.3495 C.ar    1  UNL1       -0.0575
      8 C          -3.1772    0.4317   -1.7499 C.ar    1  UNL1       -0.0417
      9 C          -2.5807   -0.4432   -0.8665 C.ar    1  UNL1       -0.0294
     10 C          -3.1276   -0.6923    0.3970 C.ar    1  UNL1       -0.0449
     11 C          -1.3402   -1.1408   -1.2419 C.3     1  UNL1        0.0248
     12 N          -0.6655   -0.4994   -2.3269 N.3     1  UNL1       -0.2907
     13 C          -0.0337    0.7372   -1.9685 C.3     1  UNL1        0.0574
     14 C           0.9931    0.5661   -0.9092 C.ar    1  UNL1        0.1197
     15 C           0.7101    0.6559    0.4382 C.ar    1  UNL1       -0.0188
     16 C           1.9010    0.4423    1.0782 C.ar    1  UNL1       -0.0156
     17 C           2.8693    0.2301    0.1211 C.ar    1  UNL1        0.1355
     18 C           4.2700   -0.0326    0.4367 C.ar    1  UNL1        0.0237
     19 C           5.2129   -0.2403   -0.5452 C.ar    1  UNL1       -0.0507
     20 C           6.5139   -0.4844   -0.2543 C.ar    1  UNL1       -0.0547
     21 C           6.9618   -0.5373    1.0456 C.ar    1  UNL1        0.0156
     22 C           6.0383   -0.3328    2.0478 C.ar    1  UNL1        0.2738
     23 N           6.4788   -0.3829    3.3984 N.pl3   1  UNL1        0.0796
     24 O           5.6843   -0.2047    4.3476 O.2     1  UNL1        0.0414
     25 O           7.7908   -0.6285    3.7120 O.co2   1  UNL1       -0.5760
     26 C           4.7164   -0.0850    1.7438 C.ar    1  UNL1        0.0262
     27 O           2.2825    0.3136   -1.0314 O.2     1  UNL1       -0.4584
     28 C          -1.5566   -0.2735   -3.4344 C.3     1  UNL1        0.0036
     29 C          -2.6354    0.7295   -3.1019 C.3     1  UNL1       -0.0145
     30 H          -6.5449    0.9048    2.0708 H       1  UNL1        0.1825
     31 H          -7.2284   -0.7034    3.7370 H       1  UNL1        0.2414
     32 H          -5.7927    1.3004    0.2288 H       1  UNL1        0.0625
     33 H          -4.8723    1.7656   -1.9878 H       1  UNL1        0.0621
     34 H          -2.6493   -1.3840    1.0860 H       1  UNL1        0.0628
     35 H          -0.6356   -1.2452   -0.3891 H       1  UNL1        0.0476
     36 H          -1.5889   -2.1815   -1.5555 H       1  UNL1        0.0476
     37 H           0.5083    1.1093   -2.8694 H       1  UNL1        0.0507
     38 H          -0.7447    1.5295   -1.6722 H       1  UNL1        0.0507
     39 H          -0.2312    0.8507    0.9277 H       1  UNL1        0.0652
     40 H           2.0177    0.4480    2.1662 H       1  UNL1        0.0655
     41 H           4.8890   -0.2043   -1.5718 H       1  UNL1        0.0625
     42 H           7.2081   -0.6396   -1.0662 H       1  UNL1        0.0620
     43 H           8.0076   -0.7353    1.2093 H       1  UNL1        0.0685
     44 H           3.9966    0.0749    2.5422 H       1  UNL1        0.0692
     45 H          -0.9593    0.1891   -4.2716 H       1  UNL1        0.0430
     46 H          -1.9648   -1.2075   -3.8539 H       1  UNL1        0.0430
     47 H          -2.2735    1.7659   -3.1147 H       1  UNL1        0.0326
     48 H          -3.4531    0.6263   -3.8663 H       1  UNL1        0.0326
@<TRIPOS>UNITY_ATOM_ATTR
23 1
charge 1
25 1
charge -1
@<TRIPOS>BOND
     1     1     2    2
     2     2     3   am
     3     3     4    1
     4     2     5    1
     5     5     6   ar
     6     6     7   ar
     7     7     8   ar
     8     8     9   ar
     9     9    10   ar
    10     9    11    1
    11    11    12    1
    12    12    13    1
    13    13    14    1
    14    14    15   ar
    15    15    16   ar
    16    16    17   ar
    17    17    18    1
    18    18    19   ar
    19    19    20   ar
    20    20    21   ar
    21    21    22   ar
    22    22    23    1
    23    23    24    2
    24    23    25    1
    25    22    26   ar
    26    17    27   ar
    27    12    28    1
    28    28    29    1
    29    10     5   ar
    30    27    14   ar
    31    29     8    1
    32    26    18   ar
    33     3    30    1
    34     4    31    1
    35     6    32    1
    36     7    33    1
    37    10    34    1
    38    11    35    1
    39    11    36    1
    40    13    37    1
    41    13    38    1
    42    15    39    1
    43    16    40    1
    44    19    41    1
    45    20    42    1
    46    21    43    1
    47    26    44    1
    48    28    45    1
    49    28    46    1
    50    29    47    1
    51    29    48    1
