@<TRIPOS>MOLECULE
*****
 50 54 0 0 0
SMALL
GASTEIGER

@<TRIPOS>ATOM
      1 C          -3.0008   -1.4910   -1.7153 C.3     1  UNL1       -0.0275
      2 C          -2.3585   -0.9475   -0.4488 C.3     1  UNL1        0.1021
      3 O          -2.0015    0.3716   -0.6269 O.3     1  UNL1       -0.4880
      4 C          -0.7300    0.8623   -0.5667 C.ar    1  UNL1        0.1322
      5 C           0.4125    0.1318   -0.3192 C.ar    1  UNL1       -0.0100
      6 C           1.6510    0.7573   -0.2849 C.ar    1  UNL1        0.0039
      7 C           2.8501   -0.0440   -0.0195 C.ar    1  UNL1        0.0477
      8 C           2.9240   -1.3834    0.2096 C.ar    1  UNL1       -0.0286
      9 C           4.2323   -1.7410    0.4139 C.ar    1  UNL1        0.0017
     10 C           4.9221   -2.9106    0.6834 C.ar    1  UNL1       -0.0525
     11 C           6.3003   -2.9230    0.8384 C.ar    1  UNL1       -0.0597
     12 C           6.9886   -1.7328    0.7184 C.ar    1  UNL1       -0.0414
     13 C           6.3375   -0.5304    0.4478 C.ar    1  UNL1        0.0648
     14 CL          7.2488    0.9542    0.3040 Cl      1  UNL1       -0.0814
     15 C           4.9607   -0.5701    0.3015 C.ar    1  UNL1        0.0655
     16 N           4.1055    0.4226    0.0428 N.ar    1  UNL1       -0.3530
     17 C           1.7410    2.1083   -0.4980 C.ar    1  UNL1       -0.0246
     18 C           0.6025    2.8677   -0.7498 C.ar    1  UNL1        0.0968
     19 N           0.3963    4.1847   -0.9902 N.ar    1  UNL1       -0.1713
     20 N          -0.8871    4.4277   -1.1729 N.ar    1  UNL1       -0.2732
     21 C          -1.5294    5.6973   -1.4539 C.3     1  UNL1        0.0302
     22 C          -1.5321    3.2401   -1.0484 C.ar    1  UNL1        0.0364
     23 C          -0.6132    2.2418   -0.7815 C.ar    1  UNL1        0.0614
     24 C          -3.3132   -1.1549    0.7149 C.3     1  UNL1        0.0195
     25 C          -4.6234   -0.4530    0.5139 C.3     1  UNL1        0.0182
     26 N          -5.6081   -1.4792    0.2374 N.am    1  UNL1       -0.3149
     27 C          -5.0253   -2.7645    0.3314 C.2     1  UNL1        0.2135
     28 O          -5.6015   -3.8447    0.0452 O.2     1  UNL1       -0.2758
     29 C          -3.6312   -2.6262    0.8205 C.3     1  UNL1        0.0315
     30 H          -2.6553   -2.5149   -1.9334 H       1  UNL1        0.0265
     31 H          -2.6752   -0.8554   -2.5835 H       1  UNL1        0.0265
     32 H          -4.0963   -1.5124   -1.6320 H       1  UNL1        0.0265
     33 H          -1.4831   -1.5771   -0.2473 H       1  UNL1        0.0733
     34 H           0.3620   -0.9136   -0.1522 H       1  UNL1        0.0661
     35 H           2.0902   -2.0849    0.2328 H       1  UNL1        0.0645
     36 H           4.3592   -3.8310    0.7727 H       1  UNL1        0.0624
     37 H           6.8074   -3.8553    1.0484 H       1  UNL1        0.0618
     38 H           8.0609   -1.7250    0.8361 H       1  UNL1        0.0633
     39 H           4.3520    1.4404   -0.0977 H       1  UNL1        0.1659
     40 H           2.7149    2.6003   -0.4710 H       1  UNL1        0.0646
     41 H          -2.1731    5.9755   -0.6102 H       1  UNL1        0.0473
     42 H          -2.0928    5.5892   -2.4152 H       1  UNL1        0.0473
     43 H          -0.7738    6.4781   -1.6129 H       1  UNL1        0.0473
     44 H          -2.6030    3.0847   -1.1417 H       1  UNL1        0.0833
     45 H          -2.7959   -0.7949    1.6328 H       1  UNL1        0.0356
     46 H          -4.9218    0.0780    1.4462 H       1  UNL1        0.0466
     47 H          -4.5955    0.2855   -0.3128 H       1  UNL1        0.0466
     48 H          -6.5901   -1.2837    0.0065 H       1  UNL1        0.1487
     49 H          -2.9588   -3.2472    0.1836 H       1  UNL1        0.0363
     50 H          -3.5500   -3.0076    1.8517 H       1  UNL1        0.0363
@<TRIPOS>BOND
     1     1     2    1
     2     2     3    1
     3     3     4    1
     4     4     5   ar
     5     5     6   ar
     6     6     7    1
     7     7     8   ar
     8     8     9   ar
     9     9    10   ar
    10    10    11   ar
    11    11    12   ar
    12    12    13   ar
    13    13    14    1
    14    13    15   ar
    15    15    16   ar
    16     6    17   ar
    17    17    18   ar
    18    18    19   ar
    19    19    20   ar
    20    20    21    1
    21    20    22   ar
    22    22    23   ar
    23     2    24    1
    24    24    25    1
    25    25    26    1
    26    26    27   am
    27    27    28    2
    28    27    29    1
    29    23     4   ar
    30    29    24    1
    31    16     7   ar
    32    23    18   ar
    33    15     9   ar
    34     1    30    1
    35     1    31    1
    36     1    32    1
    37     2    33    1
    38     5    34    1
    39     8    35    1
    40    10    36    1
    41    11    37    1
    42    12    38    1
    43    16    39    1
    44    17    40    1
    45    21    41    1
    46    21    42    1
    47    21    43    1
    48    22    44    1
    49    24    45    1
    50    25    46    1
    51    25    47    1
    52    26    48    1
    53    29    49    1
    54    29    50    1
