
     RDKit          3D

 50 54  0  0  0  0  0  0  0  0999 V2000
   -3.0008   -1.4910   -1.7153 C   0  0  0  0  0  0  0  0  0  0  0  0
   -2.3585   -0.9475   -0.4488 C   0  0  1  0  0  0  0  0  0  0  0  0
   -2.0015    0.3716   -0.6269 O   0  0  0  0  0  0  0  0  0  0  0  0
   -0.7300    0.8623   -0.5667 C   0  0  0  0  0  0  0  0  0  0  0  0
    0.4125    0.1318   -0.3192 C   0  0  0  0  0  0  0  0  0  0  0  0
    1.6510    0.7573   -0.2849 C   0  0  0  0  0  0  0  0  0  0  0  0
    2.8501   -0.0440   -0.0195 C   0  0  0  0  0  0  0  0  0  0  0  0
    2.9240   -1.3834    0.2096 C   0  0  0  0  0  0  0  0  0  0  0  0
    4.2323   -1.7410    0.4139 C   0  0  0  0  0  0  0  0  0  0  0  0
    4.9221   -2.9106    0.6834 C   0  0  0  0  0  0  0  0  0  0  0  0
    6.3003   -2.9230    0.8384 C   0  0  0  0  0  0  0  0  0  0  0  0
    6.9886   -1.7328    0.7184 C   0  0  0  0  0  0  0  0  0  0  0  0
    6.3375   -0.5304    0.4478 C   0  0  0  0  0  0  0  0  0  0  0  0
    7.2488    0.9542    0.3040 Cl  0  0  0  0  0  0  0  0  0  0  0  0
    4.9607   -0.5701    0.3015 C   0  0  0  0  0  0  0  0  0  0  0  0
    4.1055    0.4226    0.0428 N   0  0  0  0  0  0  0  0  0  0  0  0
    1.7410    2.1083   -0.4980 C   0  0  0  0  0  0  0  0  0  0  0  0
    0.6025    2.8677   -0.7498 C   0  0  0  0  0  0  0  0  0  0  0  0
    0.3963    4.1847   -0.9902 N   0  0  0  0  0  0  0  0  0  0  0  0
   -0.8871    4.4277   -1.1729 N   0  0  0  0  0  0  0  0  0  0  0  0
   -1.5294    5.6973   -1.4539 C   0  0  0  0  0  0  0  0  0  0  0  0
   -1.5321    3.2401   -1.0484 C   0  0  0  0  0  0  0  0  0  0  0  0
   -0.6132    2.2418   -0.7815 C   0  0  0  0  0  0  0  0  0  0  0  0
   -3.3132   -1.1549    0.7149 C   0  0  1  0  0  0  0  0  0  0  0  0
   -4.6234   -0.4530    0.5139 C   0  0  0  0  0  0  0  0  0  0  0  0
   -5.6081   -1.4792    0.2374 N   0  0  0  0  0  0  0  0  0  0  0  0
   -5.0253   -2.7645    0.3314 C   0  0  0  0  0  0  0  0  0  0  0  0
   -5.6015   -3.8447    0.0452 O   0  0  0  0  0  0  0  0  0  0  0  0
   -3.6312   -2.6262    0.8205 C   0  0  0  0  0  0  0  0  0  0  0  0
   -2.6553   -2.5149   -1.9334 H   0  0  0  0  0  0  0  0  0  0  0  0
   -2.6752   -0.8554   -2.5835 H   0  0  0  0  0  0  0  0  0  0  0  0
   -4.0963   -1.5124   -1.6320 H   0  0  0  0  0  0  0  0  0  0  0  0
   -1.4831   -1.5771   -0.2473 H   0  0  0  0  0  0  0  0  0  0  0  0
    0.3620   -0.9136   -0.1522 H   0  0  0  0  0  0  0  0  0  0  0  0
    2.0902   -2.0849    0.2328 H   0  0  0  0  0  0  0  0  0  0  0  0
    4.3592   -3.8310    0.7727 H   0  0  0  0  0  0  0  0  0  0  0  0
    6.8074   -3.8553    1.0484 H   0  0  0  0  0  0  0  0  0  0  0  0
    8.0609   -1.7250    0.8361 H   0  0  0  0  0  0  0  0  0  0  0  0
    4.3520    1.4404   -0.0977 H   0  0  0  0  0  0  0  0  0  0  0  0
    2.7149    2.6003   -0.4710 H   0  0  0  0  0  0  0  0  0  0  0  0
   -2.1731    5.9755   -0.6102 H   0  0  0  0  0  0  0  0  0  0  0  0
   -2.0928    5.5892   -2.4152 H   0  0  0  0  0  0  0  0  0  0  0  0
   -0.7738    6.4781   -1.6129 H   0  0  0  0  0  0  0  0  0  0  0  0
   -2.6030    3.0847   -1.1417 H   0  0  0  0  0  0  0  0  0  0  0  0
   -2.7959   -0.7949    1.6328 H   0  0  0  0  0  0  0  0  0  0  0  0
   -4.9218    0.0780    1.4462 H   0  0  0  0  0  0  0  0  0  0  0  0
   -4.5955    0.2855   -0.3128 H   0  0  0  0  0  0  0  0  0  0  0  0
   -6.5901   -1.2837    0.0065 H   0  0  0  0  0  0  0  0  0  0  0  0
   -2.9588   -3.2472    0.1836 H   0  0  0  0  0  0  0  0  0  0  0  0
   -3.5500   -3.0076    1.8517 H   0  0  0  0  0  0  0  0  0  0  0  0
  1  2  1  0
  2  3  1  0
  3  4  1  0
  4  5  2  0
  5  6  1  0
  6  7  1  0
  7  8  2  0
  8  9  1  0
  9 10  2  0
 10 11  1  0
 11 12  2  0
 12 13  1  0
 13 14  1  0
 13 15  2  0
 15 16  1  0
  6 17  2  0
 17 18  1  0
 18 19  2  0
 19 20  1  0
 20 21  1  0
 20 22  1  0
 22 23  2  0
  2 24  1  0
 24 25  1  0
 25 26  1  0
 26 27  1  0
 27 28  2  0
 27 29  1  0
 23  4  1  0
 29 24  1  0
 16  7  1  0
 23 18  1  0
 15  9  1  0
  1 30  1  0
  1 31  1  0
  1 32  1  0
  2 33  1  1
  5 34  1  0
  8 35  1  0
 10 36  1  0
 11 37  1  0
 12 38  1  0
 16 39  1  0
 17 40  1  0
 21 41  1  0
 21 42  1  0
 21 43  1  0
 22 44  1  0
 24 45  1  1
 25 46  1  0
 25 47  1  0
 26 48  1  0
 29 49  1  0
 29 50  1  0
M  END
$$$$
