@<TRIPOS>MOLECULE
*****
 37 39 0 0 0
SMALL
GASTEIGER

@<TRIPOS>ATOM
      1 O           5.6235    0.0797    0.5204 O.3     1  UNL1       -0.5068
      2 C           4.2670   -0.1787    0.3697 C.ar    1  UNL1        0.1169
      3 C           3.6570   -0.2671   -0.8718 C.ar    1  UNL1       -0.0199
      4 C           2.2869   -0.5301   -0.9393 C.ar    1  UNL1       -0.0545
      5 C           1.5046   -0.7076    0.1731 C.ar    1  UNL1       -0.0385
      6 C           2.1861   -0.6047    1.3864 C.ar    1  UNL1       -0.0545
      7 C           3.5393   -0.3468    1.5315 C.ar    1  UNL1       -0.0199
      8 C           0.0718   -0.9826    0.1018 C.3     1  UNL1        0.0221
      9 C          -0.3336   -1.8007   -1.0971 C.3     1  UNL1        0.0067
     10 N          -1.3501   -2.7096   -0.7316 N.3     1  UNL1       -0.3148
     11 C          -2.4607   -2.2595   -0.0062 C.3     1  UNL1       -0.0000
     12 C          -3.0626   -0.9421   -0.3863 C.3     1  UNL1       -0.0133
     13 C          -2.1442    0.2012   -0.1143 C.ar    1  UNL1       -0.0203
     14 C          -2.8784    1.3593   -0.1003 C.ar    1  UNL1        0.0894
     15 CL         -4.6076    1.3893   -0.3687 Cl      1  UNL1       -0.0793
     16 C          -2.2623    2.5764    0.1324 C.ar    1  UNL1        0.1772
     17 O          -2.9457    3.7894    0.1604 O.3     1  UNL1       -0.5023
     18 C          -0.8855    2.6077    0.3522 C.ar    1  UNL1        0.1600
     19 O          -0.2360    3.8205    0.5897 O.3     1  UNL1       -0.5033
     20 C          -0.1568    1.4345    0.3357 C.ar    1  UNL1       -0.0124
     21 C          -0.7810    0.2327    0.1034 C.ar    1  UNL1       -0.0305
     22 H           6.0038    0.9550    0.2042 H       1  UNL1        0.2921
     23 H           4.2646   -0.1285   -1.7657 H       1  UNL1        0.0654
     24 H           1.8146   -0.5979   -1.9276 H       1  UNL1        0.0622
     25 H           1.5649   -0.7460    2.2855 H       1  UNL1        0.0622
     26 H           3.9228   -0.2967    2.5419 H       1  UNL1        0.0654
     27 H          -0.1852   -1.5697    1.0170 H       1  UNL1        0.0410
     28 H          -0.7168   -1.1113   -1.8948 H       1  UNL1        0.0433
     29 H           0.4942   -2.3573   -1.5583 H       1  UNL1        0.0433
     30 H          -1.3324   -3.6554   -1.1067 H       1  UNL1        0.1220
     31 H          -2.2534   -2.2373    1.0896 H       1  UNL1        0.0427
     32 H          -3.2888   -3.0141   -0.1378 H       1  UNL1        0.0427
     33 H          -3.9408   -0.7858    0.2721 H       1  UNL1        0.0326
     34 H          -3.3975   -0.9823   -1.4358 H       1  UNL1        0.0326
     35 H          -2.7436    4.4671    0.9067 H       1  UNL1        0.2923
     36 H          -0.1536    4.5029   -0.1310 H       1  UNL1        0.2923
     37 H           0.9153    1.3964    0.4999 H       1  UNL1        0.0658
@<TRIPOS>BOND
     1     1     2    1
     2     2     3   ar
     3     3     4   ar
     4     4     5   ar
     5     5     6   ar
     6     6     7   ar
     7     5     8    1
     8     8     9    1
     9     9    10    1
    10    10    11    1
    11    11    12    1
    12    12    13    1
    13    13    14   ar
    14    14    15    1
    15    14    16   ar
    16    16    17    1
    17    16    18   ar
    18    18    19    1
    19    18    20   ar
    20    20    21   ar
    21     7     2   ar
    22    21     8    1
    23    21    13   ar
    24     1    22    1
    25     3    23    1
    26     4    24    1
    27     6    25    1
    28     7    26    1
    29     8    27    1
    30     9    28    1
    31     9    29    1
    32    10    30    1
    33    11    31    1
    34    11    32    1
    35    12    33    1
    36    12    34    1
    37    17    35    1
    38    19    36    1
    39    20    37    1
