
     RDKit          3D

 37 39  0  0  0  0  0  0  0  0999 V2000
    5.6235    0.0797    0.5204 O   0  0  0  0  0  0  0  0  0  0  0  0
    4.2670   -0.1787    0.3697 C   0  0  0  0  0  0  0  0  0  0  0  0
    3.6570   -0.2671   -0.8718 C   0  0  0  0  0  0  0  0  0  0  0  0
    2.2869   -0.5301   -0.9393 C   0  0  0  0  0  0  0  0  0  0  0  0
    1.5046   -0.7076    0.1731 C   0  0  0  0  0  0  0  0  0  0  0  0
    2.1861   -0.6047    1.3864 C   0  0  0  0  0  0  0  0  0  0  0  0
    3.5393   -0.3468    1.5315 C   0  0  0  0  0  0  0  0  0  0  0  0
    0.0718   -0.9826    0.1018 C   0  0  0  0  0  0  0  0  0  0  0  0
   -0.3336   -1.8007   -1.0971 C   0  0  0  0  0  0  0  0  0  0  0  0
   -1.3501   -2.7096   -0.7316 N   0  0  0  0  0  0  0  0  0  0  0  0
   -2.4607   -2.2595   -0.0062 C   0  0  0  0  0  0  0  0  0  0  0  0
   -3.0626   -0.9421   -0.3863 C   0  0  0  0  0  0  0  0  0  0  0  0
   -2.1442    0.2012   -0.1143 C   0  0  0  0  0  0  0  0  0  0  0  0
   -2.8784    1.3593   -0.1003 C   0  0  0  0  0  0  0  0  0  0  0  0
   -4.6076    1.3893   -0.3687 Cl  0  0  0  0  0  0  0  0  0  0  0  0
   -2.2623    2.5764    0.1324 C   0  0  0  0  0  0  0  0  0  0  0  0
   -2.9457    3.7894    0.1604 O   0  0  0  0  0  0  0  0  0  0  0  0
   -0.8855    2.6077    0.3522 C   0  0  0  0  0  0  0  0  0  0  0  0
   -0.2360    3.8205    0.5897 O   0  0  0  0  0  0  0  0  0  0  0  0
   -0.1568    1.4345    0.3357 C   0  0  0  0  0  0  0  0  0  0  0  0
   -0.7810    0.2327    0.1034 C   0  0  0  0  0  0  0  0  0  0  0  0
    6.0038    0.9550    0.2042 H   0  0  0  0  0  0  0  0  0  0  0  0
    4.2646   -0.1285   -1.7657 H   0  0  0  0  0  0  0  0  0  0  0  0
    1.8146   -0.5979   -1.9276 H   0  0  0  0  0  0  0  0  0  0  0  0
    1.5649   -0.7460    2.2855 H   0  0  0  0  0  0  0  0  0  0  0  0
    3.9228   -0.2967    2.5419 H   0  0  0  0  0  0  0  0  0  0  0  0
   -0.1852   -1.5697    1.0170 H   0  0  0  0  0  0  0  0  0  0  0  0
   -0.7168   -1.1113   -1.8948 H   0  0  0  0  0  0  0  0  0  0  0  0
    0.4942   -2.3573   -1.5583 H   0  0  0  0  0  0  0  0  0  0  0  0
   -1.3324   -3.6554   -1.1067 H   0  0  0  0  0  0  0  0  0  0  0  0
   -2.2534   -2.2373    1.0896 H   0  0  0  0  0  0  0  0  0  0  0  0
   -3.2888   -3.0141   -0.1378 H   0  0  0  0  0  0  0  0  0  0  0  0
   -3.9408   -0.7858    0.2721 H   0  0  0  0  0  0  0  0  0  0  0  0
   -3.3975   -0.9823   -1.4358 H   0  0  0  0  0  0  0  0  0  0  0  0
   -2.7436    4.4671    0.9067 H   0  0  0  0  0  0  0  0  0  0  0  0
   -0.1536    4.5029   -0.1310 H   0  0  0  0  0  0  0  0  0  0  0  0
    0.9153    1.3964    0.4999 H   0  0  0  0  0  0  0  0  0  0  0  0
  1  2  1  0
  2  3  2  0
  3  4  1  0
  4  5  2  0
  5  6  1  0
  6  7  2  0
  5  8  1  0
  8  9  1  0
  9 10  1  0
 10 11  1  0
 11 12  1  0
 12 13  1  0
 13 14  2  0
 14 15  1  0
 14 16  1  0
 16 17  1  0
 16 18  2  0
 18 19  1  0
 18 20  1  0
 20 21  2  0
  7  2  1  0
 21  8  1  0
 21 13  1  0
  1 22  1  0
  3 23  1  0
  4 24  1  0
  6 25  1  0
  7 26  1  0
  8 27  1  0
  9 28  1  0
  9 29  1  0
 10 30  1  0
 11 31  1  0
 11 32  1  0
 12 33  1  0
 12 34  1  0
 17 35  1  0
 19 36  1  0
 20 37  1  0
M  END
$$$$
