@<TRIPOS>MOLECULE
*****
 33 34 0 0 0
SMALL
GASTEIGER

@<TRIPOS>ATOM
      1 C          -4.2922    1.9526    0.3868 C.3     1  UNL1       -0.0581
      2 C          -3.5756    0.9082   -0.4554 C.3     1  UNL1       -0.0138
      3 C          -4.6005    0.1105   -1.2193 C.3     1  UNL1       -0.0581
      4 C          -2.6638    0.1079    0.3161 C.ar    1  UNL1        0.0114
      5 C          -2.8532   -0.7851    1.3405 C.ar    1  UNL1        0.0138
      6 N          -1.8609   -1.4372    1.9352 N.ar    1  UNL1       -0.3418
      7 C          -0.5726   -1.1765    1.4687 C.ar    1  UNL1        0.1631
      8 S          -0.7737    0.0496    0.1247 S.2     1  UNL1       -0.0570
      9 N           0.5999   -1.5593    1.7371 N.am    1  UNL1       -0.1563
     10 C           1.7666   -1.1017    1.0673 C.2     1  UNL1        0.2427
     11 O           2.6248   -0.5598    1.8236 O.2     1  UNL1       -0.2733
     12 C           2.1237   -1.1670   -0.3868 C.3     1  UNL1        0.0526
     13 C           3.4606   -0.5417   -0.5344 C.ar    1  UNL1       -0.0205
     14 C           3.5749    0.8207   -0.7779 C.ar    1  UNL1       -0.0552
     15 C           4.8443    1.3623   -0.9090 C.ar    1  UNL1       -0.0433
     16 C           5.9803    0.5706   -0.8012 C.ar    1  UNL1        0.0276
     17 N           5.8625   -0.7526   -0.5645 N.ar    1  UNL1       -0.2630
     18 C           4.6233   -1.2652   -0.4393 C.ar    1  UNL1        0.0312
     19 H          -4.8896    2.6417   -0.2277 H       1  UNL1        0.0236
     20 H          -3.5407    2.4920    1.0042 H       1  UNL1        0.0236
     21 H          -5.0044    1.4452    1.0643 H       1  UNL1        0.0236
     22 H          -2.9617    1.4938   -1.2011 H       1  UNL1        0.0349
     23 H          -5.6237    0.5414   -1.0687 H       1  UNL1        0.0236
     24 H          -4.4275    0.1661   -2.3142 H       1  UNL1        0.0236
     25 H          -4.6752   -0.9430   -0.8877 H       1  UNL1        0.0236
     26 H          -3.8709   -0.9514    1.6647 H       1  UNL1        0.0815
     27 H          -1.9148   -2.1236    2.7102 H       1  UNL1        0.1671
     28 H           2.1957   -2.2328   -0.7251 H       1  UNL1        0.0408
     29 H           1.3698   -0.6993   -1.0295 H       1  UNL1        0.0408
     30 H           2.6934    1.4270   -0.8601 H       1  UNL1        0.0621
     31 H           4.8868    2.4254   -1.0978 H       1  UNL1        0.0633
     32 H           6.9062    1.1175   -0.9237 H       1  UNL1        0.0829
     33 H           4.5880   -2.3360   -0.2495 H       1  UNL1        0.0832
@<TRIPOS>BOND
     1     1     2    1
     2     2     3    1
     3     2     4    1
     4     4     5   ar
     5     5     6   ar
     6     6     7   ar
     7     7     8   ar
     8     7     9    2
     9     9    10    1
    10    10    11    2
    11    10    12    1
    12    12    13    1
    13    13    14   ar
    14    14    15   ar
    15    15    16   ar
    16    16    17   ar
    17    17    18   ar
    18     8     4   ar
    19    18    13   ar
    20     1    19    1
    21     1    20    1
    22     1    21    1
    23     2    22    1
    24     3    23    1
    25     3    24    1
    26     3    25    1
    27     5    26    1
    28     6    27    1
    29    12    28    1
    30    12    29    1
    31    14    30    1
    32    15    31    1
    33    16    32    1
    34    18    33    1
