@<TRIPOS>MOLECULE
*****
 26 25 0 0 0
SMALL
GASTEIGER

@<TRIPOS>ATOM
      1 C          -1.8257    1.0536   -0.5558 C.3     1  UNL1        0.1040
      2 O          -1.5867    2.0715    0.3390 O.3     1  UNL1       -0.3870
      3 C          -3.2275    0.5107   -0.3187 C.3     1  UNL1        0.0726
      4 O          -3.5252   -0.5254   -1.1990 O.3     1  UNL1       -0.3924
      5 C          -0.8897   -0.0863   -0.2767 C.3     1  UNL1        0.0832
      6 O          -1.1157   -0.5304    1.0230 O.3     1  UNL1       -0.3892
      7 C           0.5722    0.2961   -0.4417 C.3     1  UNL1       -0.0244
      8 C           1.3469   -0.9472   -0.1274 C.3     1  UNL1       -0.0509
      9 C           2.8299   -0.7932   -0.2298 C.3     1  UNL1       -0.0558
     10 C           3.4147    0.2320    0.6781 C.3     1  UNL1       -0.0653
     11 H          -1.7914    1.3714   -1.6120 H       1  UNL1        0.0642
     12 H          -1.8678    1.7727    1.2211 H       1  UNL1        0.2100
     13 H          -3.2788    0.0989    0.7256 H       1  UNL1        0.0584
     14 H          -3.9918    1.2978   -0.4207 H       1  UNL1        0.0584
     15 H          -3.2492   -1.3933   -0.7780 H       1  UNL1        0.2095
     16 H          -1.1419   -0.9125   -0.9670 H       1  UNL1        0.0620
     17 H          -1.5390   -1.4044    1.0770 H       1  UNL1        0.2099
     18 H           0.7055    0.6389   -1.4878 H       1  UNL1        0.0291
     19 H           0.7901    1.1359    0.2373 H       1  UNL1        0.0291
     20 H           1.0535   -1.7107   -0.8924 H       1  UNL1        0.0266
     21 H           1.0259   -1.3279    0.8545 H       1  UNL1        0.0266
     22 H           3.2671   -1.7793    0.0476 H       1  UNL1        0.0263
     23 H           3.1381   -0.5782   -1.2523 H       1  UNL1        0.0263
     24 H           2.8894    0.3505    1.6334 H       1  UNL1        0.0230
     25 H           4.4544   -0.0735    0.9223 H       1  UNL1        0.0230
     26 H           3.5430    1.2324    0.1692 H       1  UNL1        0.0230
@<TRIPOS>BOND
     1     1     2    1
     2     1     3    1
     3     3     4    1
     4     1     5    1
     5     5     6    1
     6     5     7    1
     7     7     8    1
     8     8     9    1
     9     9    10    1
    10     1    11    1
    11     2    12    1
    12     3    13    1
    13     3    14    1
    14     4    15    1
    15     5    16    1
    16     6    17    1
    17     7    18    1
    18     7    19    1
    19     8    20    1
    20     8    21    1
    21     9    22    1
    22     9    23    1
    23    10    24    1
    24    10    25    1
    25    10    26    1
