@<TRIPOS>MOLECULE
*****
 50 53 0 0 0
SMALL
GASTEIGER

@<TRIPOS>ATOM
      1 C           7.9103   -2.1997   -4.3614 C.3     1  UNL1       -0.0022
      2 C           6.7967   -1.3212   -3.9519 C.1     1  UNL1       -0.1003
      3 C           5.8706   -0.5814   -3.6173 C.1     1  UNL1       -0.0650
      4 C           4.7854    0.2624   -3.2149 C.ar    1  UNL1        0.0436
      5 C           4.4703    1.3883   -3.9765 C.ar    1  UNL1        0.0430
      6 N           3.4355    2.1898   -3.6204 N.ar    1  UNL1       -0.2614
      7 C           2.7366    1.8632   -2.5210 C.ar    1  UNL1        0.0353
      8 C           3.0094    0.7672   -1.7389 C.ar    1  UNL1        0.0019
      9 C           2.1836    0.4797   -0.5035 C.ar    1  UNL1       -0.0091
     10 C           2.8029   -0.1359    0.5599 C.ar    1  UNL1       -0.0162
     11 S           1.4670   -0.2369    1.8189 S.2     1  UNL1       -0.0986
     12 C           0.2596    0.5592    0.7843 C.ar    1  UNL1        0.0177
     13 C          -1.1839    0.8060    1.2001 C.3     1  UNL1        0.0984
     14 C          -1.2011    1.9597    2.2196 C.3     1  UNL1       -0.0348
     15 C          -1.7147   -0.4179    1.8417 C.3     1  UNL1        0.0171
     16 C          -3.1955   -0.5712    1.5866 C.3     1  UNL1        0.1202
     17 C          -3.6828   -1.9927    1.7957 C.3     1  UNL1        0.0108
     18 C          -4.4322   -2.2161    3.0599 C.3     1  UNL1        0.0513
     19 O          -5.3290   -1.2407    3.4090 O.3     1  UNL1       -0.3795
     20 C          -5.3690   -0.1320    2.5857 C.3     1  UNL1        0.0513
     21 C          -3.9381    0.3940    2.5037 C.3     1  UNL1        0.0108
     22 O          -3.5372   -0.2353    0.2576 O.2     1  UNL1       -0.4591
     23 C          -2.9188    0.8017   -0.4260 C.2     1  UNL1        0.2765
     24 N          -3.4804    1.3505   -1.6197 N.pl3   1  UNL1       -0.3133
     25 N          -1.8357    1.2632    0.0309 N.2     1  UNL1       -0.2252
     26 C           0.8924    0.8221   -0.3517 C.ar    1  UNL1       -0.0414
     27 C           4.0455   -0.0373   -2.0965 C.ar    1  UNL1       -0.0357
     28 H           7.9048   -2.2949   -5.4891 H       1  UNL1        0.0362
     29 H           8.8498   -1.7423   -4.0346 H       1  UNL1        0.0362
     30 H           7.7037   -3.2033   -3.8987 H       1  UNL1        0.0362
     31 H           5.0468    1.6175   -4.8490 H       1  UNL1        0.0842
     32 H           1.9148    2.5041   -2.2355 H       1  UNL1        0.0836
     33 H           3.8378   -0.4268    0.7728 H       1  UNL1        0.0699
     34 H          -1.4613    1.5934    3.2217 H       1  UNL1        0.0256
     35 H          -1.8231    2.7855    1.8448 H       1  UNL1        0.0256
     36 H          -0.1681    2.3528    2.2586 H       1  UNL1        0.0256
     37 H          -1.5339   -0.3610    2.9409 H       1  UNL1        0.0331
     38 H          -1.2166   -1.3274    1.4005 H       1  UNL1        0.0331
     39 H          -4.2439   -2.3659    0.9184 H       1  UNL1        0.0326
     40 H          -2.7631   -2.6529    1.8318 H       1  UNL1        0.0326
     41 H          -5.0533   -3.1563    2.9130 H       1  UNL1        0.0561
     42 H          -3.7472   -2.4856    3.9171 H       1  UNL1        0.0561
     43 H          -6.0322    0.6130    3.0889 H       1  UNL1        0.0561
     44 H          -5.7400   -0.3736    1.5671 H       1  UNL1        0.0561
     45 H          -3.5365    0.4075    3.5385 H       1  UNL1        0.0326
     46 H          -3.9960    1.4241    2.1012 H       1  UNL1        0.0326
     47 H          -4.3463    0.9244   -1.9955 H       1  UNL1        0.1466
     48 H          -3.0536    2.1531   -2.1135 H       1  UNL1        0.1466
     49 H           0.3373    1.3437   -1.1895 H       1  UNL1        0.0632
     50 H           4.2729   -0.9177   -1.4831 H       1  UNL1        0.0637
@<TRIPOS>BOND
     1     1     2    1
     2     2     3    3
     3     3     4    1
     4     4     5   ar
     5     5     6   ar
     6     6     7   ar
     7     7     8   ar
     8     8     9    1
     9     9    10   ar
    10    10    11   ar
    11    11    12   ar
    12    12    13    1
    13    13    14    1
    14    13    15    1
    15    15    16    1
    16    16    17    1
    17    17    18    1
    18    18    19    1
    19    19    20    1
    20    20    21    1
    21    16    22    1
    22    22    23    1
    23    23    24    1
    24    23    25    2
    25    12    26   ar
    26     8    27   ar
    27    27     4   ar
    28    26     9   ar
    29    25    13    1
    30    21    16    1
    31     1    28    1
    32     1    29    1
    33     1    30    1
    34     5    31    1
    35     7    32    1
    36    10    33    1
    37    14    34    1
    38    14    35    1
    39    14    36    1
    40    15    37    1
    41    15    38    1
    42    17    39    1
    43    17    40    1
    44    18    41    1
    45    18    42    1
    46    20    43    1
    47    20    44    1
    48    21    45    1
    49    21    46    1
    50    24    47    1
    51    24    48    1
    52    26    49    1
    53    27    50    1
