@<TRIPOS>MOLECULE
*****
 56 58 0 0 0
SMALL
GASTEIGER

@<TRIPOS>ATOM
      1 C          -2.2002   -0.8741    0.4774 C.3     1  UNL1        0.0038
      2 N          -2.7478    0.2740   -0.2189 N.am    1  UNL1       -0.2975
      3 C          -1.8872    1.2454   -0.7832 C.2     1  UNL1        0.2466
      4 O          -2.4095    2.1952   -1.3923 O.2     1  UNL1       -0.2700
      5 C          -0.4587    1.0531   -0.6001 C.ar    1  UNL1        0.0369
      6 C           0.4509    0.6916   -1.5447 C.ar    1  UNL1       -0.0493
      7 C           1.8180    0.5250   -1.2636 C.ar    1  UNL1       -0.0566
      8 C           2.2737    0.7289    0.0016 C.ar    1  UNL1       -0.0319
      9 C           3.6928    0.5693    0.4528 C.3     1  UNL1        0.0425
     10 N           3.9502   -0.7645    0.9264 N.3     1  UNL1       -0.1856
     11 S           5.5730   -0.8820    1.4629 S.O2    1  UNL1        0.0587
     12 O           5.8338   -2.2497    2.0918 O.2     1  UNL1       -0.1530
     13 O           5.7249    0.1342    2.5955 O.2     1  UNL1       -0.1530
     14 C           6.7385   -0.5821    0.2208 C.ar    1  UNL1        0.1066
     15 C           7.1457    0.7314   -0.0287 C.ar    1  UNL1       -0.0353
     16 C           8.0895    0.9645   -0.9734 C.ar    1  UNL1       -0.0585
     17 C           8.6791   -0.0408   -1.7126 C.ar    1  UNL1       -0.0433
     18 C           8.2581   -1.3356   -1.4473 C.ar    1  UNL1        0.0428
     19 CL          9.0237   -2.6044   -2.3946 Cl      1  UNL1       -0.0835
     20 C           7.3032   -1.6178   -0.4981 C.ar    1  UNL1       -0.0170
     21 C           1.3587    1.1025    0.9903 C.ar    1  UNL1       -0.0566
     22 C           0.0299    1.2594    0.6929 C.ar    1  UNL1       -0.0493
     23 C          -4.2053    0.3513   -0.2421 C.3     1  UNL1        0.0260
     24 C          -4.7770   -0.8859   -0.8964 C.3     1  UNL1       -0.0343
     25 C          -6.0883   -0.5925   -1.5904 C.3     1  UNL1       -0.0514
     26 C          -7.2639   -0.4817   -0.6959 C.3     1  UNL1       -0.0530
     27 C          -6.9756   -0.3664    0.7640 C.3     1  UNL1       -0.0530
     28 C          -6.1600    0.8624    1.1269 C.3     1  UNL1       -0.0514
     29 C          -4.7177    0.4388    1.1930 C.3     1  UNL1       -0.0343
     30 H          -1.2858   -1.2251   -0.0488 H       1  UNL1        0.0429
     31 H          -2.8814   -1.7393    0.5232 H       1  UNL1        0.0429
     32 H          -1.9034   -0.6282    1.5197 H       1  UNL1        0.0429
     33 H           0.1051    0.5304   -2.5381 H       1  UNL1        0.0625
     34 H           2.5306    0.2373   -2.0217 H       1  UNL1        0.0621
     35 H           4.0122    1.2996    1.1977 H       1  UNL1        0.0490
     36 H           4.3132    0.7695   -0.4826 H       1  UNL1        0.0490
     37 H           3.8053   -1.5056    0.2110 H       1  UNL1        0.1484
     38 H           6.7091    1.5534    0.5191 H       1  UNL1        0.0637
     39 H           8.3936    1.9855   -1.1570 H       1  UNL1        0.0619
     40 H           9.4315    0.1768   -2.4549 H       1  UNL1        0.0632
     41 H           7.0398   -2.6547   -0.3612 H       1  UNL1        0.0652
     42 H           1.7233    1.2638    2.0003 H       1  UNL1        0.0621
     43 H          -0.6451    1.5480    1.4785 H       1  UNL1        0.0625
     44 H          -4.5114    1.2736   -0.7566 H       1  UNL1        0.0500
     45 H          -4.0626   -1.2207   -1.6778 H       1  UNL1        0.0283
     46 H          -4.8650   -1.7168   -0.1648 H       1  UNL1        0.0283
     47 H          -6.2064   -1.3393   -2.4037 H       1  UNL1        0.0266
     48 H          -5.9033    0.3859   -2.1301 H       1  UNL1        0.0266
     49 H          -7.8986   -1.3880   -0.8233 H       1  UNL1        0.0265
     50 H          -7.8485    0.4169   -0.9857 H       1  UNL1        0.0265
     51 H          -7.9632   -0.2227    1.2836 H       1  UNL1        0.0265
     52 H          -6.5346   -1.2720    1.2078 H       1  UNL1        0.0265
     53 H          -6.4943    1.2672    2.1218 H       1  UNL1        0.0266
     54 H          -6.2911    1.6704    0.4010 H       1  UNL1        0.0266
     55 H          -4.6597   -0.5516    1.7030 H       1  UNL1        0.0283
     56 H          -4.1621    1.2363    1.7362 H       1  UNL1        0.0283
@<TRIPOS>BOND
     1     1     2    1
     2     2     3   am
     3     3     4    2
     4     3     5    1
     5     5     6   ar
     6     6     7   ar
     7     7     8   ar
     8     8     9    1
     9     9    10    1
    10    10    11    1
    11    11    12    2
    12    11    13    2
    13    11    14    1
    14    14    15   ar
    15    15    16   ar
    16    16    17   ar
    17    17    18   ar
    18    18    19    1
    19    18    20   ar
    20     8    21   ar
    21    21    22   ar
    22     2    23    1
    23    23    24    1
    24    24    25    1
    25    25    26    1
    26    26    27    1
    27    27    28    1
    28    28    29    1
    29    22     5   ar
    30    29    23    1
    31    20    14   ar
    32     1    30    1
    33     1    31    1
    34     1    32    1
    35     6    33    1
    36     7    34    1
    37     9    35    1
    38     9    36    1
    39    10    37    1
    40    15    38    1
    41    16    39    1
    42    17    40    1
    43    20    41    1
    44    21    42    1
    45    22    43    1
    46    23    44    1
    47    24    45    1
    48    24    46    1
    49    25    47    1
    50    25    48    1
    51    26    49    1
    52    26    50    1
    53    27    51    1
    54    27    52    1
    55    28    53    1
    56    28    54    1
    57    29    55    1
    58    29    56    1
