@<TRIPOS>MOLECULE
*****
 105 105 0 0 0
SMALL
GASTEIGER

@<TRIPOS>ATOM
      1 C           1.0519    2.6610    2.6609 C.3     1  UNL1       -0.0650
      2 C           1.8089    1.9013    1.5546 C.3     1  UNL1       -0.0512
      3 C           2.9212    1.1494    2.1973 C.3     1  UNL1       -0.0170
      4 C           3.8759    2.1520    2.9082 C.3     1  UNL1       -0.0603
      5 C           3.7467    0.2857    1.2783 C.3     1  UNL1        0.1050
      6 N           4.3692    1.0246    0.2318 N.am    1  UNL1       -0.2696
      7 C           5.7875    1.2434    0.2247 C.2     1  UNL1        0.4012
      8 O           6.5388    0.7958    1.1132 O.2     1  UNL1       -0.2265
      9 O           6.3575    1.9805   -0.8004 O.3     1  UNL1       -0.4456
     10 C           7.7008    2.2829   -0.9769 C.3     1  UNL1        0.1191
     11 C           8.5775    1.1161   -1.1620 C.ar    1  UNL1       -0.0103
     12 C           9.3154    0.6283   -0.1211 C.ar    1  UNL1       -0.0554
     13 C          10.1319   -0.4808   -0.3081 C.ar    1  UNL1       -0.0614
     14 C          10.2002   -1.0895   -1.5365 C.ar    1  UNL1       -0.0617
     15 C           9.4429   -0.5751   -2.5760 C.ar    1  UNL1       -0.0614
     16 C           8.6306    0.5220   -2.4061 C.ar    1  UNL1       -0.0554
     17 C           3.0531   -0.9348    0.9084 C.2     1  UNL1        0.2343
     18 O           3.6021   -1.6747    0.0553 O.2     1  UNL1       -0.2738
     19 N           1.8061   -1.3383    1.4431 N.am    1  UNL1       -0.3025
     20 C           1.1004   -2.5413    1.0996 C.3     1  UNL1        0.0994
     21 C           0.2580   -3.1740    2.0978 C.3     1  UNL1       -0.0255
     22 C          -0.9018   -2.5334    2.7222 C.3     1  UNL1       -0.0408
     23 C          -0.7570   -1.2610    3.4715 C.3     1  UNL1        0.0450
     24 C          -2.1388   -0.9585    4.0602 C.2     1  UNL1        0.3076
     25 O          -2.2273    0.0962    4.7208 O.2     1  UNL1       -0.2508
     26 O          -3.2148   -1.7550    3.8996 O.3     1  UNL1       -0.4589
     27 C          -4.5026   -1.5791    4.3872 C.3     1  UNL1        0.1052
     28 C          -5.2034   -0.3251    3.9216 C.3     1  UNL1       -0.0254
     29 C          -4.5888   -1.6260    5.8991 C.3     1  UNL1       -0.0254
     30 C          -5.3238   -2.7567    3.8286 C.3     1  UNL1       -0.0254
     31 C           0.5504   -2.5493   -0.2814 C.2     1  UNL1        0.2339
     32 O           1.3438   -2.1083   -1.1694 O.2     1  UNL1       -0.2738
     33 N          -0.7103   -2.9801   -0.6949 N.am    1  UNL1       -0.3027
     34 C          -1.1743   -2.9837   -2.0891 C.3     1  UNL1        0.0966
     35 C          -2.3689   -3.8351   -2.3115 C.3     1  UNL1       -0.0381
     36 C          -1.4458   -1.5489   -2.4381 C.2     1  UNL1        0.2335
     37 O          -0.6367   -0.6836   -1.9860 O.2     1  UNL1       -0.2738
     38 N          -2.5111   -1.0835   -3.2220 N.am    1  UNL1       -0.3075
     39 C          -2.7124    0.3079   -3.5685 C.3     1  UNL1        0.0432
     40 C          -3.5569    0.9601   -2.5494 C.2     1  UNL1       -0.0464
     41 C          -4.8417    0.9394   -2.3751 C.2     1  UNL1        0.0495
     42 S          -6.0813    0.1309   -3.2794 S.O2    1  UNL1       -0.0127
     43 C          -7.6084    0.0853   -2.3076 C.3     1  UNL1        0.0589
     44 O          -6.4482    0.9684   -4.4960 O.2     1  UNL1       -0.1702
     45 O          -5.7959   -1.2774   -3.6313 O.2     1  UNL1       -0.1702
     46 C          -3.1473    0.5137   -4.9736 C.3     1  UNL1       -0.0285
     47 C          -3.3173    1.9887   -5.2717 C.3     1  UNL1       -0.0448
     48 C          -2.0232    2.7474   -5.0715 C.3     1  UNL1       -0.0626
     49 C          -3.6914    2.1358   -6.7442 C.3     1  UNL1       -0.0626
     50 H           1.1169    2.0240    3.5809 H       1  UNL1        0.0230
     51 H          -0.0156    2.7682    2.4407 H       1  UNL1        0.0230
     52 H           1.5616    3.6110    2.9130 H       1  UNL1        0.0230
     53 H           1.0855    1.3047    1.0223 H       1  UNL1        0.0266
     54 H           2.1771    2.7155    0.8762 H       1  UNL1        0.0266
     55 H           2.5069    0.5837    3.0715 H       1  UNL1        0.0321
     56 H           4.1081    2.9501    2.2073 H       1  UNL1        0.0233
     57 H           4.7404    1.5594    3.2558 H       1  UNL1        0.0233
     58 H           3.3734    2.5652    3.7990 H       1  UNL1        0.0233
     59 H           4.6216   -0.0778    1.9419 H       1  UNL1        0.0598
     60 H           3.8478    1.4408   -0.5833 H       1  UNL1        0.1528
     61 H           8.0630    2.8917   -0.0934 H       1  UNL1        0.0749
     62 H           7.7705    2.9982   -1.8253 H       1  UNL1        0.0749
     63 H           9.3002    1.0744    0.8823 H       1  UNL1        0.0621
     64 H          10.7287   -0.8858    0.5039 H       1  UNL1        0.0618
     65 H          10.8464   -1.9595   -1.6695 H       1  UNL1        0.0618
     66 H           9.5207   -1.0850   -3.5430 H       1  UNL1        0.0618
     67 H           8.0467    0.8976   -3.2594 H       1  UNL1        0.0621
     68 H           1.4294   -0.6655    2.1600 H       1  UNL1        0.1495
     69 H           2.0000   -3.2925    0.9414 H       1  UNL1        0.0594
     70 H           0.9254   -3.6723    2.8875 H       1  UNL1        0.0288
     71 H          -0.1644   -4.1295    1.5950 H       1  UNL1        0.0288
     72 H          -1.2721   -3.2873    3.5199 H       1  UNL1        0.0271
     73 H          -1.8042   -2.4380    2.0607 H       1  UNL1        0.0271
     74 H          -0.0636   -1.2469    4.2941 H       1  UNL1        0.0377
     75 H          -0.6674   -0.4203    2.7332 H       1  UNL1        0.0377
     76 H          -6.2509   -0.4117    4.2840 H       1  UNL1        0.0268
     77 H          -5.2674   -0.2344    2.8288 H       1  UNL1        0.0268
     78 H          -4.7870    0.5964    4.3996 H       1  UNL1        0.0268
     79 H          -3.9597   -0.7946    6.3251 H       1  UNL1        0.0268
     80 H          -4.2486   -2.6144    6.3079 H       1  UNL1        0.0268
     81 H          -5.6207   -1.4003    6.2129 H       1  UNL1        0.0268
     82 H          -5.1073   -2.7278    2.7178 H       1  UNL1        0.0268
     83 H          -5.0223   -3.7059    4.2714 H       1  UNL1        0.0268
     84 H          -6.3915   -2.4976    3.9450 H       1  UNL1        0.0268
     85 H          -1.3865   -3.3381    0.0327 H       1  UNL1        0.1495
     86 H          -0.2806   -3.2653   -2.7508 H       1  UNL1        0.0592
     87 H          -3.2632   -3.1832   -2.0625 H       1  UNL1        0.0252
     88 H          -2.3752   -4.7487   -1.6723 H       1  UNL1        0.0252
     89 H          -2.4107   -4.1856   -3.3569 H       1  UNL1        0.0252
     90 H          -3.1746   -1.8008   -3.5701 H       1  UNL1        0.1493
     91 H          -1.7056    0.8564   -3.4889 H       1  UNL1        0.0543
     92 H          -2.9935    1.5758   -1.7988 H       1  UNL1        0.0603
     93 H          -5.2255    1.5393   -1.5109 H       1  UNL1        0.0816
     94 H          -7.9354    1.1028   -2.0323 H       1  UNL1        0.0468
     95 H          -8.3640   -0.3862   -2.9596 H       1  UNL1        0.0468
     96 H          -7.4675   -0.5975   -1.4339 H       1  UNL1        0.0468
     97 H          -4.0644   -0.0219   -5.2809 H       1  UNL1        0.0289
     98 H          -2.3413    0.0869   -5.6420 H       1  UNL1        0.0289
     99 H          -4.0701    2.4272   -4.5935 H       1  UNL1        0.0296
    100 H          -1.1531    2.1486   -5.4493 H       1  UNL1        0.0232
    101 H          -2.0648    3.6370   -5.7408 H       1  UNL1        0.0232
    102 H          -1.8638    3.1098   -4.0478 H       1  UNL1        0.0232
    103 H          -2.9000    2.6661   -7.3109 H       1  UNL1        0.0232
    104 H          -4.6281    2.7193   -6.8575 H       1  UNL1        0.0232
    105 H          -3.7651    1.1305   -7.2200 H       1  UNL1        0.0232
@<TRIPOS>BOND
     1     1     2    1
     2     2     3    1
     3     3     4    1
     4     3     5    1
     5     5     6    1
     6     6     7   am
     7     7     8    2
     8     7     9    1
     9     9    10    1
    10    10    11    1
    11    11    12   ar
    12    12    13   ar
    13    13    14   ar
    14    14    15   ar
    15    15    16   ar
    16     5    17    1
    17    17    18    2
    18    17    19   am
    19    19    20    1
    20    20    21    1
    21    21    22    1
    22    22    23    1
    23    23    24    1
    24    24    25    2
    25    24    26    1
    26    26    27    1
    27    27    28    1
    28    27    29    1
    29    27    30    1
    30    20    31    1
    31    31    32    2
    32    31    33   am
    33    33    34    1
    34    34    35    1
    35    34    36    1
    36    36    37    2
    37    36    38   am
    38    38    39    1
    39    39    40    1
    40    40    41    2
    41    41    42    1
    42    42    43    1
    43    42    44    2
    44    42    45    2
    45    39    46    1
    46    46    47    1
    47    47    48    1
    48    47    49    1
    49    16    11   ar
    50     1    50    1
    51     1    51    1
    52     1    52    1
    53     2    53    1
    54     2    54    1
    55     3    55    1
    56     4    56    1
    57     4    57    1
    58     4    58    1
    59     5    59    1
    60     6    60    1
    61    10    61    1
    62    10    62    1
    63    12    63    1
    64    13    64    1
    65    14    65    1
    66    15    66    1
    67    16    67    1
    68    19    68    1
    69    20    69    1
    70    21    70    1
    71    21    71    1
    72    22    72    1
    73    22    73    1
    74    23    74    1
    75    23    75    1
    76    28    76    1
    77    28    77    1
    78    28    78    1
    79    29    79    1
    80    29    80    1
    81    29    81    1
    82    30    82    1
    83    30    83    1
    84    30    84    1
    85    33    85    1
    86    34    86    1
    87    35    87    1
    88    35    88    1
    89    35    89    1
    90    38    90    1
    91    39    91    1
    92    40    92    1
    93    41    93    1
    94    43    94    1
    95    43    95    1
    96    43    96    1
    97    46    97    1
    98    46    98    1
    99    47    99    1
   100    48   100    1
   101    48   101    1
   102    48   102    1
   103    49   103    1
   104    49   104    1
   105    49   105    1
