@<TRIPOS>MOLECULE
*****
 46 49 0 0 0
SMALL
GASTEIGER

@<TRIPOS>ATOM
      1 C           1.6026    2.9783   -2.0296 C.3     1  UNL1       -0.0375
      2 C           1.4296    3.7923   -0.7743 C.ar    1  UNL1       -0.0187
      3 C           1.5916    5.1509   -0.8517 C.ar    1  UNL1       -0.0378
      4 C           1.4343    5.9218    0.2888 C.ar    1  UNL1        0.0701
      5 C           1.7278    7.3071    0.1313 C.1     1  UNL1        0.1007
      6 N           1.9744    8.4753   -0.0143 N.1     1  UNL1       -0.1908
      7 C           1.1137    5.3067    1.4745 C.ar    1  UNL1        0.0458
      8 N           0.9603    3.9966    1.5338 N.ar    1  UNL1       -0.2488
      9 C           1.1132    3.2236    0.4392 C.ar    1  UNL1        0.1286
     10 C           1.0592    1.7747    0.5716 C.2     1  UNL1        0.2668
     11 O           1.4623    1.0341   -0.3972 O.2     1  UNL1       -0.2682
     12 N           0.5735    1.1603    1.7593 N.am    1  UNL1       -0.2802
     13 C           0.6063   -0.2913    1.7966 C.ar    1  UNL1        0.0341
     14 C           1.6880   -0.8667    2.3883 C.ar    1  UNL1       -0.0391
     15 C           1.8072   -2.2347    2.3654 C.ar    1  UNL1       -0.0413
     16 C           0.7969   -2.9536    1.7246 C.ar    1  UNL1        0.0467
     17 CL          1.0293   -4.6854    1.7194 Cl      1  UNL1       -0.0832
     18 C          -0.2938   -2.4362    1.1233 C.ar    1  UNL1        0.0059
     19 C          -1.3347   -3.1299    0.3815 C.3     1  UNL1        0.1590
     20 C          -2.1597   -4.1538    1.0946 C.3     1  UNL1        0.2685
     21 F          -3.1101   -4.6239    0.1488 F       1  UNL1       -0.2062
     22 F          -1.5028   -5.3285    1.4015 F       1  UNL1       -0.2062
     23 N          -2.3180   -2.1324   -0.0588 N.2     1  UNL1       -0.2194
     24 C          -2.2695   -1.4644   -1.1313 C.2     1  UNL1        0.2764
     25 N          -3.3219   -0.5237   -1.4230 N.pl3   1  UNL1       -0.3134
     26 O          -1.2112   -1.6559   -1.9826 O.2     1  UNL1       -0.4622
     27 C          -0.5067   -2.8546   -1.9765 C.3     1  UNL1        0.1091
     28 C          -1.4529   -4.1003   -2.0426 C.3     1  UNL1       -0.0064
     29 C          -0.6845   -3.7603   -0.8283 C.3     1  UNL1        0.0344
     30 C          -0.3861   -1.0222    1.1684 C.ar    1  UNL1       -0.0334
     31 H           2.5835    2.4816   -2.0856 H       1  UNL1        0.0278
     32 H           1.5482    3.7024   -2.8756 H       1  UNL1        0.0278
     33 H           0.7459    2.2831   -2.1595 H       1  UNL1        0.0278
     34 H           1.8516    5.6081   -1.8100 H       1  UNL1        0.0634
     35 H           1.0067    5.9716    2.3286 H       1  UNL1        0.0843
     36 H           0.2155    1.7092    2.5414 H       1  UNL1        0.1552
     37 H           2.4554   -0.2442    2.8710 H       1  UNL1        0.0636
     38 H           2.6500   -2.7062    2.8284 H       1  UNL1        0.0633
     39 H          -2.7707   -3.7817    1.9231 H       1  UNL1        0.1047
     40 H          -3.4845   -0.1444   -2.3941 H       1  UNL1        0.1466
     41 H          -3.9396   -0.2068   -0.6689 H       1  UNL1        0.1466
     42 H           0.3985   -2.8952   -2.6308 H       1  UNL1        0.0737
     43 H          -1.1200   -4.8860   -2.7367 H       1  UNL1        0.0306
     44 H          -2.5362   -3.8996   -2.1108 H       1  UNL1        0.0306
     45 H           0.1742   -4.4130   -0.6199 H       1  UNL1        0.0366
     46 H          -1.1964   -0.4825    0.7460 H       1  UNL1        0.0640
@<TRIPOS>BOND
     1     1     2    1
     2     2     3   ar
     3     3     4   ar
     4     4     5    1
     5     5     6    3
     6     4     7   ar
     7     7     8   ar
     8     8     9   ar
     9     9    10    1
    10    10    11    2
    11    10    12   am
    12    12    13    1
    13    13    14   ar
    14    14    15   ar
    15    15    16   ar
    16    16    17    1
    17    16    18   ar
    18    18    19    1
    19    19    20    1
    20    20    21    1
    21    20    22    1
    22    19    23    1
    23    23    24    2
    24    24    25    1
    25    24    26    1
    26    26    27    1
    27    27    28    1
    28    28    29    1
    29    18    30   ar
    30     9     2   ar
    31    30    13   ar
    32    29    19    1
    33    29    27    1
    34     1    31    1
    35     1    32    1
    36     1    33    1
    37     3    34    1
    38     7    35    1
    39    12    36    1
    40    14    37    1
    41    15    38    1
    42    20    39    1
    43    25    40    1
    44    25    41    1
    45    27    42    1
    46    28    43    1
    47    28    44    1
    48    29    45    1
    49    30    46    1
