@<TRIPOS>MOLECULE
*****
 49 51 0 0 0
SMALL
GASTEIGER

@<TRIPOS>ATOM
      1 C          -6.0252   -2.8516    2.5219 C.3     1  UNL1        0.0790
      2 O          -5.9103   -1.5891    1.9379 O.3     1  UNL1       -0.4913
      3 C          -4.7712   -1.1416    1.2998 C.ar    1  UNL1        0.1669
      4 C          -3.6552   -1.9175    1.1905 C.ar    1  UNL1        0.0052
      5 C          -2.4737   -1.5786    0.5833 C.ar    1  UNL1        0.0407
      6 N          -1.3700   -2.4621    0.4898 N.pl3   1  UNL1       -0.2833
      7 C          -0.0104   -2.1842    0.2116 C.ar    1  UNL1        0.2238
      8 N           0.8413   -3.2171    0.0511 N.ar    1  UNL1       -0.2026
      9 C           2.1284   -3.0239   -0.1755 C.ar    1  UNL1        0.1232
     10 N           2.6105   -1.7771   -0.2492 N.ar    1  UNL1       -0.2026
     11 C           1.7669   -0.7385   -0.0900 C.ar    1  UNL1        0.2238
     12 N           2.2634    0.6105   -0.1250 N.pl3   1  UNL1       -0.2835
     13 C           3.5998    1.0120   -0.3539 C.ar    1  UNL1        0.0352
     14 C           4.0694    2.2637    0.0578 C.ar    1  UNL1       -0.0186
     15 C           5.3656    2.6832   -0.1408 C.ar    1  UNL1        0.0843
     16 CL          5.7340    4.3023    0.4605 Cl      1  UNL1       -0.0797
     17 C           6.2913    1.8724   -0.7721 C.ar    1  UNL1        0.1384
     18 O           7.5184    2.4525   -0.8678 O.3     1  UNL1       -0.4936
     19 C           8.6764    1.9419   -1.4520 C.3     1  UNL1        0.0789
     20 C           5.8593    0.6305   -1.1950 C.ar    1  UNL1       -0.0167
     21 C           4.5663    0.2567   -0.9761 C.ar    1  UNL1       -0.0369
     22 N           0.4431   -0.8989    0.1422 N.ar    1  UNL1       -0.1806
     23 C          -2.4488   -0.3214    0.0407 C.ar    1  UNL1        0.0052
     24 C          -3.5144    0.5437    0.0916 C.ar    1  UNL1        0.1669
     25 O          -3.6639    1.8255   -0.3951 O.3     1  UNL1       -0.4913
     26 C          -2.6808    2.5365   -1.0833 C.3     1  UNL1        0.0790
     27 C          -4.6924    0.1375    0.7266 C.ar    1  UNL1        0.2036
     28 O          -5.8672    0.8815    0.8727 O.3     1  UNL1       -0.4885
     29 C          -6.8460    0.7352   -0.1564 C.3     1  UNL1        0.0791
     30 H          -5.0996   -2.9801    3.1507 H       1  UNL1        0.0660
     31 H          -6.0523   -3.5963    1.6983 H       1  UNL1        0.0660
     32 H          -6.8707   -2.9389    3.2261 H       1  UNL1        0.0660
     33 H          -3.7021   -2.9250    1.6368 H       1  UNL1        0.0674
     34 H          -1.6427   -3.4680    0.6578 H       1  UNL1        0.1550
     35 H           2.7965   -3.8745   -0.3023 H       1  UNL1        0.1049
     36 H           1.5963    1.4092    0.0323 H       1  UNL1        0.1550
     37 H           3.3288    2.8994    0.5566 H       1  UNL1        0.0652
     38 H           9.5685    2.3090   -0.9003 H       1  UNL1        0.0660
     39 H           8.7482    2.0932   -2.5382 H       1  UNL1        0.0660
     40 H           8.6738    0.8294   -1.2461 H       1  UNL1        0.0660
     41 H           6.6101    0.0494   -1.6780 H       1  UNL1        0.0655
     42 H           4.3499   -0.7252   -1.3532 H       1  UNL1        0.0637
     43 H          -1.6067    0.0789   -0.4617 H       1  UNL1        0.0674
     44 H          -2.2606    3.3907   -0.4886 H       1  UNL1        0.0660
     45 H          -1.8407    1.8706   -1.3339 H       1  UNL1        0.0660
     46 H          -3.0650    3.0101   -2.0133 H       1  UNL1        0.0660
     47 H          -6.7655   -0.2960   -0.5616 H       1  UNL1        0.0660
     48 H          -7.8719    0.8455    0.2058 H       1  UNL1        0.0660
     49 H          -6.6991    1.5141   -0.9329 H       1  UNL1        0.0660
@<TRIPOS>BOND
     1     1     2    1
     2     2     3    1
     3     3     4   ar
     4     4     5   ar
     5     5     6    1
     6     6     7    1
     7     7     8   ar
     8     8     9   ar
     9     9    10   ar
    10    10    11   ar
    11    11    12    1
    12    12    13    1
    13    13    14   ar
    14    14    15   ar
    15    15    16    1
    16    15    17   ar
    17    17    18    1
    18    18    19    1
    19    17    20   ar
    20    20    21   ar
    21    11    22   ar
    22     5    23   ar
    23    23    24   ar
    24    24    25    1
    25    25    26    1
    26    24    27   ar
    27    27    28    1
    28    28    29    1
    29    27     3   ar
    30    22     7   ar
    31    21    13   ar
    32     1    30    1
    33     1    31    1
    34     1    32    1
    35     4    33    1
    36     6    34    1
    37     9    35    1
    38    12    36    1
    39    14    37    1
    40    19    38    1
    41    19    39    1
    42    19    40    1
    43    20    41    1
    44    21    42    1
    45    23    43    1
    46    26    44    1
    47    26    45    1
    48    26    46    1
    49    29    47    1
    50    29    48    1
    51    29    49    1
