@<TRIPOS>MOLECULE
*****
 54 56 0 0 0
SMALL
GASTEIGER

@<TRIPOS>ATOM
      1 C          -1.4745   -0.9876   -1.0278 C.3     1  UNL1        0.0654
      2 C          -1.5139    0.1508   -0.0974 C.3     1  UNL1       -0.0394
      3 C          -2.6112    0.2659    0.8790 C.3     1  UNL1       -0.0518
      4 C          -4.0012    0.3943    0.3735 C.3     1  UNL1       -0.0421
      5 C          -4.9428    0.5122    1.5915 C.3     1  UNL1        0.0500
      6 C          -4.5836    1.7091    2.3958 C.2     1  UNL1        0.2761
      7 N          -4.6834    2.9332    1.6992 N.pl3   1  UNL1       -0.2508
      8 N          -4.1925    1.7725    3.6464 N.2     1  UNL1       -0.1041
      9 C          -2.6663   -1.0449   -1.8970 C.2     1  UNL1        0.3085
     10 O          -3.0262    0.0648   -2.6457 O.3     1  UNL1       -0.4804
     11 O          -3.3370   -2.1360   -1.9293 O.2     1  UNL1       -0.2507
     12 C          -0.2803   -0.9720   -1.9572 C.3     1  UNL1        0.0236
     13 C           1.0093   -1.0074   -1.2728 C.ar    1  UNL1       -0.0372
     14 C           1.4519   -2.3122   -1.3460 C.ar    1  UNL1       -0.0413
     15 C           0.4914   -3.1862   -2.0688 C.3     1  UNL1       -0.0007
     16 C          -0.3030   -2.1796   -2.8665 C.3     1  UNL1        0.0667
     17 O           0.2940   -1.9129   -4.0965 O.3     1  UNL1       -0.3908
     18 C           2.6646   -2.6226   -0.7691 C.ar    1  UNL1       -0.0576
     19 C           3.4520   -1.6833   -0.1227 C.ar    1  UNL1       -0.0538
     20 C           2.9892   -0.3747   -0.0595 C.ar    1  UNL1       -0.0176
     21 C           1.7740   -0.0484   -0.6340 C.ar    1  UNL1       -0.0502
     22 C           3.8750    0.5588    0.6393 C.ar    1  UNL1       -0.0177
     23 C           4.6388    0.0593    1.6838 C.ar    1  UNL1       -0.0506
     24 C           5.5038    0.8721    2.4001 C.ar    1  UNL1       -0.0196
     25 C           5.5833    2.1996    2.0420 C.ar    1  UNL1        0.1169
     26 O           6.4435    3.0495    2.7404 O.3     1  UNL1       -0.5068
     27 C           4.8442    2.7467    1.0096 C.ar    1  UNL1       -0.0196
     28 C           3.9955    1.9121    0.3193 C.ar    1  UNL1       -0.0506
     29 H          -1.3631   -1.9321   -0.4346 H       1  UNL1        0.0420
     30 H          -0.5549    0.0977    0.5153 H       1  UNL1        0.0273
     31 H          -1.4990    1.0894   -0.7090 H       1  UNL1        0.0273
     32 H          -2.3983    1.2016    1.4873 H       1  UNL1        0.0266
     33 H          -2.5368   -0.5361    1.6827 H       1  UNL1        0.0266
     34 H          -4.4087   -0.4413   -0.1940 H       1  UNL1        0.0271
     35 H          -4.1297    1.3649   -0.1678 H       1  UNL1        0.0271
     36 H          -5.9734    0.6762    1.2085 H       1  UNL1        0.0387
     37 H          -4.8715   -0.4187    2.1698 H       1  UNL1        0.0387
     38 H          -5.2608    3.1403    0.8574 H       1  UNL1        0.2881
     39 H          -4.2215    3.8612    1.8655 H       1  UNL1        0.2881
     40 H          -4.1079    0.8823    4.1905 H       1  UNL1        0.3629
     41 H          -3.8160    0.0162   -3.3075 H       1  UNL1        0.2951
     42 H          -0.2716   -0.0830   -2.6209 H       1  UNL1        0.0382
     43 H           1.0197   -3.9210   -2.7233 H       1  UNL1        0.0338
     44 H          -0.1177   -3.7482   -1.3530 H       1  UNL1        0.0338
     45 H          -1.3146   -2.6219   -2.9835 H       1  UNL1        0.0603
     46 H          -0.3630   -2.1159   -4.8300 H       1  UNL1        0.2098
     47 H           3.0270   -3.6569   -0.8210 H       1  UNL1        0.0621
     48 H           4.3989   -2.0381    0.3010 H       1  UNL1        0.0624
     49 H           1.4624    0.9679   -0.5592 H       1  UNL1        0.0627
     50 H           4.6301   -0.9674    2.0217 H       1  UNL1        0.0625
     51 H           6.1134    0.5041    3.2236 H       1  UNL1        0.0654
     52 H           6.8560    3.8775    2.3102 H       1  UNL1        0.2921
     53 H           4.9269    3.7997    0.7482 H       1  UNL1        0.0654
     54 H           3.3796    2.2683   -0.5075 H       1  UNL1        0.0625
@<TRIPOS>BOND
     1     1     2    1
     2     2     3    1
     3     3     4    1
     4     4     5    1
     5     5     6    1
     6     6     7    1
     7     6     8    2
     8     1     9    1
     9     9    10    1
    10     9    11    2
    11     1    12    1
    12    12    13    1
    13    13    14   ar
    14    14    15    1
    15    15    16    1
    16    16    17    1
    17    14    18   ar
    18    18    19   ar
    19    19    20   ar
    20    20    21   ar
    21    20    22    1
    22    22    23   ar
    23    23    24   ar
    24    24    25   ar
    25    25    26    1
    26    25    27   ar
    27    27    28   ar
    28    16    12    1
    29    28    22   ar
    30    21    13   ar
    31     1    29    1
    32     2    30    1
    33     2    31    1
    34     3    32    1
    35     3    33    1
    36     4    34    1
    37     4    35    1
    38     5    36    1
    39     5    37    1
    40     7    38    1
    41     7    39    1
    42     8    40    1
    43    10    41    1
    44    12    42    1
    45    15    43    1
    46    15    44    1
    47    16    45    1
    48    17    46    1
    49    18    47    1
    50    19    48    1
    51    21    49    1
    52    23    50    1
    53    24    51    1
    54    26    52    1
    55    27    53    1
    56    28    54    1
