
     RDKit          3D

 56 57  0  0  0  0  0  0  0  0999 V2000
    7.0362   -0.4979   -0.1769 C   0  0  0  0  0  0  0  0  0  0  0  0
    6.8762    0.9610   -0.3651 C   0  0  0  0  0  0  0  0  0  0  0  0
    5.7885    1.3818   -1.2537 C   0  0  0  0  0  0  0  0  0  0  0  0
    4.4570    1.0661   -0.8926 N   0  0  0  0  0  0  0  0  0  0  0  0
    3.8179   -0.1769   -0.7942 C   0  0  0  0  0  0  0  0  0  0  0  0
    4.4319   -1.2230   -1.0639 O   0  0  0  0  0  0  0  0  0  0  0  0
    2.3981   -0.2610   -0.3664 C   0  0  1  0  0  0  0  0  0  0  0  0
    1.6590   -1.1269   -1.2844 O   0  0  0  0  0  0  0  0  0  0  0  0
    1.7799   -1.5030    0.0621 C   0  0  2  0  0  0  0  0  0  0  0  0
    0.5008   -1.4024    0.8046 C   0  0  0  0  0  0  0  0  0  0  0  0
    0.1450   -2.2344    1.6796 O   0  0  0  0  0  0  0  0  0  0  0  0
   -0.3986   -0.3310    0.5486 N   0  0  0  0  0  0  0  0  0  0  0  0
   -1.6554   -0.1699    1.2299 C   0  0  2  0  0  0  0  0  0  0  0  0
   -2.8595   -0.4550    0.4725 C   0  0  0  0  0  0  0  0  0  0  0  0
   -3.9629   -0.3333    1.1260 O   0  0  0  0  0  0  0  0  0  0  0  0
   -2.9726   -0.8533   -0.8948 N   0  0  0  0  0  0  0  0  0  0  0  0
   -1.8739   -0.9755   -1.8193 C   0  0  0  0  0  0  0  0  0  0  0  0
   -2.4647   -1.3248   -3.1679 C   0  0  0  0  0  0  0  0  0  0  0  0
   -3.7742   -1.9449   -2.8048 C   0  0  0  0  0  0  0  0  0  0  0  0
   -4.1857   -1.2032   -1.5611 C   0  0  1  0  0  0  0  0  0  0  0  0
   -5.0782   -2.0986   -0.7402 C   0  0  0  0  0  0  0  0  0  0  0  0
   -4.6268   -2.6078    0.2860 O   0  0  0  0  0  0  0  0  0  0  0  0
   -6.3688   -2.3350   -1.1386 O   0  0  0  0  0  0  0  0  0  0  0  0
   -1.5973    1.1755    1.9040 C   0  0  1  0  0  0  0  0  0  0  0  0
   -1.4038    2.2935    0.8928 C   0  0  0  0  0  0  0  0  0  0  0  0
   -2.6880    1.4496    2.8843 C   0  0  0  0  0  0  0  0  0  0  0  0
   -2.4028    2.8615    3.4316 C   0  0  0  0  0  0  0  0  0  0  0  0
    6.3787   -0.8797    0.6087 H   0  0  0  0  0  0  0  0  0  0  0  0
    7.0131   -1.0371   -1.1308 H   0  0  0  0  0  0  0  0  0  0  0  0
    8.1021   -0.6885    0.2446 H   0  0  0  0  0  0  0  0  0  0  0  0
    7.8621    1.3606   -0.7821 H   0  0  0  0  0  0  0  0  0  0  0  0
    6.7699    1.4014    0.6761 H   0  0  0  0  0  0  0  0  0  0  0  0
    5.8783    2.4934   -1.4314 H   0  0  0  0  0  0  0  0  0  0  0  0
    5.9761    0.8914   -2.2685 H   0  0  0  0  0  0  0  0  0  0  0  0
    3.8176    1.9068   -0.6497 H   0  0  0  0  0  0  0  0  0  0  0  0
    1.9028    0.6909   -0.1403 H   0  0  0  0  0  0  0  0  0  0  0  0
    2.4046   -2.3680    0.3328 H   0  0  0  0  0  0  0  0  0  0  0  0
   -0.1130    0.3749   -0.1536 H   0  0  0  0  0  0  0  0  0  0  0  0
   -1.6077   -0.9319    2.0832 H   0  0  0  0  0  0  0  0  0  0  0  0
   -1.1301   -1.7230   -1.5595 H   0  0  0  0  0  0  0  0  0  0  0  0
   -1.4785    0.0648   -1.9522 H   0  0  0  0  0  0  0  0  0  0  0  0
   -2.6740   -0.4332   -3.7940 H   0  0  0  0  0  0  0  0  0  0  0  0
   -1.7960   -2.0032   -3.7296 H   0  0  0  0  0  0  0  0  0  0  0  0
   -4.5320   -1.8493   -3.6131 H   0  0  0  0  0  0  0  0  0  0  0  0
   -3.5791   -3.0215   -2.6006 H   0  0  0  0  0  0  0  0  0  0  0  0
   -4.7809   -0.3178   -1.8807 H   0  0  0  0  0  0  0  0  0  0  0  0
   -7.0039   -2.9682   -0.6701 H   0  0  0  0  0  0  0  0  0  0  0  0
   -0.6426    1.1860    2.5142 H   0  0  0  0  0  0  0  0  0  0  0  0
   -2.1051    3.1437    1.0996 H   0  0  0  0  0  0  0  0  0  0  0  0
   -0.3988    2.7192    0.8873 H   0  0  0  0  0  0  0  0  0  0  0  0
   -1.6051    1.9362   -0.1453 H   0  0  0  0  0  0  0  0  0  0  0  0
   -2.6076    0.7601    3.7242 H   0  0  0  0  0  0  0  0  0  0  0  0
   -3.7063    1.5201    2.4462 H   0  0  0  0  0  0  0  0  0  0  0  0
   -2.5937    2.8944    4.5264 H   0  0  0  0  0  0  0  0  0  0  0  0
   -1.3345    3.1309    3.3016 H   0  0  0  0  0  0  0  0  0  0  0  0
   -2.9941    3.6155    2.8730 H   0  0  0  0  0  0  0  0  0  0  0  0
  1  2  1  0
  2  3  1  0
  3  4  1  0
  4  5  1  0
  5  6  2  0
  5  7  1  0
  7  8  1  0
  8  9  1  0
  9 10  1  0
 10 11  2  0
 10 12  1  0
 12 13  1  0
 13 14  1  0
 14 15  2  0
 14 16  1  0
 16 17  1  0
 17 18  1  0
 18 19  1  0
 19 20  1  0
 20 21  1  0
 21 22  2  0
 21 23  1  0
 13 24  1  0
 24 25  1  0
 24 26  1  0
 26 27  1  0
  9  7  1  0
 20 16  1  0
  1 28  1  0
  1 29  1  0
  1 30  1  0
  2 31  1  0
  2 32  1  0
  3 33  1  0
  3 34  1  0
  4 35  1  0
  7 36  1  1
  9 37  1  6
 12 38  1  0
 13 39  1  1
 17 40  1  0
 17 41  1  0
 18 42  1  0
 18 43  1  0
 19 44  1  0
 19 45  1  0
 20 46  1  6
 23 47  1  0
 24 48  1  1
 25 49  1  0
 25 50  1  0
 25 51  1  0
 26 52  1  0
 26 53  1  0
 27 54  1  0
 27 55  1  0
 27 56  1  0
M  END
$$$$
