@<TRIPOS>MOLECULE
*****
 56 57 0 0 0
SMALL
GASTEIGER

@<TRIPOS>ATOM
      1 C           7.0362   -0.4979   -0.1769 C.3     0  UNK0       -0.0639
      2 C           6.8762    0.9610   -0.3651 C.3     0  UNK0       -0.0402
      3 C           5.7885    1.3818   -1.2537 C.3     0  UNK0        0.0114
      4 N           4.4570    1.0661   -0.8926 N.am    0  UNK0       -0.3131
      5 C           3.8179   -0.1769   -0.7942 C.2     0  UNK0        0.2450
      6 O           4.4319   -1.2230   -1.0639 O.2     0  UNK0       -0.2729
      7 C           2.3981   -0.2610   -0.3664 C.3     0  UNK0        0.1698
      8 O           1.6590   -1.1269   -1.2844 O.3     0  UNK0       -0.3487
      9 C           1.7799   -1.5030    0.0621 C.3     0  UNK0        0.1698
     10 C           0.5008   -1.4024    0.8046 C.2     0  UNK0        0.2456
     11 O           0.1450   -2.2344    1.6796 O.2     0  UNK0       -0.2728
     12 N          -0.3986   -0.3310    0.5486 N.am    1  ILE1       -0.3015
     13 CA         -1.6554   -0.1699    1.2299 C.3     1  ILE1        0.1022
     14 C          -2.8595   -0.4550    0.4725 C.2     1  ILE1        0.2368
     15 O          -3.9629   -0.3333    1.1260 O.2     1  ILE1       -0.2735
     16 N          -2.9726   -0.8533   -0.8948 N.am    2  PRO2       -0.2865
     17 CD         -1.8739   -0.9755   -1.8193 C.3     2  PRO2        0.0157
     18 CG         -2.4647   -1.3248   -3.1679 C.3     2  PRO2       -0.0349
     19 CB         -3.7742   -1.9449   -2.8048 C.3     2  PRO2       -0.0225
     20 CA         -4.1857   -1.2032   -1.5611 C.3     2  PRO2        0.1228
     21 C          -5.0782   -2.0986   -0.7402 C.2     2  PRO2        0.3255
     22 O          -4.6268   -2.6078    0.2860 O.2     2  PRO2       -0.2489
     23 OXT        -6.3688   -2.3350   -1.1386 O.3     2  PRO2       -0.4793
     24 CB         -1.5973    1.1755    1.9040 C.3     1  ILE1       -0.0171
     25 CG2        -1.4038    2.2935    0.8928 C.3     1  ILE1       -0.0603
     26 CG1        -2.6880    1.4496    2.8843 C.3     1  ILE1       -0.0512
     27 CD1        -2.4028    2.8615    3.4316 C.3     1  ILE1       -0.0650
     28 H           6.3787   -0.8797    0.6087 H       0  UNK0        0.0230
     29 H           7.0131   -1.0371   -1.1308 H       0  UNK0        0.0230
     30 H           8.1021   -0.6885    0.2446 H       0  UNK0        0.0230
     31 H           7.8621    1.3606   -0.7821 H       0  UNK0        0.0278
     32 H           6.7699    1.4014    0.6761 H       0  UNK0        0.0278
     33 H           5.8783    2.4934   -1.4314 H       0  UNK0        0.0462
     34 H           5.9761    0.8914   -2.2685 H       0  UNK0        0.0462
     35 H           3.8176    1.9068   -0.6497 H       0  UNK0        0.1488
     36 H           1.9028    0.6909   -0.1403 H       0  UNK0        0.0725
     37 H           2.4046   -2.3680    0.3328 H       0  UNK0        0.0725
     38 H          -0.1130    0.3749   -0.1536 H       1  ILE1        0.1495
     39 HA         -1.6077   -0.9319    2.0832 H       1  ILE1        0.0597
     40 HD1        -1.1301   -1.7230   -1.5595 H       2  PRO2        0.0465
     41 HD2        -1.4785    0.0648   -1.9522 H       2  PRO2        0.0465
     42 HG1        -2.6740   -0.4332   -3.7940 H       2  PRO2        0.0281
     43 HG2        -1.7960   -2.0032   -3.7296 H       2  PRO2        0.0281
     44 HB1        -4.5320   -1.8493   -3.6131 H       2  PRO2        0.0289
     45 HB2        -3.5791   -3.0215   -2.6006 H       2  PRO2        0.0289
     46 HA         -4.7809   -0.3178   -1.8807 H       2  PRO2        0.0616
     47 HXT        -7.0039   -2.9682   -0.6701 H       2  PRO2        0.2951
     48 HB         -0.6426    1.1860    2.5142 H       1  ILE1        0.0321
     49 HG21       -2.1051    3.1437    1.0996 H       1  ILE1        0.0233
     50 HG22       -0.3988    2.7192    0.8873 H       1  ILE1        0.0233
     51 HG23       -1.6051    1.9362   -0.1453 H       1  ILE1        0.0233
     52 HG11       -2.6076    0.7601    3.7242 H       1  ILE1        0.0266
     53 HG12       -3.7063    1.5201    2.4462 H       1  ILE1        0.0266
     54 HD11       -2.5937    2.8944    4.5264 H       1  ILE1        0.0230
     55 HD12       -1.3345    3.1309    3.3016 H       1  ILE1        0.0230
     56 HD13       -2.9941    3.6155    2.8730 H       1  ILE1        0.0230
@<TRIPOS>BOND
     1     1     2    1
     2     2     3    1
     3     3     4    1
     4     4     5   am
     5     5     6    2
     6     5     7    1
     7     7     8    1
     8     8     9    1
     9     9    10    1
    10    10    11    2
    11    10    12   am
    12    12    13    1
    13    13    14    1
    14    14    15    2
    15    14    16   am
    16    16    17    1
    17    17    18    1
    18    18    19    1
    19    19    20    1
    20    20    21    1
    21    21    22    2
    22    21    23    1
    23    13    24    1
    24    24    25    1
    25    24    26    1
    26    26    27    1
    27     9     7    1
    28    20    16    1
    29     1    28    1
    30     1    29    1
    31     1    30    1
    32     2    31    1
    33     2    32    1
    34     3    33    1
    35     3    34    1
    36     4    35    1
    37     7    36    1
    38     9    37    1
    39    12    38    1
    40    13    39    1
    41    17    40    1
    42    17    41    1
    43    18    42    1
    44    18    43    1
    45    19    44    1
    46    19    45    1
    47    20    46    1
    48    23    47    1
    49    24    48    1
    50    25    49    1
    51    25    50    1
    52    25    51    1
    53    26    52    1
    54    26    53    1
    55    27    54    1
    56    27    55    1
    57    27    56    1
