
     RDKit          3D

 31 32  0  0  0  0  0  0  0  0999 V2000
   -6.0822   -0.3805    0.2148 O   0  0  0  0  0  0  0  0  0  0  0  0
   -4.9229    0.0677    0.1122 C   0  0  0  0  0  0  0  0  0  0  0  0
   -4.6457    1.3188    0.6163 O   0  0  0  0  0  0  0  0  0  0  0  0
   -3.8857   -0.7421   -0.5392 C   0  0  0  0  0  0  0  0  0  0  0  0
   -2.6270    0.0065   -0.5306 N   0  0  0  0  0  0  0  0  0  0  0  0
   -2.1857    0.9016   -1.5451 C   0  0  0  0  0  0  0  0  0  0  0  0
   -2.7994    1.1980   -2.6130 O   0  0  0  0  0  0  0  0  0  0  0  0
   -0.8844    1.4063   -1.1034 C   0  0  0  0  0  0  0  0  0  0  0  0
   -0.1771    2.2316   -1.7495 O   0  0  0  0  0  0  0  0  0  0  0  0
   -0.5522    0.8238    0.1534 N   0  0  0  0  0  0  0  0  0  0  0  0
    0.6530    1.0772    0.9072 C   0  0  0  0  0  0  0  0  0  0  0  0
    1.7486    0.1499    0.5674 C   0  0  0  0  0  0  0  0  0  0  0  0
    1.9384   -1.0479    1.2239 C   0  0  0  0  0  0  0  0  0  0  0  0
    2.9535   -1.9322    0.9259 C   0  0  0  0  0  0  0  0  0  0  0  0
    3.8187   -1.5659   -0.1011 C   0  0  0  0  0  0  0  0  0  0  0  0
    5.1142   -2.6627   -0.5051 Cl  0  0  0  0  0  0  0  0  0  0  0  0
    3.6863   -0.3835   -0.7984 C   0  0  0  0  0  0  0  0  0  0  0  0
    4.5736   -0.0257   -1.8400 N   0  0  0  0  0  4  0  0  0  0  0  0
    4.8110    1.1714   -2.1448 O   0  0  0  0  0  0  0  0  0  0  0  0
    5.2247   -0.9860   -2.5755 O   0  0  0  0  0  1  0  0  0  0  0  0
    2.6554    0.4519   -0.4523 C   0  0  0  0  0  0  0  0  0  0  0  0
   -1.6271   -0.0265    0.4857 C   0  0  0  0  0  0  0  0  0  0  0  0
   -1.7004   -0.7119    1.5175 O   0  0  0  0  0  0  0  0  0  0  0  0
   -5.3990    2.0032    0.6795 H   0  0  0  0  0  0  0  0  0  0  0  0
   -4.2210   -0.9098   -1.6047 H   0  0  0  0  0  0  0  0  0  0  0  0
   -3.7818   -1.7445   -0.1036 H   0  0  0  0  0  0  0  0  0  0  0  0
    0.4156    1.0194    1.9902 H   0  0  0  0  0  0  0  0  0  0  0  0
    1.0184    2.1059    0.6659 H   0  0  0  0  0  0  0  0  0  0  0  0
    1.2462   -1.3170    2.0288 H   0  0  0  0  0  0  0  0  0  0  0  0
    3.0808   -2.8648    1.4558 H   0  0  0  0  0  0  0  0  0  0  0  0
    2.5532    1.3677   -0.9927 H   0  0  0  0  0  0  0  0  0  0  0  0
  1  2  2  0
  2  3  1  0
  2  4  1  0
  4  5  1  0
  5  6  1  0
  6  7  2  0
  6  8  1  0
  8  9  2  0
  8 10  1  0
 10 11  1  0
 11 12  1  0
 12 13  2  0
 13 14  1  0
 14 15  2  0
 15 16  1  0
 15 17  1  0
 17 18  1  0
 18 19  2  0
 18 20  1  0
 17 21  2  0
 10 22  1  0
 22 23  2  0
 22  5  1  0
 21 12  1  0
  3 24  1  0
  4 25  1  0
  4 26  1  0
 11 27  1  0
 11 28  1  0
 13 29  1  0
 14 30  1  0
 21 31  1  0
M  CHG  2  18   1  20  -1
M  END
$$$$
