@<TRIPOS>MOLECULE
*****
 31 32 0 0 0
SMALL
GASTEIGER

@<TRIPOS>ATOM
      1 O          -6.0822   -0.3805    0.2148 O.2     1  UNL1       -0.2492
      2 C          -4.9229    0.0677    0.1122 C.2     1  UNL1        0.3228
      3 O          -4.6457    1.3188    0.6163 O.3     1  UNL1       -0.4795
      4 C          -3.8857   -0.7421   -0.5392 C.3     1  UNL1        0.1212
      5 N          -2.6270    0.0065   -0.5306 N.am    1  UNL1       -0.2069
      6 C          -2.1857    0.9016   -1.5451 C.2     1  UNL1        0.3101
      7 O          -2.7994    1.1980   -2.6130 O.2     1  UNL1       -0.2645
      8 C          -0.8844    1.4063   -1.1034 C.2     1  UNL1        0.3099
      9 O          -0.1771    2.2316   -1.7495 O.2     1  UNL1       -0.2645
     10 N          -0.5522    0.8238    0.1534 N.am    1  UNL1       -0.2133
     11 C           0.6530    1.0772    0.9072 C.3     1  UNL1        0.0495
     12 C           1.7486    0.1499    0.5674 C.ar    1  UNL1       -0.0231
     13 C           1.9384   -1.0479    1.2239 C.ar    1  UNL1       -0.0553
     14 C           2.9535   -1.9322    0.9259 C.ar    1  UNL1       -0.0365
     15 C           3.8187   -1.5659   -0.1011 C.ar    1  UNL1        0.1178
     16 CL          5.1142   -2.6627   -0.5051 Cl      1  UNL1       -0.0765
     17 C           3.6863   -0.3835   -0.7984 C.ar    1  UNL1        0.2916
     18 N           4.5736   -0.0257   -1.8400 N.pl3   1  UNL1        0.0811
     19 O           4.8110    1.1714   -2.1448 O.2     1  UNL1        0.0415
     20 O           5.2247   -0.9860   -2.5755 O.co2   1  UNL1       -0.5760
     21 C           2.6554    0.4519   -0.4523 C.ar    1  UNL1        0.0218
     22 C          -1.6271   -0.0265    0.4857 C.2     1  UNL1        0.3189
     23 O          -1.7004   -0.7119    1.5175 O.2     1  UNL1       -0.2515
     24 H          -5.3990    2.0032    0.6795 H       1  UNL1        0.2951
     25 H          -4.2210   -0.9098   -1.6047 H       1  UNL1        0.0585
     26 H          -3.7818   -1.7445   -0.1036 H       1  UNL1        0.0585
     27 H           0.4156    1.0194    1.9902 H       1  UNL1        0.0519
     28 H           1.0184    2.1059    0.6659 H       1  UNL1        0.0519
     29 H           1.2462   -1.3170    2.0288 H       1  UNL1        0.0621
     30 H           3.0808   -2.8648    1.4558 H       1  UNL1        0.0634
     31 H           2.5532    1.3677   -0.9927 H       1  UNL1        0.0689
@<TRIPOS>UNITY_ATOM_ATTR
18 1
charge 1
20 1
charge -1
@<TRIPOS>BOND
     1     1     2    2
     2     2     3    1
     3     2     4    1
     4     4     5    1
     5     5     6   am
     6     6     7    2
     7     6     8    1
     8     8     9    2
     9     8    10   am
    10    10    11    1
    11    11    12    1
    12    12    13   ar
    13    13    14   ar
    14    14    15   ar
    15    15    16    1
    16    15    17   ar
    17    17    18    1
    18    18    19    2
    19    18    20    1
    20    17    21   ar
    21    10    22   am
    22    22    23    2
    23    22     5   am
    24    21    12   ar
    25     3    24    1
    26     4    25    1
    27     4    26    1
    28    11    27    1
    29    11    28    1
    30    13    29    1
    31    14    30    1
    32    21    31    1
