@<TRIPOS>MOLECULE
*****
 120 126 0 0 0
SMALL
GASTEIGER

@<TRIPOS>ATOM
      1 C           9.4925    3.5317    0.0801 C.3     1  UNL1       -0.0595
      2 C           9.6983    2.0646    0.2914 C.3     1  UNL1       -0.0309
      3 C           9.9774    1.7966    1.7303 C.3     1  UNL1       -0.0595
      4 C          10.8859    1.6163   -0.5463 C.3     1  UNL1       -0.0436
      5 C          11.1949    0.1978   -0.2347 C.3     1  UNL1       -0.0266
      6 C           9.9793   -0.6441   -0.3405 C.2     1  UNL1       -0.0397
      7 C          10.1501   -2.1129   -0.3450 C.ar    1  UNL1       -0.0218
      8 C          10.8499   -2.7221   -1.3582 C.ar    1  UNL1       -0.0530
      9 C          11.0767   -4.0842   -1.3541 C.ar    1  UNL1       -0.0428
     10 C          10.5895   -4.8387   -0.3126 C.ar    1  UNL1        0.0410
     11 CL         10.8294   -6.5852   -0.2235 Cl      1  UNL1       -0.0835
     12 C           9.8929   -4.2216    0.6934 C.ar    1  UNL1       -0.0428
     13 C           9.6724   -2.8644    0.6811 C.ar    1  UNL1       -0.0530
     14 C           8.7409   -0.1350   -0.3411 C.2     1  UNL1       -0.0514
     15 C           7.6135   -1.0623   -0.4613 C.3     1  UNL1        0.0207
     16 N           6.7346   -0.9073   -1.6080 N.3     1  UNL1       -0.2955
     17 C           5.8449   -2.0731   -1.6528 C.3     1  UNL1        0.0150
     18 C           4.6524   -1.8928   -0.7150 C.3     1  UNL1        0.0250
     19 N           3.9737   -0.6718   -1.1012 N.pl3   1  UNL1       -0.3275
     20 C           2.8286   -0.2422   -0.4424 C.ar    1  UNL1        0.0298
     21 C           1.7143    0.2743   -1.0973 C.ar    1  UNL1       -0.0399
     22 C           0.6032    0.7000   -0.4161 C.ar    1  UNL1       -0.0478
     23 C           0.5279    0.6399    0.9697 C.ar    1  UNL1        0.0383
     24 C          -0.6660    1.0575    1.6886 C.2     1  UNL1        0.2630
     25 O          -1.7297    1.2547    1.0453 O.2     1  UNL1       -0.2686
     26 N          -0.6977    1.2560    3.0905 N.am    1  UNL1       -0.1815
     27 S          -2.1791    1.7282    3.8303 S.O2    1  UNL1        0.0747
     28 O          -2.0299    3.1094    4.4224 O.2     1  UNL1       -0.1499
     29 O          -2.4606    0.7437    4.9277 O.2     1  UNL1       -0.1499
     30 C          -3.4424    1.6886    2.6490 C.ar    1  UNL1        0.1105
     31 C          -4.0763    0.5061    2.3996 C.ar    1  UNL1       -0.0332
     32 C          -5.0961    0.3932    1.4504 C.ar    1  UNL1       -0.0371
     33 C          -5.4548    1.5274    0.7570 C.ar    1  UNL1        0.0529
     34 N          -6.5143    1.4942   -0.1445 N.pl3   1  UNL1       -0.3387
     35 C          -7.3242    0.3987   -0.6012 C.3     1  UNL1        0.0311
     36 C          -8.0957   -0.3613    0.3839 C.3     1  UNL1       -0.0210
     37 C          -9.0774    0.4042    1.2372 C.3     1  UNL1        0.0008
     38 N         -10.1495    1.0485    0.6779 N.3     1  UNL1       -0.2979
     39 C         -10.0924    2.1912   -0.1151 C.3     1  UNL1        0.0224
     40 C         -10.6748    2.0892   -1.5073 C.3     1  UNL1        0.0604
     41 O         -11.1036    0.7843   -1.7095 O.3     1  UNL1       -0.3772
     42 C         -12.0824    0.5258   -0.7200 C.3     1  UNL1        0.0604
     43 C         -11.3987    0.3176    0.6213 C.3     1  UNL1        0.0224
     44 C          -6.4302   -0.4375   -1.4818 C.3     1  UNL1        0.0167
     45 S          -7.1323   -1.8728   -2.1758 S.3     1  UNL1       -0.1234
     46 C          -7.4118   -3.2822   -1.1697 C.ar    1  UNL1        0.0079
     47 C          -8.6484   -3.6936   -0.6916 C.ar    1  UNL1       -0.0483
     48 C          -8.7637   -4.8098    0.1070 C.ar    1  UNL1       -0.0607
     49 C          -7.6546   -5.5277    0.4377 C.ar    1  UNL1       -0.0617
     50 C          -6.4217   -5.1372   -0.0263 C.ar    1  UNL1       -0.0607
     51 C          -6.2893   -4.0457   -0.8096 C.ar    1  UNL1       -0.0483
     52 C          -4.8153    2.7427    0.9974 C.ar    1  UNL1        0.1201
     53 S          -5.1447    4.1823    0.0779 S.O2    1  UNL1        0.0926
     54 O          -4.4162    5.3596    0.7453 O.2     1  UNL1       -0.1612
     55 O          -6.6004    4.5405    0.1319 O.2     1  UNL1       -0.1612
     56 C          -4.5252    4.0300   -1.5551 C.3     1  UNL1        0.5262
     57 F          -3.1406    3.8350   -1.5435 F       1  UNL1       -0.1500
     58 F          -4.7244    5.2677   -2.1830 F       1  UNL1       -0.1500
     59 F          -5.1501    3.0957   -2.2907 F       1  UNL1       -0.1500
     60 C          -3.8097    2.7982    1.9532 C.ar    1  UNL1       -0.0081
     61 C           1.6095    0.1378    1.6351 C.ar    1  UNL1       -0.0478
     62 C           2.7244   -0.2904    0.9582 C.ar    1  UNL1       -0.0399
     63 C           4.5810    0.0444   -2.1797 C.3     1  UNL1        0.0250
     64 C           6.0428    0.3052   -1.7480 C.3     1  UNL1        0.0150
     65 C           8.4532    1.3146   -0.1684 C.3     1  UNL1       -0.0248
     66 H           9.7430    3.7939   -0.9641 H       1  UNL1        0.0235
     67 H           8.4410    3.8527    0.2442 H       1  UNL1        0.0235
     68 H          10.1936    4.1505    0.7052 H       1  UNL1        0.0235
     69 H           9.5022    2.5191    2.4168 H       1  UNL1        0.0235
     70 H          11.0678    1.7785    1.9366 H       1  UNL1        0.0235
     71 H           9.5973    0.7847    2.0301 H       1  UNL1        0.0235
     72 H          11.7436    2.2624   -0.2508 H       1  UNL1        0.0274
     73 H          10.6971    1.7796   -1.6282 H       1  UNL1        0.0274
     74 H          11.5509    0.1559    0.8279 H       1  UNL1        0.0314
     75 H          11.9736   -0.1937   -0.9238 H       1  UNL1        0.0314
     76 H          11.2562   -2.1594   -2.2074 H       1  UNL1        0.0624
     77 H          11.6401   -4.5636   -2.1700 H       1  UNL1        0.0632
     78 H           9.4962   -4.8047    1.5305 H       1  UNL1        0.0632
     79 H           9.1207   -2.3671    1.4955 H       1  UNL1        0.0624
     80 H           7.9107   -2.1460   -0.4984 H       1  UNL1        0.0473
     81 H           6.9670   -0.9822    0.4613 H       1  UNL1        0.0473
     82 H           6.4013   -2.9510   -1.2979 H       1  UNL1        0.0442
     83 H           5.4919   -2.2853   -2.6716 H       1  UNL1        0.0442
     84 H           3.9600   -2.7399   -0.9715 H       1  UNL1        0.0476
     85 H           4.9148   -1.9635    0.3349 H       1  UNL1        0.0476
     86 H           1.7293    0.3376   -2.1709 H       1  UNL1        0.0636
     87 H          -0.2787    1.1063   -0.9286 H       1  UNL1        0.0626
     88 H           0.1486    1.1240    3.6808 H       1  UNL1        0.1769
     89 H          -3.7971   -0.3886    2.9424 H       1  UNL1        0.0638
     90 H          -5.5326   -0.5840    1.3177 H       1  UNL1        0.0637
     91 H          -6.8005    2.4371   -0.5648 H       1  UNL1        0.1464
     92 H          -8.0979    0.8211   -1.3424 H       1  UNL1        0.0506
     93 H          -7.5728   -1.0779    1.0055 H       1  UNL1        0.0296
     94 H          -8.7489   -1.0587   -0.2850 H       1  UNL1        0.0296
     95 H          -9.4160   -0.2423    2.1117 H       1  UNL1        0.0427
     96 H          -8.4277    1.1726    1.7746 H       1  UNL1        0.0427
     97 H          -9.0775    2.6082   -0.1934 H       1  UNL1        0.0449
     98 H         -10.6512    3.0287    0.4527 H       1  UNL1        0.0449
     99 H          -9.9216    2.4062   -2.2465 H       1  UNL1        0.0572
    100 H         -11.5967    2.7419   -1.5658 H       1  UNL1        0.0572
    101 H         -12.7072   -0.3329   -1.0325 H       1  UNL1        0.0572
    102 H         -12.7506    1.4109   -0.7208 H       1  UNL1        0.0572
    103 H         -11.2108   -0.7297    0.8710 H       1  UNL1        0.0449
    104 H         -12.0641    0.7431    1.3948 H       1  UNL1        0.0449
    105 H          -5.4773   -0.7241   -0.9410 H       1  UNL1        0.0398
    106 H          -5.9954    0.2709   -2.2781 H       1  UNL1        0.0398
    107 H          -9.5303   -3.1229   -0.9735 H       1  UNL1        0.0629
    108 H          -9.7503   -5.1159    0.4753 H       1  UNL1        0.0618
    109 H          -7.7458   -6.4148    1.0718 H       1  UNL1        0.0618
    110 H          -5.5702   -5.7452    0.2644 H       1  UNL1        0.0618
    111 H          -5.3092   -3.7548   -1.1659 H       1  UNL1        0.0629
    112 H          -3.3283    3.7465    2.1252 H       1  UNL1        0.0657
    113 H           1.5926    0.0718    2.7366 H       1  UNL1        0.0626
    114 H           3.5582   -0.6828    1.5535 H       1  UNL1        0.0636
    115 H           4.0791    1.0164   -2.3921 H       1  UNL1        0.0476
    116 H           4.6360   -0.5194   -3.1357 H       1  UNL1        0.0476
    117 H           6.5123    0.9680   -2.5211 H       1  UNL1        0.0442
    118 H           6.0234    0.8633   -0.7936 H       1  UNL1        0.0442
    119 H           7.7195    1.4678    0.6477 H       1  UNL1        0.0316
    120 H           8.1808    1.7532   -1.1380 H       1  UNL1        0.0316
@<TRIPOS>BOND
     1     1     2    1
     2     2     3    1
     3     2     4    1
     4     4     5    1
     5     5     6    1
     6     6     7    1
     7     7     8   ar
     8     8     9   ar
     9     9    10   ar
    10    10    11    1
    11    10    12   ar
    12    12    13   ar
    13     6    14    2
    14    14    15    1
    15    15    16    1
    16    16    17    1
    17    17    18    1
    18    18    19    1
    19    19    20    1
    20    20    21   ar
    21    21    22   ar
    22    22    23   ar
    23    23    24    1
    24    24    25    2
    25    24    26   am
    26    26    27    1
    27    27    28    2
    28    27    29    2
    29    27    30    1
    30    30    31   ar
    31    31    32   ar
    32    32    33   ar
    33    33    34    1
    34    34    35    1
    35    35    36    1
    36    36    37    1
    37    37    38    1
    38    38    39    1
    39    39    40    1
    40    40    41    1
    41    41    42    1
    42    42    43    1
    43    35    44    1
    44    44    45    1
    45    45    46    1
    46    46    47   ar
    47    47    48   ar
    48    48    49   ar
    49    49    50   ar
    50    50    51   ar
    51    33    52   ar
    52    52    53    1
    53    53    54    2
    54    53    55    2
    55    53    56    1
    56    56    57    1
    57    56    58    1
    58    56    59    1
    59    52    60   ar
    60    23    61   ar
    61    61    62   ar
    62    19    63    1
    63    63    64    1
    64    14    65    1
    65    65     2    1
    66    13     7   ar
    67    64    16    1
    68    62    20   ar
    69    60    30   ar
    70    43    38    1
    71    51    46   ar
    72     1    66    1
    73     1    67    1
    74     1    68    1
    75     3    69    1
    76     3    70    1
    77     3    71    1
    78     4    72    1
    79     4    73    1
    80     5    74    1
    81     5    75    1
    82     8    76    1
    83     9    77    1
    84    12    78    1
    85    13    79    1
    86    15    80    1
    87    15    81    1
    88    17    82    1
    89    17    83    1
    90    18    84    1
    91    18    85    1
    92    21    86    1
    93    22    87    1
    94    26    88    1
    95    31    89    1
    96    32    90    1
    97    34    91    1
    98    35    92    1
    99    36    93    1
   100    36    94    1
   101    37    95    1
   102    37    96    1
   103    39    97    1
   104    39    98    1
   105    40    99    1
   106    40   100    1
   107    42   101    1
   108    42   102    1
   109    43   103    1
   110    43   104    1
   111    44   105    1
   112    44   106    1
   113    47   107    1
   114    48   108    1
   115    49   109    1
   116    50   110    1
   117    51   111    1
   118    60   112    1
   119    61   113    1
   120    62   114    1
   121    63   115    1
   122    63   116    1
   123    64   117    1
   124    64   118    1
   125    65   119    1
   126    65   120    1
