@<TRIPOS>MOLECULE
*****
 51 54 0 0 0
SMALL
GASTEIGER

@<TRIPOS>ATOM
      1 C          -5.9785    1.8028   -0.7172 C.3     1  UNL1       -0.0128
      2 N          -5.1051    0.6461   -0.4858 N.3     1  UNL1       -0.3053
      3 C          -4.8808    0.5587    0.9954 C.3     1  UNL1       -0.0013
      4 C          -3.5025    0.5158    1.1718 C.3     1  UNL1       -0.0383
      5 C          -2.1156    0.4528    1.3297 C.3     1  UNL1       -0.0292
      6 C          -1.5375    0.5468   -0.1133 C.3     1  UNL1        0.0576
      7 C          -2.6486    0.2234   -1.1287 C.3     1  UNL1       -0.0176
      8 C          -3.8750    0.9648   -1.1862 C.3     1  UNL1        0.0005
      9 N          -0.4025   -0.2476   -0.3344 N.ar    1  UNL1       -0.2256
     10 N           0.6968    0.3327   -0.7874 N.ar    1  UNL1       -0.1720
     11 C           1.8553   -0.3048   -1.0404 C.ar    1  UNL1        0.0738
     12 C           3.0142    0.5078   -1.5130 C.3     1  UNL1        0.0171
     13 C           3.9590    0.8671   -0.4354 C.ar    1  UNL1       -0.0414
     14 C           5.1680    0.3591   -0.0173 C.ar    1  UNL1       -0.0568
     15 C           5.8364    0.9000    1.0557 C.ar    1  UNL1       -0.0431
     16 C           5.3700    1.9686    1.7877 C.ar    1  UNL1        0.0410
     17 CL          6.2728    2.6066    3.1419 Cl      1  UNL1       -0.0835
     18 C           4.1620    2.5076    1.4012 C.ar    1  UNL1       -0.0431
     19 C           3.5040    1.9558    0.3257 C.ar    1  UNL1       -0.0568
     20 C           1.8298   -1.6558   -0.7909 C.ar    1  UNL1        0.0106
     21 C           2.9775   -2.3623   -1.0396 C.ar    1  UNL1       -0.0521
     22 C           3.0339   -3.7205   -0.8229 C.ar    1  UNL1       -0.0611
     23 C           1.9431   -4.4125   -0.3514 C.ar    1  UNL1       -0.0610
     24 C           0.7794   -3.6791   -0.1034 C.ar    1  UNL1       -0.0487
     25 C           0.7180   -2.3197   -0.3189 C.ar    1  UNL1        0.0498
     26 C          -0.3908   -1.5525   -0.1042 C.ar    1  UNL1        0.2753
     27 O          -1.3981   -2.1931    0.3308 O.2     1  UNL1       -0.2655
     28 H          -5.6965    2.5417    0.0893 H       1  UNL1        0.0391
     29 H          -5.7427    2.2647   -1.6733 H       1  UNL1        0.0391
     30 H          -7.0288    1.5009   -0.5800 H       1  UNL1        0.0391
     31 H          -5.5016   -0.3138    1.3513 H       1  UNL1        0.0426
     32 H          -5.4481    1.3973    1.5051 H       1  UNL1        0.0426
     33 H          -3.4670   -0.4383    0.6040 H       1  UNL1        0.0278
     34 H          -3.4110    1.5268    0.7243 H       1  UNL1        0.0278
     35 H          -1.6733   -0.4478    1.8548 H       1  UNL1        0.0286
     36 H          -1.6187    1.2706    1.9367 H       1  UNL1        0.0286
     37 H          -1.3452    1.6341   -0.2726 H       1  UNL1        0.0546
     38 H          -2.7782   -0.8807   -1.2603 H       1  UNL1        0.0298
     39 H          -2.0795    0.4681   -2.0646 H       1  UNL1        0.0298
     40 H          -4.2646    0.8451   -2.2427 H       1  UNL1        0.0427
     41 H          -3.6604    2.0712   -1.2201 H       1  UNL1        0.0427
     42 H           2.6122    1.4356   -1.9620 H       1  UNL1        0.0377
     43 H           3.5251   -0.0139   -2.3574 H       1  UNL1        0.0377
     44 H           5.5053   -0.4694   -0.6174 H       1  UNL1        0.0621
     45 H           6.7866    0.4101    1.2933 H       1  UNL1        0.0632
     46 H           3.8079    3.3381    1.9757 H       1  UNL1        0.0632
     47 H           2.5559    2.4844    0.1298 H       1  UNL1        0.0621
     48 H           3.8404   -1.8735   -1.4134 H       1  UNL1        0.0624
     49 H           3.9229   -4.3412   -1.0028 H       1  UNL1        0.0618
     50 H           1.9726   -5.4936   -0.1733 H       1  UNL1        0.0618
     51 H          -0.0983   -4.1852    0.2675 H       1  UNL1        0.0625
@<TRIPOS>BOND
     1     1     2    1
     2     2     3    1
     3     3     4    1
     4     4     5    1
     5     5     6    1
     6     6     7    1
     7     7     8    1
     8     6     9    1
     9     9    10   ar
    10    10    11   ar
    11    11    12    1
    12    12    13    1
    13    13    14   ar
    14    14    15   ar
    15    15    16   ar
    16    16    17    1
    17    16    18   ar
    18    18    19   ar
    19    11    20   ar
    20    20    21   ar
    21    21    22   ar
    22    22    23   ar
    23    23    24   ar
    24    24    25   ar
    25    25    26   ar
    26    26    27    2
    27     8     2    1
    28    26     9   ar
    29    19    13   ar
    30    25    20   ar
    31     1    28    1
    32     1    29    1
    33     1    30    1
    34     3    31    1
    35     3    32    1
    36     4    33    1
    37     4    34    1
    38     5    35    1
    39     5    36    1
    40     6    37    1
    41     7    38    1
    42     7    39    1
    43     8    40    1
    44     8    41    1
    45    12    42    1
    46    12    43    1
    47    14    44    1
    48    15    45    1
    49    18    46    1
    50    19    47    1
    51    21    48    1
    52    22    49    1
    53    23    50    1
    54    24    51    1
