@<TRIPOS>MOLECULE
*****
 44 46 0 0 0
SMALL
GASTEIGER

@<TRIPOS>ATOM
      1 O          -2.7639   -2.5390    0.3875 O.2     1  UNL1       -0.2524
      2 C          -2.5292   -1.2894    0.1833 C.2     1  UNL1        0.3050
      3 N          -3.6148   -0.4280    0.3487 N.am    1  UNL1       -0.2811
      4 C          -3.6611    0.9998    0.1974 C.3     1  UNL1        0.0396
      5 C          -4.9408    1.5063    0.9090 C.3     1  UNL1        0.0635
      6 O          -6.0842    0.9934    0.3480 O.3     1  UNL1       -0.3767
      7 C          -5.9434   -0.3010   -0.1214 C.3     1  UNL1        0.0635
      8 C          -4.9140   -1.0304    0.7355 C.3     1  UNL1        0.0396
      9 N          -1.2114   -0.9909   -0.1747 N.am    1  UNL1       -0.2825
     10 C          -0.2035   -2.0479   -0.2834 C.3     1  UNL1        0.0319
     11 C           1.0528   -1.5550    0.4504 C.3     1  UNL1        0.0281
     12 N           1.5106   -0.3810   -0.3217 N.pl3   1  UNL1       -0.3269
     13 C           2.8594    0.0255   -0.2724 C.ar    1  UNL1        0.0298
     14 C           3.3452    0.9974   -1.1062 C.ar    1  UNL1       -0.0401
     15 C           4.6928    1.3744   -1.0172 C.ar    1  UNL1       -0.0484
     16 C           5.5288    0.7795   -0.1040 C.ar    1  UNL1        0.0549
     17 C           6.9449    1.2285   -0.0648 C.3     1  UNL1        0.4174
     18 F           6.9814    2.3237    0.8003 F       1  UNL1       -0.1659
     19 F           7.3038    1.7225   -1.3213 F       1  UNL1       -0.1659
     20 F           7.7744    0.2177    0.3434 F       1  UNL1       -0.1659
     21 C           5.0364   -0.1950    0.7296 C.ar    1  UNL1       -0.0484
     22 C           3.7028   -0.5664    0.6402 C.ar    1  UNL1       -0.0401
     23 C           0.5735    0.3609   -1.1309 C.3     1  UNL1        0.0281
     24 C          -0.7919    0.3551   -0.4479 C.3     1  UNL1        0.0319
     25 H          -3.7542    1.2804   -0.8822 H       1  UNL1        0.0488
     26 H          -2.8528    1.5593    0.6634 H       1  UNL1        0.0488
     27 H          -4.8588    1.1604    1.9584 H       1  UNL1        0.0575
     28 H          -4.9402    2.6249    0.8657 H       1  UNL1        0.0575
     29 H          -5.5416   -0.3001   -1.1540 H       1  UNL1        0.0575
     30 H          -6.8756   -0.8555   -0.0516 H       1  UNL1        0.0575
     31 H          -4.8957   -2.0689    0.3983 H       1  UNL1        0.0488
     32 H          -5.0825   -0.8961    1.8071 H       1  UNL1        0.0488
     33 H           0.0264   -2.3137   -1.3161 H       1  UNL1        0.0480
     34 H          -0.5443   -2.9575    0.2506 H       1  UNL1        0.0480
     35 H           0.7098   -1.2535    1.4583 H       1  UNL1        0.0479
     36 H           1.8321   -2.3163    0.4316 H       1  UNL1        0.0479
     37 H           2.7272    1.4921   -1.8454 H       1  UNL1        0.0636
     38 H           5.0130    2.1413   -1.6963 H       1  UNL1        0.0624
     39 H           5.7096   -0.6659    1.4561 H       1  UNL1        0.0624
     40 H           3.3733   -1.3506    1.3363 H       1  UNL1        0.0636
     41 H           0.5093   -0.0291   -2.1628 H       1  UNL1        0.0479
     42 H           0.8630    1.4499   -1.1501 H       1  UNL1        0.0479
     43 H          -0.6082    0.8344    0.5435 H       1  UNL1        0.0480
     44 H          -1.4582    0.9036   -1.1144 H       1  UNL1        0.0480
@<TRIPOS>BOND
     1     1     2    2
     2     2     3   am
     3     3     4    1
     4     4     5    1
     5     5     6    1
     6     6     7    1
     7     7     8    1
     8     2     9   am
     9     9    10    1
    10    10    11    1
    11    11    12    1
    12    12    13    1
    13    13    14   ar
    14    14    15   ar
    15    15    16   ar
    16    16    17    1
    17    17    18    1
    18    17    19    1
    19    17    20    1
    20    16    21   ar
    21    21    22   ar
    22    12    23    1
    23    23    24    1
    24     8     3    1
    25    24     9    1
    26    22    13   ar
    27     4    25    1
    28     4    26    1
    29     5    27    1
    30     5    28    1
    31     7    29    1
    32     7    30    1
    33     8    31    1
    34     8    32    1
    35    10    33    1
    36    10    34    1
    37    11    35    1
    38    11    36    1
    39    14    37    1
    40    15    38    1
    41    21    39    1
    42    22    40    1
    43    23    41    1
    44    23    42    1
    45    24    43    1
    46    24    44    1
