
     RDKit          3D

 78 83  0  0  0  0  0  0  0  0999 V2000
    8.0905    1.5823    2.4259 C   0  0  0  0  0  0  0  0  0  0  0  0
    7.5540    0.2157    2.7486 C   0  0  0  0  0  0  0  0  0  0  0  0
    6.9654   -0.4590    1.5205 C   0  0  0  0  0  0  0  0  0  0  0  0
    5.8451    0.3326    0.9638 C   0  0  0  0  0  0  0  0  0  0  0  0
    6.0446    1.3293    0.0162 C   0  0  0  0  0  0  0  0  0  0  0  0
    4.9742    2.0623   -0.5046 C   0  0  0  0  0  0  0  0  0  0  0  0
    3.6934    1.8059   -0.0840 C   0  0  0  0  0  0  0  0  0  0  0  0
    2.2862    2.6465   -0.6658 S   0  0  0  0  0  6  0  0  0  0  0  0
    2.5244    4.1038   -0.8915 O   0  0  0  0  0  0  0  0  0  0  0  0
    1.1776    2.5083    0.3597 O   0  0  0  0  0  0  0  0  0  0  0  0
    1.6789    1.9187   -2.1168 N   0  0  0  0  0  0  0  0  0  0  0  0
    1.2800    0.5473   -1.8755 C   0  0  0  0  0  0  0  0  0  0  0  0
    0.7720   -0.0059   -3.2090 C   0  0  1  0  0  0  0  0  0  0  0  0
    1.8272    0.0458   -4.2542 C   0  0  0  0  0  0  0  0  0  0  0  0
    2.1396   -1.4096   -4.5567 C   0  0  0  0  0  0  0  0  0  0  0  0
    0.8165   -2.1135   -4.2134 C   0  0  0  0  0  0  0  0  0  0  0  0
    0.3949   -1.3718   -3.0821 N   0  0  0  0  0  0  0  0  0  0  0  0
   -0.2854   -1.9078   -1.9576 C   0  0  0  0  0  0  0  0  0  0  0  0
   -1.1746   -1.1816   -1.2391 N   0  0  0  0  0  0  0  0  0  0  0  0
   -1.8234   -1.6235   -0.1594 C   0  0  0  0  0  0  0  0  0  0  0  0
   -2.7860   -0.8326    0.5645 N   0  0  0  0  0  0  0  0  0  0  0  0
   -4.1916   -0.9554    0.3279 C   0  0  0  0  0  0  0  0  0  0  0  0
   -5.0083   -0.0063    1.1898 C   0  0  0  0  0  0  0  0  0  0  0  0
   -5.4028   -0.4252    2.4640 C   0  0  0  0  0  0  0  0  0  0  0  0
   -6.3412    0.9847    3.0744 S   0  0  0  0  0  0  0  0  0  0  0  0
   -6.0738    1.9599    1.5162 C   0  0  0  0  0  0  0  0  0  0  0  0
   -6.6691    3.3200    1.4207 C   0  0  0  0  0  0  0  0  0  0  0  0
   -7.4017    3.8667    2.4294 C   0  0  0  0  0  0  0  0  0  0  0  0
   -7.9358    5.1327    2.2870 C   0  0  0  0  0  0  0  0  0  0  0  0
   -7.7308    5.8468    1.1271 C   0  0  0  0  0  0  0  0  0  0  0  0
   -6.9856    5.3013    0.0899 C   0  0  0  0  0  0  0  0  0  0  0  0
   -6.4723    4.0375    0.2751 C   0  0  0  0  0  0  0  0  0  0  0  0
   -5.4248    1.1945    0.8845 N   0  0  0  0  0  0  0  0  0  0  0  0
   -1.5554   -2.8948    0.2298 N   0  0  0  0  0  0  0  0  0  0  0  0
   -0.6863   -3.6672   -0.4360 C   0  0  0  0  0  0  0  0  0  0  0  0
   -0.4338   -4.9897    0.0119 N   0  0  0  0  0  0  0  0  0  0  0  0
   -1.0205   -5.6247    1.1454 C   0  0  0  0  0  0  0  0  0  0  0  0
   -2.5542   -5.6857    1.0507 C   0  0  0  0  0  0  0  0  0  0  0  0
   -1.8334   -4.9658    2.1653 C   0  0  0  0  0  0  0  0  0  0  0  0
   -0.0659   -3.1616   -1.5191 N   0  0  0  0  0  0  0  0  0  0  0  0
    3.5221    0.8139    0.8554 C   0  0  0  0  0  0  0  0  0  0  0  0
    4.5533    0.0906    1.3736 C   0  0  0  0  0  0  0  0  0  0  0  0
    8.6660    1.5606    1.4707 H   0  0  0  0  0  0  0  0  0  0  0  0
    8.8481    1.8652    3.2120 H   0  0  0  0  0  0  0  0  0  0  0  0
    7.2888    2.3270    2.4420 H   0  0  0  0  0  0  0  0  0  0  0  0
    6.7722    0.2869    3.5321 H   0  0  0  0  0  0  0  0  0  0  0  0
    8.3656   -0.4030    3.1901 H   0  0  0  0  0  0  0  0  0  0  0  0
    6.6353   -1.4823    1.7548 H   0  0  0  0  0  0  0  0  0  0  0  0
    7.7958   -0.5645    0.7773 H   0  0  0  0  0  0  0  0  0  0  0  0
    7.0570    1.5110   -0.2986 H   0  0  0  0  0  0  0  0  0  0  0  0
    5.1224    2.8311   -1.2350 H   0  0  0  0  0  0  0  0  0  0  0  0
    0.9480    2.4847   -2.5592 H   0  0  0  0  0  0  0  0  0  0  0  0
    2.1351   -0.0493   -1.5347 H   0  0  0  0  0  0  0  0  0  0  0  0
    0.4620    0.5716   -1.1281 H   0  0  0  0  0  0  0  0  0  0  0  0
   -0.1138    0.5644   -3.5498 H   0  0  0  0  0  0  0  0  0  0  0  0
    2.7449    0.5224   -3.7994 H   0  0  0  0  0  0  0  0  0  0  0  0
    1.5154    0.5839   -5.1696 H   0  0  0  0  0  0  0  0  0  0  0  0
    2.8610   -1.7930   -3.7768 H   0  0  0  0  0  0  0  0  0  0  0  0
    2.4612   -1.5881   -5.5798 H   0  0  0  0  0  0  0  0  0  0  0  0
    1.0083   -3.1901   -3.9908 H   0  0  0  0  0  0  0  0  0  0  0  0
    0.1060   -2.0199   -5.0778 H   0  0  0  0  0  0  0  0  0  0  0  0
   -2.4176   -0.1635    1.2694 H   0  0  0  0  0  0  0  0  0  0  0  0
   -4.3934   -0.6564   -0.7193 H   0  0  0  0  0  0  0  0  0  0  0  0
   -4.5508   -1.9890    0.4657 H   0  0  0  0  0  0  0  0  0  0  0  0
   -5.2142   -1.3670    3.0028 H   0  0  0  0  0  0  0  0  0  0  0  0
   -7.5556    3.2988    3.3326 H   0  0  0  0  0  0  0  0  0  0  0  0
   -8.5139    5.5683    3.0801 H   0  0  0  0  0  0  0  0  0  0  0  0
   -8.1547    6.8548    1.0059 H   0  0  0  0  0  0  0  0  0  0  0  0
   -6.8366    5.8697   -0.8063 H   0  0  0  0  0  0  0  0  0  0  0  0
   -5.8921    3.5936   -0.5133 H   0  0  0  0  0  0  0  0  0  0  0  0
    0.2655   -5.5597   -0.5589 H   0  0  0  0  0  0  0  0  0  0  0  0
   -0.5954   -6.6266    1.3975 H   0  0  0  0  0  0  0  0  0  0  0  0
   -3.0653   -5.0461    0.3252 H   0  0  0  0  0  0  0  0  0  0  0  0
   -3.0636   -6.6468    1.2411 H   0  0  0  0  0  0  0  0  0  0  0  0
   -1.9553   -3.8927    2.3098 H   0  0  0  0  0  0  0  0  0  0  0  0
   -1.9325   -5.5281    3.1436 H   0  0  0  0  0  0  0  0  0  0  0  0
    2.5212    0.5893    1.2062 H   0  0  0  0  0  0  0  0  0  0  0  0
    4.3919   -0.6832    2.1136 H   0  0  0  0  0  0  0  0  0  0  0  0
  1  2  1  0
  2  3  1  0
  3  4  1  0
  4  5  2  0
  5  6  1  0
  6  7  2  0
  7  8  1  0
  8  9  2  0
  8 10  2  0
  8 11  1  0
 11 12  1  0
 12 13  1  0
 13 14  1  0
 14 15  1  0
 15 16  1  0
 16 17  1  0
 17 18  1  0
 18 19  2  0
 19 20  1  0
 20 21  1  0
 21 22  1  0
 22 23  1  0
 23 24  2  0
 24 25  1  0
 25 26  1  0
 26 27  1  0
 27 28  2  0
 28 29  1  0
 29 30  2  0
 30 31  1  0
 31 32  2  0
 26 33  2  0
 20 34  2  0
 34 35  1  0
 35 36  1  0
 36 37  1  0
 37 38  1  0
 38 39  1  0
 35 40  2  0
  7 41  1  0
 41 42  2  0
 42  4  1  0
 17 13  1  0
 40 18  1  0
 33 23  1  0
 39 37  1  0
 32 27  1  0
  1 43  1  0
  1 44  1  0
  1 45  1  0
  2 46  1  0
  2 47  1  0
  3 48  1  0
  3 49  1  0
  5 50  1  0
  6 51  1  0
 11 52  1  0
 12 53  1  0
 12 54  1  0
 13 55  1  6
 14 56  1  0
 14 57  1  0
 15 58  1  0
 15 59  1  0
 16 60  1  0
 16 61  1  0
 21 62  1  0
 22 63  1  0
 22 64  1  0
 24 65  1  0
 28 66  1  0
 29 67  1  0
 30 68  1  0
 31 69  1  0
 32 70  1  0
 36 71  1  0
 37 72  1  0
 38 73  1  0
 38 74  1  0
 39 75  1  0
 39 76  1  0
 41 77  1  0
 42 78  1  0
M  END
$$$$
