@<TRIPOS>MOLECULE
*****
 78 83 0 0 0
SMALL
GASTEIGER

@<TRIPOS>ATOM
      1 C           8.0905    1.5823    2.4259 C.3     1  UNL1       -0.0650
      2 C           7.5540    0.2157    2.7486 C.3     1  UNL1       -0.0519
      3 C           6.9654   -0.4590    1.5205 C.3     1  UNL1       -0.0279
      4 C           5.8451    0.3326    0.9638 C.ar    1  UNL1       -0.0473
      5 C           6.0446    1.3293    0.0162 C.ar    1  UNL1       -0.0567
      6 C           4.9742    2.0623   -0.5046 C.ar    1  UNL1       -0.0351
      7 C           3.6934    1.8059   -0.0840 C.ar    1  UNL1        0.1053
      8 S           2.2862    2.6465   -0.6658 S.O2    1  UNL1        0.0585
      9 O           2.5244    4.1038   -0.8915 O.2     1  UNL1       -0.1530
     10 O           1.1776    2.5083    0.3597 O.2     1  UNL1       -0.1530
     11 N           1.6789    1.9187   -2.1168 N.3     1  UNL1       -0.1882
     12 C           1.2800    0.5473   -1.8755 C.3     1  UNL1        0.0361
     13 C           0.7720   -0.0059   -3.2090 C.3     1  UNL1        0.0403
     14 C           1.8272    0.0458   -4.2542 C.3     1  UNL1       -0.0316
     15 C           2.1396   -1.4096   -4.5567 C.3     1  UNL1       -0.0354
     16 C           0.8165   -2.1135   -4.2134 C.3     1  UNL1        0.0153
     17 N           0.3949   -1.3718   -3.0821 N.pl3   1  UNL1       -0.2952
     18 C          -0.2854   -1.9078   -1.9576 C.ar    1  UNL1        0.2239
     19 N          -1.1746   -1.1816   -1.2391 N.ar    1  UNL1       -0.1809
     20 C          -1.8234   -1.6235   -0.1594 C.ar    1  UNL1        0.2214
     21 N          -2.7860   -0.8326    0.5645 N.pl3   1  UNL1       -0.3077
     22 C          -4.1916   -0.9554    0.3279 C.3     1  UNL1        0.0547
     23 C          -5.0083   -0.0063    1.1898 C.ar    1  UNL1        0.0662
     24 C          -5.4028   -0.4252    2.4640 C.ar    1  UNL1        0.0005
     25 S          -6.3412    0.9847    3.0744 S.2     1  UNL1       -0.0753
     26 C          -6.0738    1.9599    1.5162 C.ar    1  UNL1        0.1086
     27 C          -6.6691    3.3200    1.4207 C.ar    1  UNL1        0.0071
     28 C          -7.4017    3.8667    2.4294 C.ar    1  UNL1       -0.0521
     29 C          -7.9358    5.1327    2.2870 C.ar    1  UNL1       -0.0611
     30 C          -7.7308    5.8468    1.1271 C.ar    1  UNL1       -0.0617
     31 C          -6.9856    5.3013    0.0899 C.ar    1  UNL1       -0.0611
     32 C          -6.4723    4.0375    0.2751 C.ar    1  UNL1       -0.0521
     33 N          -5.4248    1.1945    0.8845 N.ar    1  UNL1       -0.2424
     34 N          -1.5554   -2.8948    0.2298 N.ar    1  UNL1       -0.1810
     35 C          -0.6863   -3.6672   -0.4360 C.ar    1  UNL1        0.2213
     36 N          -0.4338   -4.9897    0.0119 N.pl3   1  UNL1       -0.3105
     37 C          -1.0205   -5.6247    1.1454 C.3     1  UNL1        0.0234
     38 C          -2.5542   -5.6857    1.0507 C.3     1  UNL1       -0.0328
     39 C          -1.8334   -4.9658    2.1653 C.3     1  UNL1       -0.0328
     40 N          -0.0659   -3.1616   -1.5191 N.ar    1  UNL1       -0.1809
     41 C           3.5221    0.8139    0.8554 C.ar    1  UNL1       -0.0351
     42 C           4.5533    0.0906    1.3736 C.ar    1  UNL1       -0.0567
     43 H           8.6660    1.5606    1.4707 H       1  UNL1        0.0230
     44 H           8.8481    1.8652    3.2120 H       1  UNL1        0.0230
     45 H           7.2888    2.3270    2.4420 H       1  UNL1        0.0230
     46 H           6.7722    0.2869    3.5321 H       1  UNL1        0.0266
     47 H           8.3656   -0.4030    3.1901 H       1  UNL1        0.0266
     48 H           6.6353   -1.4823    1.7548 H       1  UNL1        0.0313
     49 H           7.7958   -0.5645    0.7773 H       1  UNL1        0.0313
     50 H           7.0570    1.5110   -0.2986 H       1  UNL1        0.0621
     51 H           5.1224    2.8311   -1.2350 H       1  UNL1        0.0637
     52 H           0.9480    2.4847   -2.5592 H       1  UNL1        0.1481
     53 H           2.1351   -0.0493   -1.5347 H       1  UNL1        0.0460
     54 H           0.4620    0.5716   -1.1281 H       1  UNL1        0.0460
     55 H          -0.1138    0.5644   -3.5498 H       1  UNL1        0.0514
     56 H           2.7449    0.5224   -3.7994 H       1  UNL1        0.0284
     57 H           1.5154    0.5839   -5.1696 H       1  UNL1        0.0284
     58 H           2.8610   -1.7930   -3.7768 H       1  UNL1        0.0281
     59 H           2.4612   -1.5881   -5.5798 H       1  UNL1        0.0281
     60 H           1.0083   -3.1901   -3.9908 H       1  UNL1        0.0465
     61 H           0.1060   -2.0199   -5.0778 H       1  UNL1        0.0465
     62 H          -2.4176   -0.1635    1.2694 H       1  UNL1        0.1493
     63 H          -4.3934   -0.6564   -0.7193 H       1  UNL1        0.0527
     64 H          -4.5508   -1.9890    0.4657 H       1  UNL1        0.0527
     65 H          -5.2142   -1.3670    3.0028 H       1  UNL1        0.0712
     66 H          -7.5556    3.2988    3.3326 H       1  UNL1        0.0624
     67 H          -8.5139    5.5683    3.0801 H       1  UNL1        0.0618
     68 H          -8.1547    6.8548    1.0059 H       1  UNL1        0.0618
     69 H          -6.8366    5.8697   -0.8063 H       1  UNL1        0.0618
     70 H          -5.8921    3.5936   -0.5133 H       1  UNL1        0.0624
     71 H           0.2655   -5.5597   -0.5589 H       1  UNL1        0.1492
     72 H          -0.5954   -6.6266    1.3975 H       1  UNL1        0.0498
     73 H          -3.0653   -5.0461    0.3252 H       1  UNL1        0.0284
     74 H          -3.0636   -6.6468    1.2411 H       1  UNL1        0.0284
     75 H          -1.9553   -3.8927    2.3098 H       1  UNL1        0.0284
     76 H          -1.9325   -5.5281    3.1436 H       1  UNL1        0.0284
     77 H           2.5212    0.5893    1.2062 H       1  UNL1        0.0637
     78 H           4.3919   -0.6832    2.1136 H       1  UNL1        0.0621
@<TRIPOS>BOND
     1     1     2    1
     2     2     3    1
     3     3     4    1
     4     4     5   ar
     5     5     6   ar
     6     6     7   ar
     7     7     8    1
     8     8     9    2
     9     8    10    2
    10     8    11    1
    11    11    12    1
    12    12    13    1
    13    13    14    1
    14    14    15    1
    15    15    16    1
    16    16    17    1
    17    17    18    1
    18    18    19   ar
    19    19    20   ar
    20    20    21    1
    21    21    22    1
    22    22    23    1
    23    23    24   ar
    24    24    25   ar
    25    25    26   ar
    26    26    27    1
    27    27    28   ar
    28    28    29   ar
    29    29    30   ar
    30    30    31   ar
    31    31    32   ar
    32    26    33   ar
    33    20    34   ar
    34    34    35   ar
    35    35    36    1
    36    36    37    1
    37    37    38    1
    38    38    39    1
    39    35    40   ar
    40     7    41   ar
    41    41    42   ar
    42    42     4   ar
    43    17    13    1
    44    40    18   ar
    45    33    23   ar
    46    39    37    1
    47    32    27   ar
    48     1    43    1
    49     1    44    1
    50     1    45    1
    51     2    46    1
    52     2    47    1
    53     3    48    1
    54     3    49    1
    55     5    50    1
    56     6    51    1
    57    11    52    1
    58    12    53    1
    59    12    54    1
    60    13    55    1
    61    14    56    1
    62    14    57    1
    63    15    58    1
    64    15    59    1
    65    16    60    1
    66    16    61    1
    67    21    62    1
    68    22    63    1
    69    22    64    1
    70    24    65    1
    71    28    66    1
    72    29    67    1
    73    30    68    1
    74    31    69    1
    75    32    70    1
    76    36    71    1
    77    37    72    1
    78    38    73    1
    79    38    74    1
    80    39    75    1
    81    39    76    1
    82    41    77    1
    83    42    78    1
