
     RDKit          3D

 48 50  0  0  0  0  0  0  0  0999 V2000
    4.1838   -2.6047    0.3667 C   0  0  1  0  0  0  0  0  0  0  0  0
    5.6290   -2.6353   -0.0377 C   0  0  0  0  0  0  0  0  0  0  0  0
    4.1117   -2.7852    1.7464 O   0  0  0  0  0  0  0  0  0  0  0  0
    3.5383   -1.2862   -0.0136 C   0  0  2  0  0  0  0  0  0  0  0  0
    4.2773   -0.2504    0.6866 N   0  0  0  0  0  0  0  0  0  0  0  0
    2.0658   -1.2812    0.3565 C   0  0  2  0  0  0  0  0  0  0  0  0
    1.3228   -2.2363   -0.2850 O   0  0  0  0  0  0  0  0  0  0  0  0
    1.4694    0.0306    0.1170 C   0  0  0  0  0  0  0  0  0  0  0  0
    0.9887    1.1158   -0.0931 C   0  0  0  0  0  0  0  0  0  0  0  0
    0.4368    2.4070   -0.3592 C   0  0  0  0  0  0  0  0  0  0  0  0
    1.3171    3.4535   -0.4310 C   0  0  0  0  0  0  0  0  0  0  0  0
    2.6540    3.3685   -0.2720 F   0  0  0  0  0  0  0  0  0  0  0  0
    0.9304    4.7549   -0.6825 C   0  0  0  0  0  0  0  0  0  0  0  0
   -0.4274    5.0397   -0.8771 C   0  0  0  0  0  0  0  0  0  0  0  0
   -1.2962    3.9712   -0.8005 C   0  0  0  0  0  0  0  0  0  0  0  0
   -0.8829    2.6818   -0.5482 C   0  0  0  0  0  0  0  0  0  0  0  0
   -2.0314    1.8277   -0.5363 C   0  0  0  0  0  0  0  0  0  0  0  0
   -2.1483    0.5401   -0.3073 C   0  0  0  0  0  0  0  0  0  0  0  0
   -3.3168   -0.3252   -0.3019 C   0  0  0  0  0  0  0  0  0  0  0  0
   -3.8136   -1.2557    0.6013 C   0  0  0  0  0  0  0  0  0  0  0  0
   -3.1606   -1.4467    1.8040 O   0  0  0  0  0  0  0  0  0  0  0  0
   -3.6562   -2.3880    2.7279 C   0  0  0  0  0  0  0  0  0  0  0  0
   -4.9319   -1.8316    0.0668 C   0  0  0  0  0  0  0  0  0  0  0  0
   -5.1229   -1.2418   -1.1869 C   0  0  0  0  0  0  0  0  0  0  0  0
   -4.1325   -0.3329   -1.3888 N   0  0  0  0  0  0  0  0  0  0  0  0
   -3.2137    2.6350   -0.7947 C   0  0  0  0  0  0  0  0  0  0  0  0
   -4.4071    2.3060   -0.8693 O   0  0  0  0  0  0  0  0  0  0  0  0
   -2.7144    3.9708   -0.9551 N   0  0  0  0  0  0  0  0  0  0  0  0
    3.6518   -3.4126   -0.1856 H   0  0  0  0  0  0  0  0  0  0  0  0
    6.3169   -2.5945    0.8538 H   0  0  0  0  0  0  0  0  0  0  0  0
    5.9182   -1.8267   -0.7291 H   0  0  0  0  0  0  0  0  0  0  0  0
    5.8694   -3.6193   -0.5234 H   0  0  0  0  0  0  0  0  0  0  0  0
    4.9183   -3.2829    2.0301 H   0  0  0  0  0  0  0  0  0  0  0  0
    3.6066   -1.0920   -1.0954 H   0  0  0  0  0  0  0  0  0  0  0  0
    4.6842    0.4477    0.0074 H   0  0  0  0  0  0  0  0  0  0  0  0
    4.9910   -0.6211    1.3443 H   0  0  0  0  0  0  0  0  0  0  0  0
    2.0656   -1.4418    1.4792 H   0  0  0  0  0  0  0  0  0  0  0  0
    1.3252   -3.0663    0.2602 H   0  0  0  0  0  0  0  0  0  0  0  0
    1.5706    5.6243   -0.7532 H   0  0  0  0  0  0  0  0  0  0  0  0
   -0.7703    6.0468   -1.0769 H   0  0  0  0  0  0  0  0  0  0  0  0
   -1.3083   -0.0517   -0.0802 H   0  0  0  0  0  0  0  0  0  0  0  0
   -4.4166   -3.0772    2.2946 H   0  0  0  0  0  0  0  0  0  0  0  0
   -2.8686   -3.0431    3.1689 H   0  0  0  0  0  0  0  0  0  0  0  0
   -4.1688   -1.8842    3.5927 H   0  0  0  0  0  0  0  0  0  0  0  0
   -5.4605   -2.5821    0.6194 H   0  0  0  0  0  0  0  0  0  0  0  0
   -5.9973   -1.6219   -1.7243 H   0  0  0  0  0  0  0  0  0  0  0  0
   -4.2579    0.1047   -2.3283 H   0  0  0  0  0  0  0  0  0  0  0  0
   -3.3384    4.7925   -1.1551 H   0  0  0  0  0  0  0  0  0  0  0  0
  1  2  1  0
  1  3  1  0
  1  4  1  0
  4  5  1  0
  4  6  1  0
  6  7  1  0
  6  8  1  0
  8  9  3  0
  9 10  1  0
 10 11  2  0
 11 12  1  0
 11 13  1  0
 13 14  2  0
 14 15  1  0
 15 16  2  0
 16 17  1  0
 17 18  2  0
 18 19  1  0
 19 20  2  0
 20 21  1  0
 21 22  1  0
 20 23  1  0
 23 24  2  0
 24 25  1  0
 17 26  1  0
 26 27  2  0
 26 28  1  0
 16 10  1  0
 25 19  1  0
 28 15  1  0
  1 29  1  6
  2 30  1  0
  2 31  1  0
  2 32  1  0
  3 33  1  0
  4 34  1  6
  5 35  1  0
  5 36  1  0
  6 37  1  1
  7 38  1  0
 13 39  1  0
 14 40  1  0
 18 41  1  0
 22 42  1  0
 22 43  1  0
 22 44  1  0
 23 45  1  0
 24 46  1  0
 25 47  1  0
 28 48  1  0
M  END
$$$$
