@<TRIPOS>MOLECULE
*****
 48 50 0 0 0
SMALL
GASTEIGER

@<TRIPOS>ATOM
      1 C           4.1838   -2.6047    0.3667 C.3     1  UNL1        0.0709
      2 C           5.6290   -2.6353   -0.0377 C.3     1  UNL1       -0.0374
      3 O           4.1117   -2.7852    1.7464 O.3     1  UNL1       -0.3904
      4 C           3.5383   -1.2862   -0.0136 C.3     1  UNL1        0.0685
      5 N           4.2773   -0.2504    0.6866 N.3     1  UNL1       -0.3224
      6 C           2.0658   -1.2812    0.3565 C.3     1  UNL1        0.1332
      7 O           1.3228   -2.2363   -0.2850 O.3     1  UNL1       -0.3776
      8 C           1.4694    0.0306    0.1170 C.1     1  UNL1       -0.0639
      9 C           0.9887    1.1158   -0.0931 C.1     1  UNL1       -0.0601
     10 C           0.4368    2.4070   -0.3592 C.ar    1  UNL1        0.0698
     11 C           1.3171    3.4535   -0.4310 C.ar    1  UNL1        0.1394
     12 F           2.6540    3.3685   -0.2720 F       1  UNL1       -0.2042
     13 C           0.9304    4.7549   -0.6825 C.ar    1  UNL1       -0.0234
     14 C          -0.4274    5.0397   -0.8771 C.ar    1  UNL1       -0.0371
     15 C          -1.2962    3.9712   -0.8005 C.ar    1  UNL1        0.0429
     16 C          -0.8829    2.6818   -0.5482 C.ar    1  UNL1        0.0265
     17 C          -2.0314    1.8277   -0.5363 C.2     1  UNL1        0.0492
     18 C          -2.1483    0.5401   -0.3073 C.2     1  UNL1       -0.0220
     19 C          -3.3168   -0.3252   -0.3019 C.ar    1  UNL1        0.0822
     20 C          -3.8136   -1.2557    0.6013 C.ar    1  UNL1        0.1447
     21 O          -3.1606   -1.4467    1.8040 O.3     1  UNL1       -0.4930
     22 C          -3.6562   -2.3880    2.7279 C.3     1  UNL1        0.0789
     23 C          -4.9319   -1.8316    0.0668 C.ar    1  UNL1       -0.0020
     24 C          -5.1229   -1.2418   -1.1869 C.ar    1  UNL1        0.0057
     25 N          -4.1325   -0.3329   -1.3888 N.ar    1  UNL1       -0.3582
     26 C          -3.2137    2.6350   -0.7947 C.2     1  UNL1        0.2490
     27 O          -4.4071    2.3060   -0.8693 O.2     1  UNL1       -0.2698
     28 N          -2.7144    3.9708   -0.9551 N.am    1  UNL1       -0.2809
     29 H           3.6518   -3.4126   -0.1856 H       1  UNL1        0.0607
     30 H           6.3169   -2.5945    0.8538 H       1  UNL1        0.0255
     31 H           5.9182   -1.8267   -0.7291 H       1  UNL1        0.0255
     32 H           5.8694   -3.6193   -0.5234 H       1  UNL1        0.0255
     33 H           4.9183   -3.2829    2.0301 H       1  UNL1        0.2098
     34 H           3.6066   -1.0920   -1.0954 H       1  UNL1        0.0519
     35 H           4.6842    0.4477    0.0074 H       1  UNL1        0.1186
     36 H           4.9910   -0.6211    1.3443 H       1  UNL1        0.1186
     37 H           2.0656   -1.4418    1.4792 H       1  UNL1        0.0748
     38 H           1.3252   -3.0663    0.2602 H       1  UNL1        0.2112
     39 H           1.5706    5.6243   -0.7532 H       1  UNL1        0.0647
     40 H          -0.7703    6.0468   -1.0769 H       1  UNL1        0.0637
     41 H          -1.3083   -0.0517   -0.0802 H       1  UNL1        0.0647
     42 H          -4.4166   -3.0772    2.2946 H       1  UNL1        0.0660
     43 H          -2.8686   -3.0431    3.1689 H       1  UNL1        0.0660
     44 H          -4.1688   -1.8842    3.5927 H       1  UNL1        0.0660
     45 H          -5.4605   -2.5821    0.6194 H       1  UNL1        0.0669
     46 H          -5.9973   -1.6219   -1.7243 H       1  UNL1        0.0808
     47 H          -4.2579    0.1047   -2.3283 H       1  UNL1        0.1654
     48 H          -3.3384    4.7925   -1.1551 H       1  UNL1        0.1552
@<TRIPOS>BOND
     1     1     2    1
     2     1     3    1
     3     1     4    1
     4     4     5    1
     5     4     6    1
     6     6     7    1
     7     6     8    1
     8     8     9    3
     9     9    10    1
    10    10    11   ar
    11    11    12    1
    12    11    13   ar
    13    13    14   ar
    14    14    15   ar
    15    15    16   ar
    16    16    17    1
    17    17    18    2
    18    18    19    1
    19    19    20   ar
    20    20    21    1
    21    21    22    1
    22    20    23   ar
    23    23    24   ar
    24    24    25   ar
    25    17    26    1
    26    26    27    2
    27    26    28   am
    28    16    10   ar
    29    25    19   ar
    30    28    15    1
    31     1    29    1
    32     2    30    1
    33     2    31    1
    34     2    32    1
    35     3    33    1
    36     4    34    1
    37     5    35    1
    38     5    36    1
    39     6    37    1
    40     7    38    1
    41    13    39    1
    42    14    40    1
    43    18    41    1
    44    22    42    1
    45    22    43    1
    46    22    44    1
    47    23    45    1
    48    24    46    1
    49    25    47    1
    50    28    48    1
