
     RDKit          3D

 43 45  0  0  0  0  0  0  0  0999 V2000
    6.9062    1.3888   -0.2607 C   0  0  0  0  0  0  0  0  0  0  0  0
    5.7514    0.4666   -0.1808 C   0  0  0  0  0  0  0  0  0  0  0  0
    5.6487   -0.3177    0.9416 C   0  0  0  0  0  0  0  0  0  0  0  0
    4.5718   -1.1769    1.0150 C   0  0  0  0  0  0  0  0  0  0  0  0
    3.6184   -1.2609    0.0052 C   0  0  0  0  0  0  0  0  0  0  0  0
    3.7175   -0.4748   -1.1242 C   0  0  0  0  0  0  0  0  0  0  0  0
    4.7980    0.3774   -1.1822 C   0  0  0  0  0  0  0  0  0  0  0  0
    2.3359   -2.4159    0.3019 S   0  0  0  0  0  0  0  0  0  0  0  0
    1.8553   -2.9755   -1.0272 O   0  0  0  0  0  0  0  0  0  0  0  0
    2.8209   -3.5481    1.1584 O   0  0  0  0  0  0  0  0  0  0  0  0
    1.0724   -1.6004    1.1233 N   0  0  0  0  0  0  0  0  0  0  0  0
    0.0153   -0.9561    0.4246 C   0  0  0  0  0  0  0  0  0  0  0  0
   -0.0806   -0.9305   -0.8344 O   0  0  0  0  0  0  0  0  0  0  0  0
   -1.0091   -0.2922    1.1869 N   0  0  0  0  0  0  0  0  0  0  0  0
   -2.1002    0.3764    0.6000 N   0  0  0  0  0  0  0  0  0  0  0  0
   -2.9450    0.9352    1.6399 C   0  0  0  0  0  0  0  0  0  0  0  0
   -4.2706    1.0174    0.9590 C   0  0  0  0  0  0  0  0  0  0  0  0
   -4.2226    1.9387   -0.2285 C   0  0  0  0  0  0  0  0  0  0  0  0
   -5.3774    1.3994   -1.0671 C   0  0  0  0  0  0  0  0  0  0  0  0
   -5.2626   -0.0809   -0.9014 C   0  0  0  0  0  0  0  0  0  0  0  0
   -4.3407   -0.3390    0.2794 C   0  0  0  0  0  0  0  0  0  0  0  0
   -2.9153   -0.5105   -0.1772 C   0  0  0  0  0  0  0  0  0  0  0  0
    7.8664    0.8132   -0.3536 H   0  0  0  0  0  0  0  0  0  0  0  0
    7.0240    2.0142    0.6259 H   0  0  0  0  0  0  0  0  0  0  0  0
    6.8338    2.0174   -1.1533 H   0  0  0  0  0  0  0  0  0  0  0  0
    6.3797   -0.2629    1.7311 H   0  0  0  0  0  0  0  0  0  0  0  0
    4.5204   -1.7900    1.9270 H   0  0  0  0  0  0  0  0  0  0  0  0
    2.9604   -0.5769   -1.8700 H   0  0  0  0  0  0  0  0  0  0  0  0
    4.8895    1.0039   -2.0674 H   0  0  0  0  0  0  0  0  0  0  0  0
    1.0999   -1.5888    2.1757 H   0  0  0  0  0  0  0  0  0  0  0  0
   -0.9232   -0.3172    2.2438 H   0  0  0  0  0  0  0  0  0  0  0  0
   -2.9705    0.2155    2.4714 H   0  0  0  0  0  0  0  0  0  0  0  0
   -2.5807    1.9303    1.9642 H   0  0  0  0  0  0  0  0  0  0  0  0
   -5.1221    1.1995    1.6248 H   0  0  0  0  0  0  0  0  0  0  0  0
   -4.3819    3.0007    0.0467 H   0  0  0  0  0  0  0  0  0  0  0  0
   -3.2558    1.7807   -0.7494 H   0  0  0  0  0  0  0  0  0  0  0  0
   -5.3508    1.7397   -2.1082 H   0  0  0  0  0  0  0  0  0  0  0  0
   -6.2981    1.7850   -0.5551 H   0  0  0  0  0  0  0  0  0  0  0  0
   -6.2766   -0.5138   -0.6990 H   0  0  0  0  0  0  0  0  0  0  0  0
   -4.8706   -0.6218   -1.7791 H   0  0  0  0  0  0  0  0  0  0  0  0
   -4.7065   -1.1332    0.9283 H   0  0  0  0  0  0  0  0  0  0  0  0
   -2.5726   -1.5489   -0.1639 H   0  0  0  0  0  0  0  0  0  0  0  0
   -2.8525   -0.1672   -1.2471 H   0  0  0  0  0  0  0  0  0  0  0  0
  1  2  1  0
  2  3  2  0
  3  4  1  0
  4  5  2  0
  5  6  1  0
  6  7  2  0
  5  8  1  0
  8  9  2  0
  8 10  2  0
  8 11  1  0
 11 12  1  0
 12 13  2  0
 12 14  1  0
 14 15  1  0
 15 16  1  0
 16 17  1  0
 17 18  1  0
 18 19  1  0
 19 20  1  0
 20 21  1  0
 21 22  1  0
  7  2  1  0
 22 15  1  0
 21 17  1  0
  1 23  1  0
  1 24  1  0
  1 25  1  0
  3 26  1  0
  4 27  1  0
  6 28  1  0
  7 29  1  0
 11 30  1  0
 14 31  1  0
 16 32  1  0
 16 33  1  0
 17 34  1  0
 18 35  1  0
 18 36  1  0
 19 37  1  0
 19 38  1  0
 20 39  1  0
 20 40  1  0
 21 41  1  0
 22 42  1  0
 22 43  1  0
M  END
$$$$
