@<TRIPOS>MOLECULE
*****
 43 45 0 0 0
SMALL
GASTEIGER

@<TRIPOS>ATOM
      1 C           6.9062    1.3888   -0.2607 C.3     1  UNL1       -0.0397
      2 C           5.7514    0.4666   -0.1808 C.ar    1  UNL1       -0.0503
      3 C           5.6487   -0.3177    0.9416 C.ar    1  UNL1       -0.0570
      4 C           4.5718   -1.1769    1.0150 C.ar    1  UNL1       -0.0348
      5 C           3.6184   -1.2609    0.0052 C.ar    1  UNL1        0.1086
      6 C           3.7175   -0.4748   -1.1242 C.ar    1  UNL1       -0.0348
      7 C           4.7980    0.3774   -1.1822 C.ar    1  UNL1       -0.0570
      8 S           2.3359   -2.4159    0.3019 S.O2    1  UNL1        0.0756
      9 O           1.8553   -2.9755   -1.0272 O.2     1  UNL1       -0.1499
     10 O           2.8209   -3.5481    1.1584 O.2     1  UNL1       -0.1499
     11 N           1.0724   -1.6004    1.1233 N.am    1  UNL1       -0.1683
     12 C           0.0153   -0.9561    0.4246 C.2     1  UNL1        0.3327
     13 O          -0.0806   -0.9305   -0.8344 O.2     1  UNL1       -0.2499
     14 N          -1.0091   -0.2922    1.1869 N.am    1  UNL1       -0.2309
     15 N          -2.1002    0.3764    0.6000 N.3     1  UNL1       -0.2252
     16 C          -2.9450    0.9352    1.6399 C.3     1  UNL1        0.0199
     17 C          -4.2706    1.0174    0.9590 C.3     1  UNL1       -0.0226
     18 C          -4.2226    1.9387   -0.2285 C.3     1  UNL1       -0.0487
     19 C          -5.3774    1.3994   -1.0671 C.3     1  UNL1       -0.0525
     20 C          -5.2626   -0.0809   -0.9014 C.3     1  UNL1       -0.0487
     21 C          -4.3407   -0.3390    0.2794 C.3     1  UNL1       -0.0226
     22 C          -2.9153   -0.5105   -0.1772 C.3     1  UNL1        0.0199
     23 H           7.8664    0.8132   -0.3536 H       1  UNL1        0.0278
     24 H           7.0240    2.0142    0.6259 H       1  UNL1        0.0278
     25 H           6.8338    2.0174   -1.1533 H       1  UNL1        0.0278
     26 H           6.3797   -0.2629    1.7311 H       1  UNL1        0.0621
     27 H           4.5204   -1.7900    1.9270 H       1  UNL1        0.0637
     28 H           2.9604   -0.5769   -1.8700 H       1  UNL1        0.0637
     29 H           4.8895    1.0039   -2.0674 H       1  UNL1        0.0621
     30 H           1.0999   -1.5888    2.1757 H       1  UNL1        0.1782
     31 H          -0.9232   -0.3172    2.2438 H       1  UNL1        0.1708
     32 H          -2.9705    0.2155    2.4714 H       1  UNL1        0.0446
     33 H          -2.5807    1.9303    1.9642 H       1  UNL1        0.0446
     34 H          -5.1221    1.1995    1.6248 H       1  UNL1        0.0317
     35 H          -4.3819    3.0007    0.0467 H       1  UNL1        0.0268
     36 H          -3.2558    1.7807   -0.7494 H       1  UNL1        0.0268
     37 H          -5.3508    1.7397   -2.1082 H       1  UNL1        0.0265
     38 H          -6.2981    1.7850   -0.5551 H       1  UNL1        0.0265
     39 H          -6.2766   -0.5138   -0.6990 H       1  UNL1        0.0268
     40 H          -4.8706   -0.6218   -1.7791 H       1  UNL1        0.0268
     41 H          -4.7065   -1.1332    0.9283 H       1  UNL1        0.0317
     42 H          -2.5726   -1.5489   -0.1639 H       1  UNL1        0.0446
     43 H          -2.8525   -0.1672   -1.2471 H       1  UNL1        0.0446
@<TRIPOS>BOND
     1     1     2    1
     2     2     3   ar
     3     3     4   ar
     4     4     5   ar
     5     5     6   ar
     6     6     7   ar
     7     5     8    1
     8     8     9    2
     9     8    10    2
    10     8    11    1
    11    11    12   am
    12    12    13    2
    13    12    14   am
    14    14    15    1
    15    15    16    1
    16    16    17    1
    17    17    18    1
    18    18    19    1
    19    19    20    1
    20    20    21    1
    21    21    22    1
    22     7     2   ar
    23    22    15    1
    24    21    17    1
    25     1    23    1
    26     1    24    1
    27     1    25    1
    28     3    26    1
    29     4    27    1
    30     6    28    1
    31     7    29    1
    32    11    30    1
    33    14    31    1
    34    16    32    1
    35    16    33    1
    36    17    34    1
    37    18    35    1
    38    18    36    1
    39    19    37    1
    40    19    38    1
    41    20    39    1
    42    20    40    1
    43    21    41    1
    44    22    42    1
    45    22    43    1
