
     RDKit          3D

 51 55  0  0  0  0  0  0  0  0999 V2000
    8.9918    0.0994    2.3880 C   0  0  0  0  0  0  0  0  0  0  0  0
    8.0609   -0.9489    2.3834 O   0  0  0  0  0  0  0  0  0  0  0  0
    6.8504   -0.7809    1.7404 C   0  0  0  0  0  0  0  0  0  0  0  0
    5.8851   -1.7732    1.6962 C   0  0  0  0  0  0  0  0  0  0  0  0
    4.7214   -1.5625    1.0575 N   0  0  0  0  0  0  0  0  0  0  0  0
    4.4357   -0.3991    0.4381 C   0  0  0  0  0  0  0  0  0  0  0  0
    3.1682   -0.1773   -0.2545 C   0  0  0  0  0  0  0  0  0  0  0  0
    2.9925    0.9431   -0.8039 O   0  0  0  0  0  0  0  0  0  0  0  0
    2.1525   -1.1520   -0.3298 N   0  0  0  0  0  0  0  0  0  0  0  0
    0.9154   -0.9629   -0.9944 C   0  0  0  0  0  0  0  0  0  0  0  0
    0.8652   -1.3145   -2.3330 C   0  0  0  0  0  0  0  0  0  0  0  0
   -0.3253   -1.1343   -2.9835 C   0  0  0  0  0  0  0  0  0  0  0  0
   -1.4571   -0.6086   -2.3085 C   0  0  0  0  0  0  0  0  0  0  0  0
   -1.3803   -0.2790   -1.0115 C   0  0  0  0  0  0  0  0  0  0  0  0
   -0.1710   -0.4578   -0.3399 C   0  0  0  0  0  0  0  0  0  0  0  0
   -2.5602    0.2170   -0.2165 C   0  0  0  0  0  0  0  0  0  0  0  0
   -2.9040   -1.0088    0.6419 C   0  0  0  0  0  0  0  0  0  0  0  0
   -3.9052   -0.8559    1.7021 C   0  0  0  0  0  0  0  0  0  0  0  0
   -3.3343    0.4891    2.8104 S   0  0  0  0  0  0  0  0  0  0  0  0
   -2.4195    1.6135    1.7268 C   0  0  0  0  0  0  0  0  0  0  0  0
   -1.9863    2.8217    2.3793 N   0  0  0  0  0  0  0  0  0  0  0  0
   -2.1895    1.3583    0.5265 N   0  0  0  0  0  0  0  0  0  0  0  0
   -3.7200    0.4287   -1.0930 C   0  0  0  0  0  0  0  0  0  0  0  0
   -4.8829    0.9633   -0.5549 C   0  0  0  0  0  0  0  0  0  0  0  0
   -6.0224    1.1337   -1.3016 C   0  0  0  0  0  0  0  0  0  0  0  0
   -7.1494    1.6829   -0.6624 O   0  0  0  0  0  0  0  0  0  0  0  0
   -6.0593    0.7791   -2.6291 C   0  0  0  0  0  0  0  0  0  0  0  0
   -4.9078    0.2561   -3.1524 C   0  0  0  0  0  0  0  0  0  0  0  0
   -4.8730   -0.1185   -4.4697 F   0  0  0  0  0  0  0  0  0  0  0  0
   -3.7293    0.0745   -2.4045 C   0  0  0  0  0  0  0  0  0  0  0  0
   -2.6210   -0.4535   -3.0624 O   0  0  0  0  0  0  0  0  0  0  0  0
    5.4103    0.5738    0.4946 C   0  0  0  0  0  0  0  0  0  0  0  0
    6.5841    0.3825    1.1301 N   0  0  0  0  0  0  0  0  0  0  0  0
   10.0394   -0.2504    2.4864 H   0  0  0  0  0  0  0  0  0  0  0  0
    8.8893    0.6283    1.4103 H   0  0  0  0  0  0  0  0  0  0  0  0
    8.7127    0.8272    3.1758 H   0  0  0  0  0  0  0  0  0  0  0  0
    6.1308   -2.7036    2.1998 H   0  0  0  0  0  0  0  0  0  0  0  0
    2.3192   -2.0863    0.1378 H   0  0  0  0  0  0  0  0  0  0  0  0
    1.7432   -1.7129   -2.8225 H   0  0  0  0  0  0  0  0  0  0  0  0
   -0.4232   -1.3894   -4.0226 H   0  0  0  0  0  0  0  0  0  0  0  0
   -0.1432   -0.1819    0.6974 H   0  0  0  0  0  0  0  0  0  0  0  0
   -3.3091   -1.7531   -0.1122 H   0  0  0  0  0  0  0  0  0  0  0  0
   -1.9658   -1.4780    1.0238 H   0  0  0  0  0  0  0  0  0  0  0  0
   -4.9538   -0.7798    1.4320 H   0  0  0  0  0  0  0  0  0  0  0  0
   -3.8641   -1.8314    2.3100 H   0  0  0  0  0  0  0  0  0  0  0  0
   -1.5475    2.7326    3.3018 H   0  0  0  0  0  0  0  0  0  0  0  0
   -2.1347    3.7175    1.8950 H   0  0  0  0  0  0  0  0  0  0  0  0
   -4.9118    1.2964    0.4945 H   0  0  0  0  0  0  0  0  0  0  0  0
   -7.2632    2.6930   -0.7017 H   0  0  0  0  0  0  0  0  0  0  0  0
   -6.9549    0.9170   -3.1956 H   0  0  0  0  0  0  0  0  0  0  0  0
    5.2011    1.5261   -0.0007 H   0  0  0  0  0  0  0  0  0  0  0  0
  1  2  1  0
  2  3  1  0
  3  4  2  0
  4  5  1  0
  5  6  2  0
  6  7  1  0
  7  8  2  0
  7  9  1  0
  9 10  1  0
 10 11  2  0
 11 12  1  0
 12 13  2  0
 13 14  1  0
 14 15  2  0
 14 16  1  0
 16 17  1  0
 17 18  1  0
 18 19  1  0
 19 20  1  0
 20 21  1  0
 20 22  2  0
 16 23  1  0
 23 24  2  0
 24 25  1  0
 25 26  1  0
 25 27  2  0
 27 28  1  0
 28 29  1  0
 28 30  2  0
 30 31  1  0
  6 32  1  0
 32 33  2  0
 33  3  1  0
 15 10  1  0
 22 16  1  0
 30 23  1  0
 31 13  1  0
  1 34  1  0
  1 35  1  0
  1 36  1  0
  4 37  1  0
  9 38  1  0
 11 39  1  0
 12 40  1  0
 15 41  1  0
 17 42  1  0
 17 43  1  0
 18 44  1  0
 18 45  1  0
 21 46  1  0
 21 47  1  0
 24 48  1  0
 26 49  1  0
 27 50  1  0
 32 51  1  0
M  END
$$$$
