@<TRIPOS>MOLECULE
*****
 51 55 0 0 0
SMALL
GASTEIGER

@<TRIPOS>ATOM
      1 C           8.9918    0.0994    2.3880 C.3     1  UNL1        0.0805
      2 O           8.0609   -0.9489    2.3834 O.3     1  UNL1       -0.4786
      3 C           6.8504   -0.7809    1.7404 C.ar    1  UNL1        0.2332
      4 C           5.8851   -1.7732    1.6962 C.ar    1  UNL1        0.0899
      5 N           4.7214   -1.5625    1.0575 N.ar    1  UNL1       -0.2435
      6 C           4.4357   -0.3991    0.4381 C.ar    1  UNL1        0.1439
      7 C           3.1682   -0.1773   -0.2545 C.2     1  UNL1        0.2681
      8 O           2.9925    0.9431   -0.8039 O.2     1  UNL1       -0.2681
      9 N           2.1525   -1.1520   -0.3298 N.am    1  UNL1       -0.2802
     10 C           0.9154   -0.9629   -0.9944 C.ar    1  UNL1        0.0343
     11 C           0.8652   -1.3145   -2.3330 C.ar    1  UNL1       -0.0370
     12 C          -0.3253   -1.1343   -2.9835 C.ar    1  UNL1       -0.0172
     13 C          -1.4571   -0.6086   -2.3085 C.ar    1  UNL1        0.1345
     14 C          -1.3803   -0.2790   -1.0115 C.ar    1  UNL1        0.0285
     15 C          -0.1710   -0.4578   -0.3399 C.ar    1  UNL1       -0.0312
     16 C          -2.5602    0.2170   -0.2165 C.3     1  UNL1        0.1217
     17 C          -2.9040   -1.0088    0.6419 C.3     1  UNL1       -0.0096
     18 C          -3.9052   -0.8559    1.7021 C.3     1  UNL1        0.0037
     19 S          -3.3343    0.4891    2.8104 S.3     1  UNL1       -0.0910
     20 C          -2.4195    1.6135    1.7268 C.2     1  UNL1        0.1478
     21 N          -1.9863    2.8217    2.3793 N.pl3   1  UNL1       -0.3380
     22 N          -2.1895    1.3583    0.5265 N.2     1  UNL1       -0.2472
     23 C          -3.7200    0.4287   -1.0930 C.ar    1  UNL1        0.0331
     24 C          -4.8829    0.9633   -0.5549 C.ar    1  UNL1       -0.0107
     25 C          -6.0224    1.1337   -1.3016 C.ar    1  UNL1        0.1202
     26 O          -7.1494    1.6829   -0.6624 O.3     1  UNL1       -0.5067
     27 C          -6.0593    0.7791   -2.6291 C.ar    1  UNL1        0.0187
     28 C          -4.9078    0.2561   -3.1524 C.ar    1  UNL1        0.1692
     29 F          -4.8730   -0.1185   -4.4697 F       1  UNL1       -0.2015
     30 C          -3.7293    0.0745   -2.4045 C.ar    1  UNL1        0.1695
     31 O          -2.6210   -0.4535   -3.0624 O.3     1  UNL1       -0.4524
     32 C           5.4103    0.5738    0.4946 C.ar    1  UNL1        0.0619
     33 N           6.5841    0.3825    1.1301 N.ar    1  UNL1       -0.2178
     34 H          10.0394   -0.2504    2.4864 H       1  UNL1        0.0660
     35 H           8.8893    0.6283    1.4103 H       1  UNL1        0.0660
     36 H           8.7127    0.8272    3.1758 H       1  UNL1        0.0660
     37 H           6.1308   -2.7036    2.1998 H       1  UNL1        0.0884
     38 H           2.3192   -2.0863    0.1378 H       1  UNL1        0.1552
     39 H           1.7432   -1.7129   -2.8225 H       1  UNL1        0.0637
     40 H          -0.4232   -1.3894   -4.0226 H       1  UNL1        0.0655
     41 H          -0.1432   -0.1819    0.6974 H       1  UNL1        0.0641
     42 H          -3.3091   -1.7531   -0.1122 H       1  UNL1        0.0303
     43 H          -1.9658   -1.4780    1.0238 H       1  UNL1        0.0303
     44 H          -4.9538   -0.7798    1.4320 H       1  UNL1        0.0381
     45 H          -3.8641   -1.8314    2.3100 H       1  UNL1        0.0381
     46 H          -1.5475    2.7326    3.3018 H       1  UNL1        0.1442
     47 H          -2.1347    3.7175    1.8950 H       1  UNL1        0.1442
     48 H          -4.9118    1.2964    0.4945 H       1  UNL1        0.0659
     49 H          -7.2632    2.6930   -0.7017 H       1  UNL1        0.2921
     50 H          -6.9549    0.9170   -3.1956 H       1  UNL1        0.0684
     51 H           5.2011    1.5261   -0.0007 H       1  UNL1        0.0854
@<TRIPOS>BOND
     1     1     2    1
     2     2     3    1
     3     3     4   ar
     4     4     5   ar
     5     5     6   ar
     6     6     7    1
     7     7     8    2
     8     7     9   am
     9     9    10    1
    10    10    11   ar
    11    11    12   ar
    12    12    13   ar
    13    13    14   ar
    14    14    15   ar
    15    14    16    1
    16    16    17    1
    17    17    18    1
    18    18    19    1
    19    19    20    1
    20    20    21    1
    21    20    22    2
    22    16    23    1
    23    23    24   ar
    24    24    25   ar
    25    25    26    1
    26    25    27   ar
    27    27    28   ar
    28    28    29    1
    29    28    30   ar
    30    30    31    1
    31     6    32   ar
    32    32    33   ar
    33    33     3   ar
    34    15    10   ar
    35    22    16    1
    36    30    23   ar
    37    31    13    1
    38     1    34    1
    39     1    35    1
    40     1    36    1
    41     4    37    1
    42     9    38    1
    43    11    39    1
    44    12    40    1
    45    15    41    1
    46    17    42    1
    47    17    43    1
    48    18    44    1
    49    18    45    1
    50    21    46    1
    51    21    47    1
    52    24    48    1
    53    26    49    1
    54    27    50    1
    55    32    51    1
