
     RDKit          3D

 32 32  0  0  0  0  0  0  0  0999 V2000
    5.9971    0.1685   -0.3840 C   0  0  0  0  0  0  0  0  0  0  0  0
    4.8079   -0.1677   -0.6457 C   0  0  0  0  0  0  0  0  0  0  0  0
    3.4663   -0.5411   -0.9655 C   0  0  0  0  0  0  0  0  0  0  0  0
    2.5903    0.4473   -0.2920 N   0  0  0  0  0  0  0  0  0  0  0  0
    2.8735    0.3028    1.1786 C   0  0  0  0  0  0  0  0  0  0  0  0
    1.2510   -0.1064   -0.4146 C   0  0  0  0  0  0  0  0  0  0  0  0
    0.7137   -0.1434   -1.7902 C   0  0  0  0  0  0  0  0  0  0  0  0
   -0.7201   -0.7907   -1.5661 C   0  0  0  0  0  0  0  0  0  0  0  0
   -1.3463    0.1556   -0.7751 O   0  0  0  0  0  0  0  0  0  0  0  0
   -2.5298    0.1641   -0.1761 C   0  0  0  0  0  0  0  0  0  0  0  0
   -3.4811   -0.8202   -0.1426 C   0  0  0  0  0  0  0  0  0  0  0  0
   -4.6863   -0.6779    0.5361 C   0  0  0  0  0  0  0  0  0  0  0  0
   -4.9509    0.4779    1.2025 C   0  0  0  0  0  0  0  0  0  0  0  0
   -6.4431    0.7142    2.0731 Cl  0  0  0  0  0  0  0  0  0  0  0  0
   -4.0233    1.5456    1.2199 C   0  0  0  0  0  0  0  0  0  0  0  0
   -2.8609    1.3410    0.5318 C   0  0  0  0  0  0  0  0  0  0  0  0
   -1.6607    2.6500    0.4311 Cl  0  0  0  0  0  0  0  0  0  0  0  0
    7.0167    0.4420   -0.1660 H   0  0  0  0  0  0  0  0  0  0  0  0
    3.2503   -0.4269   -2.0495 H   0  0  0  0  0  0  0  0  0  0  0  0
    3.2050   -1.5757   -0.6811 H   0  0  0  0  0  0  0  0  0  0  0  0
    3.5800    1.0955    1.4061 H   0  0  0  0  0  0  0  0  0  0  0  0
    1.9129    0.5372    1.6620 H   0  0  0  0  0  0  0  0  0  0  0  0
    3.1615   -0.7164    1.4161 H   0  0  0  0  0  0  0  0  0  0  0  0
    1.3444   -1.1674   -0.0263 H   0  0  0  0  0  0  0  0  0  0  0  0
    0.5067    0.4357    0.2315 H   0  0  0  0  0  0  0  0  0  0  0  0
    0.4115    0.9042   -2.1134 H   0  0  0  0  0  0  0  0  0  0  0  0
    1.2104   -0.6765   -2.5601 H   0  0  0  0  0  0  0  0  0  0  0  0
   -1.1703   -1.0131   -2.5332 H   0  0  0  0  0  0  0  0  0  0  0  0
   -0.5172   -1.7016   -0.9722 H   0  0  0  0  0  0  0  0  0  0  0  0
   -3.2700   -1.7653   -0.6727 H   0  0  0  0  0  0  0  0  0  0  0  0
   -5.3779   -1.5245    0.4998 H   0  0  0  0  0  0  0  0  0  0  0  0
   -4.2614    2.4332    1.7558 H   0  0  0  0  0  0  0  0  0  0  0  0
  1  2  3  0
  2  3  1  0
  3  4  1  0
  4  5  1  0
  4  6  1  0
  6  7  1  0
  7  8  1  0
  8  9  1  0
  9 10  1  0
 10 11  2  0
 11 12  1  0
 12 13  2  0
 13 14  1  0
 13 15  1  0
 15 16  2  0
 16 17  1  0
 16 10  1  0
  1 18  1  0
  3 19  1  0
  3 20  1  0
  5 21  1  0
  5 22  1  0
  5 23  1  0
  6 24  1  0
  6 25  1  0
  7 26  1  0
  7 27  1  0
  8 28  1  0
  8 29  1  0
 11 30  1  0
 12 31  1  0
 15 32  1  0
M  END
$$$$
