@<TRIPOS>MOLECULE
*****
 32 32 0 0 0
SMALL
GASTEIGER

@<TRIPOS>ATOM
      1 C           5.9971    0.1685   -0.3840 C.1     1  UNL1       -0.1179
      2 C           4.8079   -0.1677   -0.6457 C.1     1  UNL1       -0.0900
      3 C           3.4663   -0.5411   -0.9655 C.3     1  UNL1        0.0604
      4 N           2.5903    0.4473   -0.2920 N.3     1  UNL1       -0.2945
      5 C           2.8735    0.3028    1.1786 C.3     1  UNL1       -0.0119
      6 C           1.2510   -0.1064   -0.4146 C.3     1  UNL1        0.0026
      7 C           0.7137   -0.1434   -1.7902 C.3     1  UNL1       -0.0058
      8 C          -0.7201   -0.7907   -1.5661 C.3     1  UNL1        0.0908
      9 O          -1.3463    0.1556   -0.7751 O.3     1  UNL1       -0.4905
     10 C          -2.5298    0.1641   -0.1761 C.ar    1  UNL1        0.1388
     11 C          -3.4811   -0.8202   -0.1426 C.ar    1  UNL1       -0.0171
     12 C          -4.6863   -0.6779    0.5361 C.ar    1  UNL1       -0.0398
     13 C          -4.9509    0.4779    1.2025 C.ar    1  UNL1        0.0426
     14 CL         -6.4431    0.7142    2.0731 Cl      1  UNL1       -0.0835
     15 C          -4.0233    1.5456    1.2199 C.ar    1  UNL1       -0.0215
     16 C          -2.8609    1.3410    0.5318 C.ar    1  UNL1        0.0839
     17 CL         -1.6607    2.6500    0.4311 Cl      1  UNL1       -0.0797
     18 H           7.0167    0.4420   -0.1660 H       1  UNL1        0.1228
     19 H           3.2503   -0.4269   -2.0495 H       1  UNL1        0.0563
     20 H           3.2050   -1.5757   -0.6811 H       1  UNL1        0.0563
     21 H           3.5800    1.0955    1.4061 H       1  UNL1        0.0391
     22 H           1.9129    0.5372    1.6620 H       1  UNL1        0.0391
     23 H           3.1615   -0.7164    1.4161 H       1  UNL1        0.0391
     24 H           1.3444   -1.1674   -0.0263 H       1  UNL1        0.0428
     25 H           0.5067    0.4357    0.2315 H       1  UNL1        0.0428
     26 H           0.4115    0.9042   -2.1134 H       1  UNL1        0.0310
     27 H           1.2104   -0.6765   -2.5601 H       1  UNL1        0.0310
     28 H          -1.1703   -1.0131   -2.5332 H       1  UNL1        0.0697
     29 H          -0.5172   -1.7016   -0.9722 H       1  UNL1        0.0697
     30 H          -3.2700   -1.7653   -0.6727 H       1  UNL1        0.0655
     31 H          -5.3779   -1.5245    0.4998 H       1  UNL1        0.0633
     32 H          -4.2614    2.4332    1.7558 H       1  UNL1        0.0648
@<TRIPOS>BOND
     1     1     2    3
     2     2     3    1
     3     3     4    1
     4     4     5    1
     5     4     6    1
     6     6     7    1
     7     7     8    1
     8     8     9    1
     9     9    10    1
    10    10    11   ar
    11    11    12   ar
    12    12    13   ar
    13    13    14    1
    14    13    15   ar
    15    15    16   ar
    16    16    17    1
    17    16    10   ar
    18     1    18    1
    19     3    19    1
    20     3    20    1
    21     5    21    1
    22     5    22    1
    23     5    23    1
    24     6    24    1
    25     6    25    1
    26     7    26    1
    27     7    27    1
    28     8    28    1
    29     8    29    1
    30    11    30    1
    31    12    31    1
    32    15    32    1
