
     RDKit          3D

 64 67  0  0  0  0  0  0  0  0999 V2000
   -0.2712    1.2096   -3.2983 C   0  0  0  0  0  0  0  0  0  0  0  0
    0.4328    0.3590   -2.2624 C   0  0  0  0  0  0  0  0  0  0  0  0
    1.2682    1.2415   -1.3544 C   0  0  0  0  0  0  0  0  0  0  0  0
    1.9453    0.3643   -0.3496 C   0  0  0  0  0  0  0  0  0  0  0  0
    3.2811    0.1014   -0.5295 C   0  0  0  0  0  0  0  0  0  0  0  0
    3.9687   -0.6993    0.3575 C   0  0  0  0  0  0  0  0  0  0  0  0
    5.3246   -0.9818    0.1976 O   0  0  0  0  0  0  0  0  0  0  0  0
    6.2415   -0.1129    0.8101 C   0  0  0  0  0  0  0  0  0  0  0  0
    5.8394    0.9734    1.5434 C   0  0  0  0  0  0  0  0  0  0  0  0
    6.7270    1.8458    2.1582 C   0  0  0  0  0  0  0  0  0  0  0  0
    8.0701    1.6140    2.0283 C   0  0  0  0  0  0  0  0  0  0  0  0
    8.9611    2.4610    2.6256 F   0  0  0  0  0  0  0  0  0  0  0  0
    8.5108    0.5323    1.2988 C   0  0  0  0  0  0  0  0  0  0  0  0
    9.9809    0.3430    1.2003 C   0  0  0  0  0  0  0  0  0  0  0  0
    7.6005   -0.3243    0.6946 C   0  0  0  0  0  0  0  0  0  0  0  0
    3.2483   -1.2165    1.4254 C   0  0  0  0  0  0  0  0  0  0  0  0
    1.9092   -0.9459    1.5959 C   0  0  0  0  0  0  0  0  0  0  0  0
    1.2045   -0.1516    0.7249 C   0  0  0  0  0  0  0  0  0  0  0  0
   -0.1041    0.1859    0.7861 O   0  0  0  0  0  0  0  0  0  0  0  0
   -1.1199   -0.1142    1.6438 C   0  0  0  0  0  0  0  0  0  0  0  0
   -1.5181   -1.5653    1.7685 C   0  0  0  0  0  0  0  0  0  0  0  0
   -1.9728   -2.1361    0.4548 C   0  0  0  0  0  0  0  0  0  0  0  0
   -3.0543   -1.5127   -0.0891 O   0  0  0  0  0  0  0  0  0  0  0  0
   -4.3611   -1.3613    0.2754 C   0  0  0  0  0  0  0  0  0  0  0  0
   -4.9152   -1.9102    1.4085 C   0  0  0  0  0  0  0  0  0  0  0  0
   -6.2431   -1.6912    1.6836 C   0  0  0  0  0  0  0  0  0  0  0  0
   -7.0346   -0.9199    0.8268 C   0  0  0  0  0  0  0  0  0  0  0  0
   -6.4874   -0.3672   -0.3111 C   0  0  0  0  0  0  0  0  0  0  0  0
   -7.3225    0.4386   -1.2053 C   0  0  0  0  0  0  0  0  0  0  0  0
   -9.0486    0.7543   -0.9096 S   0  0  0  0  0  0  0  0  0  0  0  0
   -9.2815    1.7647   -2.4070 C   0  0  0  0  0  0  0  0  0  0  0  0
  -10.3699    2.3007   -2.7556 O   0  0  0  0  0  0  0  0  0  0  0  0
   -8.0627    1.7460   -2.9403 N   0  0  0  0  0  0  0  0  0  0  0  0
   -7.0947    1.0946   -2.3526 C   0  0  0  0  0  0  0  0  0  0  0  0
   -5.7751    1.0739   -2.9288 O   0  0  0  0  0  0  0  0  0  0  0  0
   -5.1861   -0.5823   -0.5789 C   0  0  0  0  0  0  0  0  0  0  0  0
   -1.1397    0.6808   -3.7448 H   0  0  0  0  0  0  0  0  0  0  0  0
    0.4600    1.3569   -4.1322 H   0  0  0  0  0  0  0  0  0  0  0  0
   -0.5982    2.1913   -2.8958 H   0  0  0  0  0  0  0  0  0  0  0  0
    1.0785   -0.3566   -2.8050 H   0  0  0  0  0  0  0  0  0  0  0  0
   -0.3061   -0.2173   -1.6461 H   0  0  0  0  0  0  0  0  0  0  0  0
    0.6543    2.0094   -0.8592 H   0  0  0  0  0  0  0  0  0  0  0  0
    2.0148    1.7837   -1.9677 H   0  0  0  0  0  0  0  0  0  0  0  0
    3.8420    0.5101   -1.3701 H   0  0  0  0  0  0  0  0  0  0  0  0
    4.7949    1.1800    1.6627 H   0  0  0  0  0  0  0  0  0  0  0  0
    6.3540    2.6812    2.7209 H   0  0  0  0  0  0  0  0  0  0  0  0
   10.2551   -0.6677    0.8339 H   0  0  0  0  0  0  0  0  0  0  0  0
   10.4584    1.1044    0.5341 H   0  0  0  0  0  0  0  0  0  0  0  0
   10.4346    0.4401    2.2192 H   0  0  0  0  0  0  0  0  0  0  0  0
    7.9603   -1.1567    0.1341 H   0  0  0  0  0  0  0  0  0  0  0  0
    3.8060   -1.8492    2.1199 H   0  0  0  0  0  0  0  0  0  0  0  0
    1.3955   -1.3606    2.4427 H   0  0  0  0  0  0  0  0  0  0  0  0
   -2.0484    0.4313    1.3513 H   0  0  0  0  0  0  0  0  0  0  0  0
   -0.8535    0.2407    2.6802 H   0  0  0  0  0  0  0  0  0  0  0  0
   -0.7406   -2.2289    2.1637 H   0  0  0  0  0  0  0  0  0  0  0  0
   -2.3421   -1.5860    2.4980 H   0  0  0  0  0  0  0  0  0  0  0  0
   -2.2697   -3.2196    0.6384 H   0  0  0  0  0  0  0  0  0  0  0  0
   -1.1092   -2.2545   -0.2589 H   0  0  0  0  0  0  0  0  0  0  0  0
   -4.3308   -2.5401    2.0957 H   0  0  0  0  0  0  0  0  0  0  0  0
   -6.7260   -2.0999    2.5618 H   0  0  0  0  0  0  0  0  0  0  0  0
   -8.0780   -0.7434    1.0366 H   0  0  0  0  0  0  0  0  0  0  0  0
   -7.9340    2.2980   -3.8768 H   0  0  0  0  0  0  0  0  0  0  0  0
   -5.6537    1.0463   -3.9190 H   0  0  0  0  0  0  0  0  0  0  0  0
   -4.6695   -0.1860   -1.4532 H   0  0  0  0  0  0  0  0  0  0  0  0
  1  2  1  0
  2  3  1  0
  3  4  1  0
  4  5  2  0
  5  6  1  0
  6  7  1  0
  7  8  1  0
  8  9  2  0
  9 10  1  0
 10 11  2  0
 11 12  1  0
 11 13  1  0
 13 14  1  0
 13 15  2  0
  6 16  2  0
 16 17  1  0
 17 18  2  0
 18 19  1  0
 19 20  1  0
 20 21  1  0
 21 22  1  0
 22 23  1  0
 23 24  1  0
 24 25  2  0
 25 26  1  0
 26 27  2  0
 27 28  1  0
 28 29  1  0
 29 30  1  0
 30 31  1  0
 31 32  2  0
 31 33  1  0
 33 34  1  0
 34 35  1  0
 28 36  2  0
 18  4  1  0
 36 24  1  0
 15  8  1  0
 34 29  2  0
  1 37  1  0
  1 38  1  0
  1 39  1  0
  2 40  1  0
  2 41  1  0
  3 42  1  0
  3 43  1  0
  5 44  1  0
  9 45  1  0
 10 46  1  0
 14 47  1  0
 14 48  1  0
 14 49  1  0
 15 50  1  0
 16 51  1  0
 17 52  1  0
 20 53  1  0
 20 54  1  0
 21 55  1  0
 21 56  1  0
 22 57  1  0
 22 58  1  0
 25 59  1  0
 26 60  1  0
 27 61  1  0
 33 62  1  0
 35 63  1  0
 36 64  1  0
M  END
$$$$
