@<TRIPOS>MOLECULE
*****
 64 67 0 0 0
SMALL
GASTEIGER

@<TRIPOS>ATOM
      1 C          -0.2712    1.2096   -3.2983 C.3     1  UNL1       -0.0650
      2 C           0.4328    0.3590   -2.2624 C.3     1  UNL1       -0.0518
      3 C           1.2682    1.2415   -1.3544 C.3     1  UNL1       -0.0244
      4 C           1.9453    0.3643   -0.3496 C.ar    1  UNL1       -0.0022
      5 C           3.2811    0.1014   -0.5295 C.ar    1  UNL1       -0.0127
      6 C           3.9687   -0.6993    0.3575 C.ar    1  UNL1        0.1289
      7 O           5.3246   -0.9818    0.1976 O.3     1  UNL1       -0.4560
      8 C           6.2415   -0.1129    0.8101 C.ar    1  UNL1        0.1289
      9 C           5.8394    0.9734    1.5434 C.ar    1  UNL1       -0.0166
     10 C           6.7270    1.8458    2.1582 C.ar    1  UNL1       -0.0227
     11 C           8.0701    1.6140    2.0283 C.ar    1  UNL1        0.1265
     12 F           8.9611    2.4610    2.6256 F       1  UNL1       -0.2052
     13 C           8.5108    0.5323    1.2988 C.ar    1  UNL1       -0.0118
     14 C           9.9809    0.3430    1.2003 C.3     1  UNL1       -0.0369
     15 C           7.6005   -0.3243    0.6946 C.ar    1  UNL1       -0.0137
     16 C           3.2483   -1.2165    1.4254 C.ar    1  UNL1       -0.0159
     17 C           1.9092   -0.9459    1.5959 C.ar    1  UNL1       -0.0162
     18 C           1.2045   -0.1516    0.7249 C.ar    1  UNL1        0.1239
     19 O          -0.1041    0.1859    0.7861 O.3     1  UNL1       -0.4916
     20 C          -1.1199   -0.1142    1.6438 C.3     1  UNL1        0.0927
     21 C          -1.5181   -1.5653    1.7685 C.3     1  UNL1        0.0157
     22 C          -1.9728   -2.1361    0.4548 C.3     1  UNL1        0.0927
     23 O          -3.0543   -1.5127   -0.0891 O.3     1  UNL1       -0.4918
     24 C          -4.3611   -1.3613    0.2754 C.ar    1  UNL1        0.1211
     25 C          -4.9152   -1.9102    1.4085 C.ar    1  UNL1       -0.0199
     26 C          -6.2431   -1.6912    1.6836 C.ar    1  UNL1       -0.0577
     27 C          -7.0346   -0.9199    0.8268 C.ar    1  UNL1       -0.0531
     28 C          -6.4874   -0.3672   -0.3111 C.ar    1  UNL1       -0.0026
     29 C          -7.3225    0.4386   -1.2053 C.ar    1  UNL1        0.0838
     30 S          -9.0486    0.7543   -0.9096 S.2     1  UNL1       -0.0230
     31 C          -9.2815    1.7647   -2.4070 C.ar    1  UNL1        0.2913
     32 O         -10.3699    2.3007   -2.7556 O.2     1  UNL1       -0.2596
     33 N          -8.0627    1.7460   -2.9403 N.ar    1  UNL1       -0.2870
     34 C          -7.0947    1.0946   -2.3526 C.ar    1  UNL1        0.2081
     35 O          -5.7751    1.0739   -2.9288 O.3     1  UNL1       -0.4928
     36 C          -5.1861   -0.5823   -0.5789 C.ar    1  UNL1       -0.0116
     37 H          -1.1397    0.6808   -3.7448 H       1  UNL1        0.0230
     38 H           0.4600    1.3569   -4.1322 H       1  UNL1        0.0230
     39 H          -0.5982    2.1913   -2.8958 H       1  UNL1        0.0230
     40 H           1.0785   -0.3566   -2.8050 H       1  UNL1        0.0266
     41 H          -0.3061   -0.2173   -1.6461 H       1  UNL1        0.0266
     42 H           0.6543    2.0094   -0.8592 H       1  UNL1        0.0314
     43 H           2.0148    1.7837   -1.9677 H       1  UNL1        0.0314
     44 H           3.8420    0.5101   -1.3701 H       1  UNL1        0.0658
     45 H           4.7949    1.1800    1.6627 H       1  UNL1        0.0655
     46 H           6.3540    2.6812    2.7209 H       1  UNL1        0.0647
     47 H          10.2551   -0.6677    0.8339 H       1  UNL1        0.0278
     48 H          10.4584    1.1044    0.5341 H       1  UNL1        0.0278
     49 H          10.4346    0.4401    2.2192 H       1  UNL1        0.0278
     50 H           7.9603   -1.1567    0.1341 H       1  UNL1        0.0658
     51 H           3.8060   -1.8492    2.1199 H       1  UNL1        0.0655
     52 H           1.3955   -1.3606    2.4427 H       1  UNL1        0.0655
     53 H          -2.0484    0.4313    1.3513 H       1  UNL1        0.0697
     54 H          -0.8535    0.2407    2.6802 H       1  UNL1        0.0697
     55 H          -0.7406   -2.2289    2.1637 H       1  UNL1        0.0331
     56 H          -2.3421   -1.5860    2.4980 H       1  UNL1        0.0331
     57 H          -2.2697   -3.2196    0.6384 H       1  UNL1        0.0697
     58 H          -1.1092   -2.2545   -0.2589 H       1  UNL1        0.0697
     59 H          -4.3308   -2.5401    2.0957 H       1  UNL1        0.0654
     60 H          -6.7260   -2.0999    2.5618 H       1  UNL1        0.0619
     61 H          -8.0780   -0.7434    1.0366 H       1  UNL1        0.0624
     62 H          -7.9340    2.2980   -3.8768 H       1  UNL1        0.1723
     63 H          -5.6537    1.0463   -3.9190 H       1  UNL1        0.2937
     64 H          -4.6695   -0.1860   -1.4532 H       1  UNL1        0.0660
@<TRIPOS>BOND
     1     1     2    1
     2     2     3    1
     3     3     4    1
     4     4     5   ar
     5     5     6   ar
     6     6     7    1
     7     7     8    1
     8     8     9   ar
     9     9    10   ar
    10    10    11   ar
    11    11    12    1
    12    11    13   ar
    13    13    14    1
    14    13    15   ar
    15     6    16   ar
    16    16    17   ar
    17    17    18   ar
    18    18    19    1
    19    19    20    1
    20    20    21    1
    21    21    22    1
    22    22    23    1
    23    23    24    1
    24    24    25   ar
    25    25    26   ar
    26    26    27   ar
    27    27    28   ar
    28    28    29    1
    29    29    30   ar
    30    30    31   ar
    31    31    32    2
    32    31    33   ar
    33    33    34   ar
    34    34    35    1
    35    28    36   ar
    36    18     4   ar
    37    36    24   ar
    38    15     8   ar
    39    34    29   ar
    40     1    37    1
    41     1    38    1
    42     1    39    1
    43     2    40    1
    44     2    41    1
    45     3    42    1
    46     3    43    1
    47     5    44    1
    48     9    45    1
    49    10    46    1
    50    14    47    1
    51    14    48    1
    52    14    49    1
    53    15    50    1
    54    16    51    1
    55    17    52    1
    56    20    53    1
    57    20    54    1
    58    21    55    1
    59    21    56    1
    60    22    57    1
    61    22    58    1
    62    25    59    1
    63    26    60    1
    64    27    61    1
    65    33    62    1
    66    35    63    1
    67    36    64    1
