
     RDKit          3D

 42 44  0  0  0  0  0  0  0  0999 V2000
    2.5958    3.7072   -0.7905 O   0  0  0  0  0  0  0  0  0  0  0  0
    2.5766    2.2635   -0.2880 S   0  0  0  0  0  6  0  0  0  0  0  0
    2.3032    2.3234    1.2023 O   0  0  0  0  0  0  0  0  0  0  0  0
    4.1990    1.6352   -0.5896 C   0  0  0  0  0  0  0  0  0  0  0  0
    4.4253    0.2470   -0.1492 C   0  0  0  0  0  0  0  0  0  0  0  0
    4.2985   -0.8256   -1.0064 C   0  0  0  0  0  0  0  0  0  0  0  0
    4.5084   -2.1283   -0.6030 C   0  0  0  0  0  0  0  0  0  0  0  0
    4.8633   -2.3904    0.7193 C   0  0  0  0  0  0  0  0  0  0  0  0
    4.9992   -1.3481    1.6026 C   0  0  0  0  0  0  0  0  0  0  0  0
    4.7803   -0.0627    1.1577 C   0  0  0  0  0  0  0  0  0  0  0  0
    1.3429    1.4044   -1.0382 N   0  0  0  0  0  0  0  0  0  0  0  0
    1.1607    0.0550   -0.6788 C   0  0  0  0  0  0  0  0  0  0  0  0
   -0.2552   -0.3519   -0.4317 C   0  0  0  0  0  0  0  0  0  0  0  0
   -1.2262    0.5151   -0.2129 C   0  0  0  0  0  0  0  0  0  0  0  0
   -2.5682    0.0794    0.0196 C   0  0  0  0  0  0  0  0  0  0  0  0
   -3.6989   -0.2932    0.2280 C   0  0  0  0  0  0  0  0  0  0  0  0
   -5.0401   -0.7506    0.4555 C   0  0  0  0  0  0  0  0  0  0  0  0
   -6.0423   -0.6861   -0.5082 C   0  0  0  0  0  0  0  0  0  0  0  0
   -7.3207   -1.1351   -0.2554 C   0  0  0  0  0  0  0  0  0  0  0  0
   -7.5852   -1.6561    0.9915 C   0  0  0  0  0  0  0  0  0  0  0  0
   -6.5608   -1.7044    1.9275 C   0  0  0  0  0  0  0  0  0  0  0  0
   -5.3316   -1.2633    1.6581 N   0  0  0  0  0  0  0  0  0  0  0  0
   -0.8833    1.9598   -0.2184 C   0  0  0  0  0  0  0  0  0  0  0  0
    0.1623    2.1411   -1.2959 C   0  0  0  0  0  0  0  0  0  0  0  0
    4.4537    1.6568   -1.6750 H   0  0  0  0  0  0  0  0  0  0  0  0
    4.9675    2.3291   -0.1262 H   0  0  0  0  0  0  0  0  0  0  0  0
    4.0190   -0.6401   -2.0547 H   0  0  0  0  0  0  0  0  0  0  0  0
    4.4042   -2.9476   -1.2867 H   0  0  0  0  0  0  0  0  0  0  0  0
    5.0370   -3.4095    1.0726 H   0  0  0  0  0  0  0  0  0  0  0  0
    5.2787   -1.5576    2.6432 H   0  0  0  0  0  0  0  0  0  0  0  0
    4.8926    0.7381    1.8679 H   0  0  0  0  0  0  0  0  0  0  0  0
    1.5001   -0.5825   -1.5212 H   0  0  0  0  0  0  0  0  0  0  0  0
    1.7964   -0.2473    0.2062 H   0  0  0  0  0  0  0  0  0  0  0  0
   -0.4561   -1.4190   -0.4392 H   0  0  0  0  0  0  0  0  0  0  0  0
   -5.7947   -0.2722   -1.4697 H   0  0  0  0  0  0  0  0  0  0  0  0
   -8.1194   -1.0991   -0.9804 H   0  0  0  0  0  0  0  0  0  0  0  0
   -8.5846   -2.0306    1.2550 H   0  0  0  0  0  0  0  0  0  0  0  0
   -6.8271   -2.1302    2.9072 H   0  0  0  0  0  0  0  0  0  0  0  0
   -0.5643    2.3315    0.7573 H   0  0  0  0  0  0  0  0  0  0  0  0
   -1.7655    2.5819   -0.5230 H   0  0  0  0  0  0  0  0  0  0  0  0
   -0.3131    1.7609   -2.2452 H   0  0  0  0  0  0  0  0  0  0  0  0
    0.3725    3.2020   -1.4756 H   0  0  0  0  0  0  0  0  0  0  0  0
  1  2  2  0
  2  3  2  0
  2  4  1  0
  4  5  1  0
  5  6  2  0
  6  7  1  0
  7  8  2  0
  8  9  1  0
  9 10  2  0
  2 11  1  0
 11 12  1  0
 12 13  1  0
 13 14  2  0
 14 15  1  0
 15 16  3  0
 16 17  1  0
 17 18  2  0
 18 19  1  0
 19 20  2  0
 20 21  1  0
 21 22  2  0
 14 23  1  0
 23 24  1  0
 10  5  1  0
 24 11  1  0
 22 17  1  0
  4 25  1  0
  4 26  1  0
  6 27  1  0
  7 28  1  0
  8 29  1  0
  9 30  1  0
 10 31  1  0
 12 32  1  0
 12 33  1  0
 13 34  1  0
 18 35  1  0
 19 36  1  0
 20 37  1  0
 21 38  1  0
 23 39  1  0
 23 40  1  0
 24 41  1  0
 24 42  1  0
M  END
$$$$
