@<TRIPOS>MOLECULE
*****
 42 44 0 0 0
SMALL
GASTEIGER

@<TRIPOS>ATOM
      1 O           2.5958    3.7072   -0.7905 O.2     1  UNL1       -0.1577
      2 S           2.5766    2.2635   -0.2880 S.O2    1  UNL1        0.0362
      3 O           2.3032    2.3234    1.2023 O.2     1  UNL1       -0.1577
      4 C           4.1990    1.6352   -0.5896 C.3     1  UNL1        0.1069
      5 C           4.4253    0.2470   -0.1492 C.ar    1  UNL1       -0.0250
      6 C           4.2985   -0.8256   -1.0064 C.ar    1  UNL1       -0.0570
      7 C           4.5084   -2.1283   -0.6030 C.ar    1  UNL1       -0.0615
      8 C           4.8633   -2.3904    0.7193 C.ar    1  UNL1       -0.0617
      9 C           4.9992   -1.3481    1.6026 C.ar    1  UNL1       -0.0615
     10 C           4.7803   -0.0627    1.1577 C.ar    1  UNL1       -0.0570
     11 N           1.3429    1.4044   -1.0382 N.3     1  UNL1       -0.1767
     12 C           1.1607    0.0550   -0.6788 C.3     1  UNL1        0.0394
     13 C          -0.2552   -0.3519   -0.4317 C.2     1  UNL1       -0.0570
     14 C          -1.2262    0.5151   -0.2129 C.2     1  UNL1        0.0015
     15 C          -2.5682    0.0794    0.0196 C.1     1  UNL1       -0.0641
     16 C          -3.6989   -0.2932    0.2280 C.1     1  UNL1       -0.0415
     17 C          -5.0401   -0.7506    0.4555 C.ar    1  UNL1        0.1137
     18 C          -6.0423   -0.6861   -0.5082 C.ar    1  UNL1       -0.0278
     19 C          -7.3207   -1.1351   -0.2554 C.ar    1  UNL1       -0.0577
     20 C          -7.5852   -1.6561    0.9915 C.ar    1  UNL1       -0.0435
     21 C          -6.5608   -1.7044    1.9275 C.ar    1  UNL1        0.0290
     22 N          -5.3316   -1.2633    1.6581 N.ar    1  UNL1       -0.2467
     23 C          -0.8833    1.9598   -0.2184 C.3     1  UNL1       -0.0056
     24 C           0.1623    2.1411   -1.2959 C.3     1  UNL1        0.0250
     25 H           4.4537    1.6568   -1.6750 H       1  UNL1        0.0565
     26 H           4.9675    2.3291   -0.1262 H       1  UNL1        0.0565
     27 H           4.0190   -0.6401   -2.0547 H       1  UNL1        0.0621
     28 H           4.4042   -2.9476   -1.2867 H       1  UNL1        0.0618
     29 H           5.0370   -3.4095    1.0726 H       1  UNL1        0.0618
     30 H           5.2787   -1.5576    2.6432 H       1  UNL1        0.0618
     31 H           4.8926    0.7381    1.8679 H       1  UNL1        0.0621
     32 H           1.5001   -0.5825   -1.5212 H       1  UNL1        0.0487
     33 H           1.7964   -0.2473    0.2062 H       1  UNL1        0.0487
     34 H          -0.4561   -1.4190   -0.4392 H       1  UNL1        0.0594
     35 H          -5.7947   -0.2722   -1.4697 H       1  UNL1        0.0645
     36 H          -8.1194   -1.0991   -0.9804 H       1  UNL1        0.0619
     37 H          -8.5846   -2.0306    1.2550 H       1  UNL1        0.0633
     38 H          -6.8271   -2.1302    2.9072 H       1  UNL1        0.0830
     39 H          -0.5643    2.3315    0.7573 H       1  UNL1        0.0332
     40 H          -1.7655    2.5819   -0.5230 H       1  UNL1        0.0332
     41 H          -0.3131    1.7609   -2.2452 H       1  UNL1        0.0447
     42 H           0.3725    3.2020   -1.4756 H       1  UNL1        0.0447
@<TRIPOS>BOND
     1     1     2    2
     2     2     3    2
     3     2     4    1
     4     4     5    1
     5     5     6   ar
     6     6     7   ar
     7     7     8   ar
     8     8     9   ar
     9     9    10   ar
    10     2    11    1
    11    11    12    1
    12    12    13    1
    13    13    14    2
    14    14    15    1
    15    15    16    3
    16    16    17    1
    17    17    18   ar
    18    18    19   ar
    19    19    20   ar
    20    20    21   ar
    21    21    22   ar
    22    14    23    1
    23    23    24    1
    24    10     5   ar
    25    24    11    1
    26    22    17   ar
    27     4    25    1
    28     4    26    1
    29     6    27    1
    30     7    28    1
    31     8    29    1
    32     9    30    1
    33    10    31    1
    34    12    32    1
    35    12    33    1
    36    13    34    1
    37    18    35    1
    38    19    36    1
    39    20    37    1
    40    21    38    1
    41    23    39    1
    42    23    40    1
    43    24    41    1
    44    24    42    1
