@<TRIPOS>MOLECULE
*****
 49 51 0 0 0
SMALL
GASTEIGER

@<TRIPOS>ATOM
      1 C          -1.1323   -1.6708    2.1950 C.3     1  UNL1       -0.0183
      2 C          -0.0711   -0.9892    1.3734 C.ar    1  UNL1        0.0913
      3 N           1.2432   -1.1842    1.4680 N.ar    1  UNL1       -0.1662
      4 N           1.9086   -0.4482    0.6225 N.ar    1  UNL1       -0.1982
      5 C           1.0113    0.2606   -0.0584 C.ar    1  UNL1        0.2439
      6 O           1.1872    1.1996   -1.0787 O.3     1  UNL1       -0.4908
      7 C          -0.2658   -0.0408    0.3751 C.ar    1  UNL1        0.1698
      8 N          -1.5738    0.3984    0.0184 N.2     1  UNL1       -0.1420
      9 N          -2.4541   -0.3693   -0.4528 N.2     1  UNL1       -0.1482
     10 C          -3.7672    0.0214   -0.8218 C.ar    1  UNL1        0.1020
     11 C          -4.4929    0.8100    0.0779 C.ar    1  UNL1       -0.0064
     12 C          -5.7683    1.1981   -0.2640 C.ar    1  UNL1        0.1190
     13 C          -6.3679    0.8429   -1.4607 C.ar    1  UNL1       -0.0335
     14 C          -5.6518    0.0575   -2.3625 C.ar    1  UNL1       -0.0438
     15 C          -4.3751   -0.3254   -2.0095 C.ar    1  UNL1        0.0860
     16 C          -3.5699   -1.1452   -2.9012 C.2     1  UNL1        0.3389
     17 O          -3.9168   -1.6372   -4.1456 O.3     1  UNL1       -0.4771
     18 O          -2.4117   -1.4870   -2.5703 O.2     1  UNL1       -0.2451
     19 S          -6.6249    2.1852    0.9064 S.O2    1  UNL1        0.1097
     20 O          -7.4772    1.1871    1.9570 O.3     1  UNL1       -0.2498
     21 O          -7.5582    3.0792    0.1628 O.2     1  UNL1       -0.1421
     22 O          -5.6311    2.9577    1.7476 O.2     1  UNL1       -0.1421
     23 C           3.3159   -0.3683    0.4149 C.ar    1  UNL1        0.0722
     24 C           3.8024   -0.4493   -0.8717 C.ar    1  UNL1       -0.0340
     25 C           5.1535   -0.3839   -1.1977 C.ar    1  UNL1       -0.0324
     26 C           6.0703   -0.2296   -0.1897 C.ar    1  UNL1        0.1172
     27 C           5.6057   -0.1471    1.0968 C.ar    1  UNL1       -0.0295
     28 C           4.2663   -0.2135    1.4025 C.ar    1  UNL1       -0.0230
     29 C           3.7788   -0.1221    2.8067 C.3     1  UNL1       -0.0376
     30 S           7.7684   -0.1454   -0.5767 S.O2    1  UNL1        0.1096
     31 O           8.2375    1.4410   -0.8477 O.3     1  UNL1       -0.2498
     32 O           8.5439   -0.6212    0.6422 O.2     1  UNL1       -0.1421
     33 O           8.1655   -1.0310   -1.7101 O.2     1  UNL1       -0.1421
     34 H          -1.9892   -0.9563    2.2385 H       1  UNL1        0.0294
     35 H          -1.4448   -2.6072    1.7187 H       1  UNL1        0.0294
     36 H          -0.7103   -1.7894    3.2023 H       1  UNL1        0.0294
     37 H           1.9022    1.9061   -1.0892 H       1  UNL1        0.2938
     38 H          -4.0321    1.0963    1.0234 H       1  UNL1        0.0659
     39 H          -7.3740    1.1578   -1.7136 H       1  UNL1        0.0638
     40 H          -6.1014   -0.2296   -3.2999 H       1  UNL1        0.0627
     41 H          -3.7147   -2.6217   -4.3380 H       1  UNL1        0.2954
     42 H          -8.4511    1.1745    1.7817 H       1  UNL1        0.2449
     43 H           3.1523   -0.5710   -1.7238 H       1  UNL1        0.0639
     44 H           5.5161   -0.4495   -2.2142 H       1  UNL1        0.0638
     45 H           6.3404   -0.0265    1.8703 H       1  UNL1        0.0641
     46 H           3.2920    0.8329    3.0470 H       1  UNL1        0.0278
     47 H           4.6401   -0.3468    3.4975 H       1  UNL1        0.0278
     48 H           3.0546   -0.9417    2.9926 H       1  UNL1        0.0278
     49 H           8.9716    1.7424   -0.2622 H       1  UNL1        0.2449
@<TRIPOS>BOND
     1     1     2    1
     2     2     3   ar
     3     3     4   ar
     4     4     5   ar
     5     5     6    1
     6     5     7   ar
     7     7     8    1
     8     8     9    2
     9     9    10    1
    10    10    11   ar
    11    11    12   ar
    12    12    13   ar
    13    13    14   ar
    14    14    15   ar
    15    15    16    1
    16    16    17    1
    17    16    18    2
    18    12    19    1
    19    19    20    1
    20    19    21    2
    21    19    22    2
    22     4    23    1
    23    23    24   ar
    24    24    25   ar
    25    25    26   ar
    26    26    27   ar
    27    27    28   ar
    28    28    29    1
    29    26    30    1
    30    30    31    1
    31    30    32    2
    32    30    33    2
    33     7     2   ar
    34    15    10   ar
    35    28    23   ar
    36     1    34    1
    37     1    35    1
    38     1    36    1
    39     6    37    1
    40    11    38    1
    41    13    39    1
    42    14    40    1
    43    17    41    1
    44    20    42    1
    45    24    43    1
    46    25    44    1
    47    27    45    1
    48    29    46    1
    49    29    47    1
    50    29    48    1
    51    31    49    1
