
     RDKit          3D

 41 44  0  0  0  0  0  0  0  0999 V2000
    7.1654    1.4553    0.9456 O   0  0  0  0  0  0  0  0  0  0  0  0
    5.9354    1.8987    1.4121 C   0  0  0  0  0  0  0  0  0  0  0  0
    5.9713    2.8462    2.2454 O   0  0  0  0  0  0  0  0  0  0  0  0
    4.7012    1.2961    0.9565 C   0  0  0  0  0  0  0  0  0  0  0  0
    4.7475    0.2644    0.0439 C   0  0  0  0  0  0  0  0  0  0  0  0
    3.5706   -0.3031   -0.3843 C   0  0  0  0  0  0  0  0  0  0  0  0
    2.3468    0.1226    0.0663 C   0  0  0  0  0  0  0  0  0  0  0  0
    2.3638    1.1557    0.9761 C   0  0  0  0  0  0  0  0  0  0  0  0
    3.4974    1.7773    1.4547 C   0  0  0  0  0  0  0  0  0  0  0  0
    1.0671   -0.4242   -0.3372 C   0  0  0  0  0  0  0  0  0  0  0  0
   -0.0975    0.0518    0.1540 N   0  0  0  0  0  0  0  0  0  0  0  0
   -1.2918   -0.4474   -0.2128 C   0  0  0  0  0  0  0  0  0  0  0  0
   -2.5107    0.1161    0.3590 C   0  0  0  0  0  0  0  0  0  0  0  0
   -3.5046   -0.7581    0.8077 C   0  0  0  0  0  0  0  0  0  0  0  0
   -4.6811   -0.3117    1.3584 C   0  0  0  0  0  0  0  0  0  0  0  0
   -4.9147    1.0471    1.4844 C   0  0  0  0  0  0  0  0  0  0  0  0
   -3.9309    1.9228    1.0403 C   0  0  0  0  0  0  0  0  0  0  0  0
   -2.7360    1.4729    0.4811 C   0  0  0  0  0  0  0  0  0  0  0  0
   -4.1625    3.3275    1.1660 N   0  0  0  0  0  4  0  0  0  0  0  0
   -5.3291    3.8087    1.7125 O   0  0  0  0  0  1  0  0  0  0  0  0
   -3.2988    4.1359    0.7767 O   0  0  0  0  0  0  0  0  0  0  0  0
   -1.4199   -1.4776   -1.1131 C   0  0  0  0  0  0  0  0  0  0  0  0
   -2.5964   -2.0128   -1.5127 N   0  0  0  0  0  0  0  0  0  0  0  0
   -2.6242   -3.0251   -2.4035 C   0  0  0  0  0  0  0  0  0  0  0  0
   -1.5034   -3.5934   -2.9734 C   0  0  0  0  0  0  0  0  0  0  0  0
   -0.3004   -3.0509   -2.5690 C   0  0  0  0  0  0  0  0  0  0  0  0
   -0.2581   -2.0125   -1.6561 C   0  0  0  0  0  0  0  0  0  0  0  0
    0.9383   -1.4563   -1.2392 C   0  0  0  0  0  0  0  0  0  0  0  0
    8.0552    1.6328    1.3766 H   0  0  0  0  0  0  0  0  0  0  0  0
    5.7108   -0.1030   -0.3392 H   0  0  0  0  0  0  0  0  0  0  0  0
    3.5973   -1.1096   -1.0970 H   0  0  0  0  0  0  0  0  0  0  0  0
    1.4244    1.5252    1.3596 H   0  0  0  0  0  0  0  0  0  0  0  0
    3.4298    2.5745    2.1618 H   0  0  0  0  0  0  0  0  0  0  0  0
   -3.4075   -1.8369    0.7486 H   0  0  0  0  0  0  0  0  0  0  0  0
   -5.4410   -0.9752    1.7015 H   0  0  0  0  0  0  0  0  0  0  0  0
   -5.8162    1.4329    1.9069 H   0  0  0  0  0  0  0  0  0  0  0  0
   -1.9642    2.1543    0.1327 H   0  0  0  0  0  0  0  0  0  0  0  0
   -3.6134   -3.3811   -2.6565 H   0  0  0  0  0  0  0  0  0  0  0  0
   -1.5594   -4.4041   -3.6846 H   0  0  0  0  0  0  0  0  0  0  0  0
    0.6277   -3.4351   -2.9647 H   0  0  0  0  0  0  0  0  0  0  0  0
    1.8118   -1.9010   -1.6850 H   0  0  0  0  0  0  0  0  0  0  0  0
  1  2  1  0
  2  3  2  0
  2  4  1  0
  4  5  2  0
  5  6  1  0
  6  7  2  0
  7  8  1  0
  8  9  2  0
  7 10  1  0
 10 11  2  0
 11 12  1  0
 12 13  1  0
 13 14  2  0
 14 15  1  0
 15 16  2  0
 16 17  1  0
 17 18  2  0
 17 19  1  0
 19 20  1  0
 19 21  2  0
 12 22  2  0
 22 23  1  0
 23 24  2  0
 24 25  1  0
 25 26  2  0
 26 27  1  0
 27 28  2  0
  9  4  1  0
 28 10  1  0
 18 13  1  0
 27 22  1  0
  1 29  1  0
  5 30  1  0
  6 31  1  0
  8 32  1  0
  9 33  1  0
 14 34  1  0
 15 35  1  0
 16 36  1  0
 18 37  1  0
 24 38  1  0
 25 39  1  0
 26 40  1  0
 28 41  1  0
M  CHG  2  19   1  20  -1
M  END
$$$$
