
     RDKit          3D

 35 37  0  0  0  0  0  0  0  0999 V2000
    5.5485    0.1916    1.8816 N   0  0  0  0  0  0  0  0  0  0  0  0
    5.1896    0.9372    0.7042 C   0  0  0  0  0  0  0  0  0  0  0  0
    5.8103    1.7968   -0.0666 N   0  0  0  0  0  4  0  0  0  0  0  0
    3.8158    0.6754    0.2669 C   0  0  0  0  0  0  0  0  0  0  0  0
    3.4802    0.7595   -1.0681 C   0  0  0  0  0  0  0  0  0  0  0  0
    2.2091    0.5267   -1.5499 C   0  0  0  0  0  0  0  0  0  0  0  0
    1.2021    0.1875   -0.6479 C   0  0  0  0  0  0  0  0  0  0  0  0
   -0.1005   -0.0827   -0.8793 N   0  0  0  0  0  0  0  0  0  0  0  0
   -0.6122   -0.3471    0.3429 C   0  0  0  0  0  0  0  0  0  0  0  0
    0.3434   -0.2416    1.2824 N   0  0  0  0  0  0  0  0  0  0  0  0
    1.5065    0.0951    0.6966 C   0  0  0  0  0  0  0  0  0  0  0  0
    2.7908    0.3354    1.1416 C   0  0  0  0  0  0  0  0  0  0  0  0
   -2.0098   -0.6903    0.5370 C   0  0  0  0  0  0  0  0  0  0  0  0
   -2.8587   -0.7543   -0.5420 C   0  0  0  0  0  0  0  0  0  0  0  0
   -4.1921   -1.0774   -0.3929 C   0  0  0  0  0  0  0  0  0  0  0  0
   -5.0819   -1.1529   -1.4551 O   0  0  0  0  0  0  0  0  0  0  0  0
   -5.7813    0.0236   -1.8126 C   0  0  0  0  0  0  0  0  0  0  0  0
   -6.5097    0.4067   -0.7149 F   0  0  0  0  0  0  0  0  0  0  0  0
   -6.6942   -0.3461   -2.7959 F   0  0  0  0  0  0  0  0  0  0  0  0
   -4.8901    0.9674   -2.2595 F   0  0  0  0  0  0  0  0  0  0  0  0
   -4.7028   -1.3476    0.8786 C   0  0  0  0  0  0  0  0  0  0  0  0
   -3.8782   -1.2944    2.0020 C   0  0  0  0  0  0  0  0  0  0  0  0
   -2.5603   -0.9648    1.7694 C   0  0  0  0  0  0  0  0  0  0  0  0
   -1.7279   -0.9107    2.8992 O   0  0  0  0  0  1  0  0  0  0  0  0
    5.6213    0.6585    2.8168 H   0  0  0  0  0  0  0  0  0  0  0  0
    5.7375   -0.8459    1.7758 H   0  0  0  0  0  0  0  0  0  0  0  0
    5.4831    2.3121   -0.9253 H   0  0  0  0  0  0  0  0  0  0  0  0
    6.8097    2.0612    0.1549 H   0  0  0  0  0  0  0  0  0  0  0  0
    4.1981    1.0165   -1.8370 H   0  0  0  0  0  0  0  0  0  0  0  0
    1.9554    0.5967   -2.6124 H   0  0  0  0  0  0  0  0  0  0  0  0
   -0.5825   -0.0798   -1.8187 H   0  0  0  0  0  0  0  0  0  0  0  0
    3.0234    0.2596    2.2122 H   0  0  0  0  0  0  0  0  0  0  0  0
   -2.5481   -0.5606   -1.5590 H   0  0  0  0  0  0  0  0  0  0  0  0
   -5.7382   -1.6114    1.1018 H   0  0  0  0  0  0  0  0  0  0  0  0
   -4.2564   -1.5000    2.9894 H   0  0  0  0  0  0  0  0  0  0  0  0
  1  2  1  0
  2  3  2  0
  2  4  1  0
  4  5  2  0
  5  6  1  0
  6  7  2  0
  7  8  1  0
  8  9  1  0
  9 10  2  0
 10 11  1  0
 11 12  2  0
  9 13  1  0
 13 14  2  0
 14 15  1  0
 15 16  1  0
 16 17  1  0
 17 18  1  0
 17 19  1  0
 17 20  1  0
 15 21  2  0
 21 22  1  0
 22 23  2  0
 23 24  1  0
 12  4  1  0
 23 13  1  0
 11  7  1  0
  1 25  1  0
  1 26  1  0
  3 27  1  0
  3 28  1  0
  5 29  1  0
  6 30  1  0
  8 31  1  0
 12 32  1  0
 14 33  1  0
 21 34  1  0
 22 35  1  0
M  CHG  2   3   1  24  -1
M  END
$$$$
