@<TRIPOS>MOLECULE
*****
 35 37 0 0 0
SMALL
GASTEIGER

@<TRIPOS>ATOM
      1 N           5.5485    0.1916    1.8816 N.pl3   1  UNL1       -0.2497
      2 C           5.1896    0.9372    0.7042 C.2     1  UNL1        0.2662
      3 N           5.8103    1.7968   -0.0666 N.2     1  UNL1       -0.2884
      4 C           3.8158    0.6754    0.2669 C.ar    1  UNL1        0.0629
      5 C           3.4802    0.7595   -1.0681 C.ar    1  UNL1       -0.0450
      6 C           2.2091    0.5267   -1.5499 C.ar    1  UNL1       -0.0354
      7 C           1.2021    0.1875   -0.6479 C.ar    1  UNL1        0.0665
      8 N          -0.1005   -0.0827   -0.8793 N.ar    1  UNL1       -0.3379
      9 C          -0.6122   -0.3471    0.3429 C.ar    1  UNL1        0.1388
     10 N           0.3434   -0.2416    1.2824 N.ar    1  UNL1       -0.2277
     11 C           1.5065    0.0951    0.6966 C.ar    1  UNL1        0.0903
     12 C           2.7908    0.3354    1.1416 C.ar    1  UNL1       -0.0195
     13 C          -2.0098   -0.6903    0.5370 C.ar    1  UNL1        0.0130
     14 C          -2.8587   -0.7543   -0.5420 C.ar    1  UNL1       -0.0096
     15 C          -4.1921   -1.0774   -0.3929 C.ar    1  UNL1        0.1306
     16 O          -5.0819   -1.1529   -1.4551 O.3     1  UNL1       -0.4057
     17 C          -5.7813    0.0236   -1.8126 C.3     1  UNL1        0.5752
     18 F          -6.5097    0.4067   -0.7149 F       1  UNL1       -0.1328
     19 F          -6.6942   -0.3461   -2.7959 F       1  UNL1       -0.1328
     20 F          -4.8901    0.9674   -2.2595 F       1  UNL1       -0.1328
     21 C          -4.7028   -1.3476    0.8786 C.ar    1  UNL1       -0.0201
     22 C          -3.8782   -1.2944    2.0020 C.ar    1  UNL1       -0.0654
     23 C          -2.5603   -0.9648    1.7694 C.ar    1  UNL1       -0.0974
     24 O          -1.7279   -0.9107    2.8992 O.co2   1  UNL1       -0.8732
     25 H           5.6213    0.6585    2.8168 H       1  UNL1        0.2883
     26 H           5.7375   -0.8459    1.7758 H       1  UNL1        0.2883
     27 H           5.4831    2.3121   -0.9253 H       1  UNL1        0.3009
     28 H           6.8097    2.0612    0.1549 H       1  UNL1        0.3009
     29 H           4.1981    1.0165   -1.8370 H       1  UNL1        0.0627
     30 H           1.9554    0.5967   -2.6124 H       1  UNL1        0.0639
     31 H          -0.5825   -0.0798   -1.8187 H       1  UNL1        0.1674
     32 H           3.0234    0.2596    2.2122 H       1  UNL1        0.0648
     33 H          -2.5481   -0.5606   -1.5590 H       1  UNL1        0.0661
     34 H          -5.7382   -1.6114    1.1018 H       1  UNL1        0.0654
     35 H          -4.2564   -1.5000    2.9894 H       1  UNL1        0.0613
@<TRIPOS>UNITY_ATOM_ATTR
3 1
charge 1
24 1
charge -1
@<TRIPOS>BOND
     1     1     2    1
     2     2     3    2
     3     2     4    1
     4     4     5   ar
     5     5     6   ar
     6     6     7   ar
     7     7     8   ar
     8     8     9   ar
     9     9    10   ar
    10    10    11   ar
    11    11    12   ar
    12     9    13    1
    13    13    14   ar
    14    14    15   ar
    15    15    16    1
    16    16    17    1
    17    17    18    1
    18    17    19    1
    19    17    20    1
    20    15    21   ar
    21    21    22   ar
    22    22    23   ar
    23    23    24    1
    24    12     4   ar
    25    23    13   ar
    26    11     7   ar
    27     1    25    1
    28     1    26    1
    29     3    27    1
    30     3    28    1
    31     5    29    1
    32     6    30    1
    33     8    31    1
    34    12    32    1
    35    14    33    1
    36    21    34    1
    37    22    35    1
