
     RDKit          3D

 29 30  0  0  0  0  0  0  0  0999 V2000
   -3.3855   -1.3192   -0.2498 C   0  0  0  0  0  0  0  0  0  0  0  0
   -3.4100    0.0912    0.0866 N   0  0  0  0  0  0  0  0  0  0  0  0
   -2.9876    0.3254    1.4394 C   0  0  0  0  0  0  0  0  0  0  0  0
   -2.6241    0.8657   -0.8516 C   0  0  0  0  0  0  0  0  0  0  0  0
   -1.2053    0.4382   -0.8658 C   0  0  0  0  0  0  0  0  0  0  0  0
   -0.7283   -0.5576   -1.7197 C   0  0  0  0  0  0  0  0  0  0  0  0
    0.5994   -0.7065   -1.4826 C   0  0  0  0  0  0  0  0  0  0  0  0
    0.9199    0.2066   -0.4798 C   0  0  0  0  0  0  0  0  0  0  0  0
   -0.1791    0.8449   -0.1628 O   0  0  0  0  0  0  0  0  0  0  0  0
    2.2652    0.3555    0.0591 C   0  0  0  0  0  0  0  0  0  0  0  0
    3.3315   -0.4023   -0.3865 C   0  0  0  0  0  0  0  0  0  0  0  0
    4.6148   -0.2945    0.0934 C   0  0  0  0  0  0  0  0  0  0  0  0
    4.8026    0.6570    1.0960 C   0  0  0  0  0  0  0  0  0  0  0  0
    3.7807    1.4086    1.5483 N   0  0  0  0  0  0  0  0  0  0  0  0
    2.5325    1.2747    1.0525 C   0  0  0  0  0  0  0  0  0  0  0  0
   -2.4996   -1.7964    0.2268 H   0  0  0  0  0  0  0  0  0  0  0  0
   -4.3091   -1.7887    0.1643 H   0  0  0  0  0  0  0  0  0  0  0  0
   -3.3035   -1.4726   -1.3295 H   0  0  0  0  0  0  0  0  0  0  0  0
   -3.9192    0.4196    2.0466 H   0  0  0  0  0  0  0  0  0  0  0  0
   -2.4613   -0.5612    1.8677 H   0  0  0  0  0  0  0  0  0  0  0  0
   -2.3580    1.2330    1.4762 H   0  0  0  0  0  0  0  0  0  0  0  0
   -2.6863    1.9340   -0.5781 H   0  0  0  0  0  0  0  0  0  0  0  0
   -3.0351    0.7822   -1.8612 H   0  0  0  0  0  0  0  0  0  0  0  0
   -1.2157   -1.1735   -2.4748 H   0  0  0  0  0  0  0  0  0  0  0  0
    1.3135   -1.3922   -1.9586 H   0  0  0  0  0  0  0  0  0  0  0  0
    3.1805   -1.1431   -1.1685 H   0  0  0  0  0  0  0  0  0  0  0  0
    5.4144   -0.9131   -0.2909 H   0  0  0  0  0  0  0  0  0  0  0  0
    5.8010    0.7631    1.4915 H   0  0  0  0  0  0  0  0  0  0  0  0
    1.7517    1.9213    1.4702 H   0  0  0  0  0  0  0  0  0  0  0  0
  1  2  1  0
  2  3  1  0
  2  4  1  0
  4  5  1  0
  5  6  2  0
  6  7  1  0
  7  8  2  0
  8  9  1  0
  8 10  1  0
 10 11  2  0
 11 12  1  0
 12 13  2  0
 13 14  1  0
 14 15  2  0
  9  5  1  0
 15 10  1  0
  1 16  1  0
  1 17  1  0
  1 18  1  0
  3 19  1  0
  3 20  1  0
  3 21  1  0
  4 22  1  0
  4 23  1  0
  6 24  1  0
  7 25  1  0
 11 26  1  0
 12 27  1  0
 13 28  1  0
 15 29  1  0
M  END
$$$$
