@<TRIPOS>MOLECULE
*****
 29 30 0 0 0
SMALL
GASTEIGER

@<TRIPOS>ATOM
      1 C          -3.3855   -1.3192   -0.2498 C.3     1  UNL1       -0.0126
      2 N          -3.4100    0.0912    0.0866 N.3     1  UNL1       -0.3013
      3 C          -2.9876    0.3254    1.4394 C.3     1  UNL1       -0.0126
      4 C          -2.6241    0.8657   -0.8516 C.3     1  UNL1        0.0566
      5 C          -1.2053    0.4382   -0.8658 C.ar    1  UNL1        0.1196
      6 C          -0.7283   -0.5576   -1.7197 C.ar    1  UNL1       -0.0188
      7 C           0.5994   -0.7065   -1.4826 C.ar    1  UNL1       -0.0155
      8 C           0.9199    0.2066   -0.4798 C.ar    1  UNL1        0.1367
      9 O          -0.1791    0.8449   -0.1628 O.2     1  UNL1       -0.4584
     10 C           2.2652    0.3555    0.0591 C.ar    1  UNL1        0.0353
     11 C           3.3315   -0.4023   -0.3865 C.ar    1  UNL1       -0.0482
     12 C           4.6148   -0.2945    0.0934 C.ar    1  UNL1       -0.0429
     13 C           4.8026    0.6570    1.0960 C.ar    1  UNL1        0.0276
     14 N           3.7807    1.4086    1.5483 N.ar    1  UNL1       -0.2626
     15 C           2.5325    1.2747    1.0525 C.ar    1  UNL1        0.0382
     16 H          -2.4996   -1.7964    0.2268 H       1  UNL1        0.0391
     17 H          -4.3091   -1.7887    0.1643 H       1  UNL1        0.0391
     18 H          -3.3035   -1.4726   -1.3295 H       1  UNL1        0.0391
     19 H          -3.9192    0.4196    2.0466 H       1  UNL1        0.0391
     20 H          -2.4613   -0.5612    1.8677 H       1  UNL1        0.0391
     21 H          -2.3580    1.2330    1.4762 H       1  UNL1        0.0391
     22 H          -2.6863    1.9340   -0.5781 H       1  UNL1        0.0506
     23 H          -3.0351    0.7822   -1.8612 H       1  UNL1        0.0506
     24 H          -1.2157   -1.1735   -2.4748 H       1  UNL1        0.0652
     25 H           1.3135   -1.3922   -1.9586 H       1  UNL1        0.0655
     26 H           3.1805   -1.1431   -1.1685 H       1  UNL1        0.0626
     27 H           5.4144   -0.9131   -0.2909 H       1  UNL1        0.0633
     28 H           5.8010    0.7631    1.4915 H       1  UNL1        0.0829
     29 H           1.7517    1.9213    1.4702 H       1  UNL1        0.0837
@<TRIPOS>BOND
     1     1     2    1
     2     2     3    1
     3     2     4    1
     4     4     5    1
     5     5     6   ar
     6     6     7   ar
     7     7     8   ar
     8     8     9   ar
     9     8    10    1
    10    10    11   ar
    11    11    12   ar
    12    12    13   ar
    13    13    14   ar
    14    14    15   ar
    15     9     5   ar
    16    15    10   ar
    17     1    16    1
    18     1    17    1
    19     1    18    1
    20     3    19    1
    21     3    20    1
    22     3    21    1
    23     4    22    1
    24     4    23    1
    25     6    24    1
    26     7    25    1
    27    11    26    1
    28    12    27    1
    29    13    28    1
    30    15    29    1
