@<TRIPOS>MOLECULE
*****
 69 73 0 0 0
SMALL
GASTEIGER

@<TRIPOS>ATOM
      1 C           1.2489   -4.0805    0.4661 C.3     1  UNL1       -0.0634
      2 C           0.2463   -3.0314    0.0394 C.3     1  UNL1       -0.0317
      3 C           0.4808   -1.7251    0.7451 C.3     1  UNL1        0.0871
      4 C          -0.4658   -0.6683    0.3780 C.2     1  UNL1        0.2305
      5 O          -0.0193    0.3934   -0.1033 O.2     1  UNL1       -0.2741
      6 N          -1.8709   -0.7920    0.5430 N.am    1  UNL1       -0.3106
      7 C          -2.8074    0.2375    0.1866 C.3     1  UNL1        0.0289
      8 C          -3.7796   -0.1546   -0.8796 C.3     1  UNL1       -0.0211
      9 C          -4.7478   -1.2175   -0.4615 C.3     1  UNL1       -0.0456
     10 C          -5.5005   -0.7610    0.7570 C.3     1  UNL1       -0.0395
     11 C          -4.4814   -0.4326    1.8352 C.3     1  UNL1       -0.0456
     12 C          -3.5950    0.6857    1.3925 C.3     1  UNL1       -0.0211
     13 C          -4.3800    1.9380    1.0469 C.3     1  UNL1       -0.0345
     14 C          -5.3602    1.5799   -0.0455 C.3     1  UNL1        0.0476
     15 C          -6.1401    2.7642   -0.4132 C.2     1  UNL1        0.2167
     16 N          -7.1432    2.8027   -1.3925 N.am    1  UNL1       -0.3289
     17 O          -5.8952    3.8585    0.2024 O.2     1  UNL1       -0.2754
     18 C          -6.2779    0.5028    0.4982 C.3     1  UNL1       -0.0362
     19 C          -4.5814    1.0836   -1.2476 C.3     1  UNL1       -0.0345
     20 N           1.8623   -1.3847    0.5691 N.3     1  UNL1       -0.2885
     21 C           2.3385   -0.2569    1.2854 C.3     1  UNL1        0.0154
     22 C           3.1781    0.6659    0.4106 C.3     1  UNL1        0.0263
     23 N           4.2497   -0.1202   -0.1336 N.pl3   1  UNL1       -0.3127
     24 C           5.5472    0.4107   -0.2488 C.ar    1  UNL1        0.1213
     25 C           5.7871    1.7349    0.0070 C.ar    1  UNL1       -0.0212
     26 C           7.0658    2.2969   -0.0925 C.ar    1  UNL1       -0.0454
     27 C           8.1030    1.4986   -0.4560 C.ar    1  UNL1        0.0730
     28 C           9.4675    2.0498   -0.5732 C.3     1  UNL1        0.4188
     29 F          10.3929    1.1313   -0.1128 F       1  UNL1       -0.1658
     30 F           9.6320    3.1969    0.1796 F       1  UNL1       -0.1658
     31 F           9.7983    2.3649   -1.8714 F       1  UNL1       -0.1658
     32 C           7.8306    0.1689   -0.7074 C.ar    1  UNL1        0.0413
     33 N           6.6047   -0.3564   -0.6089 N.ar    1  UNL1       -0.2398
     34 C           3.9315   -1.4735   -0.5661 C.3     1  UNL1        0.0263
     35 C           2.4026   -1.5574   -0.7302 C.3     1  UNL1        0.0154
     36 H           2.1444   -3.6737    0.9421 H       1  UNL1        0.0230
     37 H           0.8123   -4.8087    1.1828 H       1  UNL1        0.0230
     38 H           1.5861   -4.7169   -0.4033 H       1  UNL1        0.0230
     39 H           0.2326   -3.0009   -1.0433 H       1  UNL1        0.0282
     40 H          -0.7655   -3.4352    0.3462 H       1  UNL1        0.0282
     41 H           0.3307   -1.9148    1.8331 H       1  UNL1        0.0558
     42 H          -2.1631   -1.7226    0.9553 H       1  UNL1        0.1490
     43 H          -2.1997    1.0771   -0.2327 H       1  UNL1        0.0504
     44 H          -3.2901   -0.4906   -1.8209 H       1  UNL1        0.0319
     45 H          -5.5123   -1.2936   -1.2894 H       1  UNL1        0.0271
     46 H          -4.3067   -2.2028   -0.2876 H       1  UNL1        0.0271
     47 H          -6.1975   -1.5389    1.1052 H       1  UNL1        0.0301
     48 H          -3.8644   -1.3399    1.9823 H       1  UNL1        0.0271
     49 H          -4.9945   -0.2158    2.7955 H       1  UNL1        0.0271
     50 H          -2.8629    0.8959    2.2026 H       1  UNL1        0.0319
     51 H          -3.6616    2.6631    0.6147 H       1  UNL1        0.0278
     52 H          -4.8637    2.3008    1.9572 H       1  UNL1        0.0278
     53 H          -6.8991    2.6933   -2.3883 H       1  UNL1        0.1449
     54 H          -8.1290    2.9402   -1.1231 H       1  UNL1        0.1449
     55 H          -6.6276    0.8685    1.5000 H       1  UNL1        0.0278
     56 H          -7.1770    0.3508   -0.1148 H       1  UNL1        0.0278
     57 H          -5.3305    0.8546   -2.0411 H       1  UNL1        0.0278
     58 H          -3.9416    1.9128   -1.5933 H       1  UNL1        0.0278
     59 H           1.4732    0.3423    1.6497 H       1  UNL1        0.0442
     60 H           2.9811   -0.5585    2.1491 H       1  UNL1        0.0442
     61 H           3.5038    1.4788    1.0967 H       1  UNL1        0.0477
     62 H           2.5973    1.0561   -0.4483 H       1  UNL1        0.0477
     63 H           5.0278    2.4578    0.2996 H       1  UNL1        0.0652
     64 H           7.2565    3.3365    0.1081 H       1  UNL1        0.0625
     65 H           8.6708   -0.4542   -0.9965 H       1  UNL1        0.0836
     66 H           4.2642   -2.1491    0.2515 H       1  UNL1        0.0477
     67 H           4.4484   -1.7705   -1.4779 H       1  UNL1        0.0477
     68 H           2.1329   -0.7646   -1.4531 H       1  UNL1        0.0442
     69 H           2.2024   -2.5303   -1.1630 H       1  UNL1        0.0442
@<TRIPOS>BOND
     1     1     2    1
     2     2     3    1
     3     3     4    1
     4     4     5    2
     5     4     6   am
     6     6     7    1
     7     7     8    1
     8     8     9    1
     9     9    10    1
    10    10    11    1
    11    11    12    1
    12    12    13    1
    13    13    14    1
    14    14    15    1
    15    15    16   am
    16    15    17    2
    17    14    18    1
    18    14    19    1
    19     3    20    1
    20    20    21    1
    21    21    22    1
    22    22    23    1
    23    23    24    1
    24    24    25   ar
    25    25    26   ar
    26    26    27   ar
    27    27    28    1
    28    28    29    1
    29    28    30    1
    30    28    31    1
    31    27    32   ar
    32    32    33   ar
    33    23    34    1
    34    34    35    1
    35    12     7    1
    36    35    20    1
    37    19     8    1
    38    33    24   ar
    39    18    10    1
    40     1    36    1
    41     1    37    1
    42     1    38    1
    43     2    39    1
    44     2    40    1
    45     3    41    1
    46     6    42    1
    47     7    43    1
    48     8    44    1
    49     9    45    1
    50     9    46    1
    51    10    47    1
    52    11    48    1
    53    11    49    1
    54    12    50    1
    55    13    51    1
    56    13    52    1
    57    16    53    1
    58    16    54    1
    59    18    55    1
    60    18    56    1
    61    19    57    1
    62    19    58    1
    63    21    59    1
    64    21    60    1
    65    22    61    1
    66    22    62    1
    67    25    63    1
    68    26    64    1
    69    32    65    1
    70    34    66    1
    71    34    67    1
    72    35    68    1
    73    35    69    1
