
     RDKit          3D

 90 92  0  0  0  0  0  0  0  0999 V2000
    6.7096    0.8444    1.9348 C   0  0  0  0  0  0  0  0  0  0  0  0
    6.1341   -0.0796    0.8519 C   0  0  0  0  0  0  0  0  0  0  0  0
    6.4897    0.3408   -0.4455 N   0  0  0  0  0  0  0  0  0  0  0  0
    5.9046    1.4878   -0.9915 C   0  0  0  0  0  0  0  0  0  0  0  0
    4.6571    1.3703   -1.7519 C   0  0  0  0  0  0  0  0  0  0  0  0
    3.5099    0.6774   -1.1679 C   0  0  0  0  0  0  0  0  0  0  0  0
    3.6819   -0.7917   -1.0537 C   0  0  0  0  0  0  0  0  0  0  0  0
    2.6899   -1.5829   -0.8179 N   0  0  0  0  0  0  0  0  0  0  0  0
    1.3946   -1.0418   -0.6635 C   0  0  0  0  0  0  0  0  0  0  0  0
    0.6286   -0.5944   -1.7184 C   0  0  0  0  0  0  0  0  0  0  0  0
   -0.6259   -0.0855   -1.5475 C   0  0  0  0  0  0  0  0  0  0  0  0
   -1.3801    0.3600   -2.6325 O   0  0  0  0  0  0  0  0  0  0  0  0
   -1.1471   -0.0188   -0.2493 C   0  0  0  0  0  0  0  0  0  0  0  0
   -2.4427    0.5280   -0.1040 N   0  0  0  0  0  0  0  0  0  0  0  0
   -3.1559    0.6502    1.1353 C   0  0  0  0  0  0  0  0  0  0  0  0
   -3.6983   -0.6207    1.6881 C   0  0  0  0  0  0  0  0  0  0  0  0
   -4.6801   -1.3122    0.7507 C   0  0  0  0  0  0  0  0  0  0  0  0
   -5.8573   -0.4359    0.4663 C   0  0  0  0  0  0  0  0  0  0  0  0
   -6.8361   -0.9688   -0.3868 N   0  0  0  0  0  0  0  0  0  0  0  0
   -6.5393   -1.1796   -1.7377 C   0  0  0  0  0  0  0  0  0  0  0  0
   -6.3344    0.1011   -2.5322 C   0  0  0  0  0  0  0  0  0  0  0  0
   -7.8769   -1.7259    0.1932 C   0  0  0  0  0  0  0  0  0  0  0  0
   -8.6619   -0.8612    1.1401 C   0  0  0  0  0  0  0  0  0  0  0  0
   -8.5085   -0.9544    2.5154 C   0  0  0  0  0  0  0  0  0  0  0  0
   -9.2551   -0.1356    3.3353 C   0  0  0  0  0  0  0  0  0  0  0  0
  -10.1587    0.7806    2.7910 C   0  0  0  0  0  0  0  0  0  0  0  0
  -10.2896    0.8505    1.4188 C   0  0  0  0  0  0  0  0  0  0  0  0
   -9.5584    0.0482    0.6065 C   0  0  0  0  0  0  0  0  0  0  0  0
   -9.6941    0.1218   -0.7912 O   0  0  0  0  0  0  0  0  0  0  0  0
  -10.5830    1.0178   -1.4077 C   0  0  0  0  0  0  0  0  0  0  0  0
   -0.4104   -0.4541    0.8216 C   0  0  0  0  0  0  0  0  0  0  0  0
    0.8574   -0.9630    0.6002 C   0  0  0  0  0  0  0  0  0  0  0  0
    1.5588   -1.3913    1.7252 O   0  0  0  0  0  0  0  0  0  0  0  0
    7.6826   -0.1110   -1.0384 C   0  0  0  0  0  0  0  0  0  0  0  0
    8.9631    0.3146   -0.4452 C   0  0  0  0  0  0  0  0  0  0  0  0
    9.6014    1.4120   -1.0461 C   0  0  0  0  0  0  0  0  0  0  0  0
   10.7864    1.8942   -0.5557 C   0  0  0  0  0  0  0  0  0  0  0  0
   11.3842    1.3043    0.5522 C   0  0  0  0  0  0  0  0  0  0  0  0
   10.7543    0.2297    1.1360 C   0  0  0  0  0  0  0  0  0  0  0  0
    9.5469   -0.2768    0.6515 C   0  0  0  0  0  0  0  0  0  0  0  0
    8.9408   -1.3698    1.2679 O   0  0  0  0  0  0  0  0  0  0  0  0
    9.5812   -1.9391    2.3870 C   0  0  0  0  0  0  0  0  0  0  0  0
    7.4631    1.5362    1.5273 H   0  0  0  0  0  0  0  0  0  0  0  0
    5.9279    1.4322    2.4516 H   0  0  0  0  0  0  0  0  0  0  0  0
    7.2098    0.2317    2.7123 H   0  0  0  0  0  0  0  0  0  0  0  0
    5.0148    0.0613    0.9965 H   0  0  0  0  0  0  0  0  0  0  0  0
    6.3038   -1.1340    1.0354 H   0  0  0  0  0  0  0  0  0  0  0  0
    6.6357    2.0393   -1.6830 H   0  0  0  0  0  0  0  0  0  0  0  0
    5.7401    2.3024   -0.2020 H   0  0  0  0  0  0  0  0  0  0  0  0
    4.8980    0.8485   -2.7684 H   0  0  0  0  0  0  0  0  0  0  0  0
    4.3458    2.3988   -2.1628 H   0  0  0  0  0  0  0  0  0  0  0  0
    2.6080    0.8841   -1.8140 H   0  0  0  0  0  0  0  0  0  0  0  0
    3.1961    1.1098   -0.1620 H   0  0  0  0  0  0  0  0  0  0  0  0
    4.6359   -1.2793   -1.1783 H   0  0  0  0  0  0  0  0  0  0  0  0
    1.0129   -0.6388   -2.7338 H   0  0  0  0  0  0  0  0  0  0  0  0
   -1.2514    1.3300   -2.9061 H   0  0  0  0  0  0  0  0  0  0  0  0
   -2.9413    0.8782   -0.9556 H   0  0  0  0  0  0  0  0  0  0  0  0
   -3.9876    1.3843    1.0733 H   0  0  0  0  0  0  0  0  0  0  0  0
   -2.4718    1.0794    1.9314 H   0  0  0  0  0  0  0  0  0  0  0  0
   -2.8809   -1.2908    1.9866 H   0  0  0  0  0  0  0  0  0  0  0  0
   -4.2725   -0.4385    2.6464 H   0  0  0  0  0  0  0  0  0  0  0  0
   -5.0374   -2.2153    1.2885 H   0  0  0  0  0  0  0  0  0  0  0  0
   -4.1747   -1.6786   -0.1638 H   0  0  0  0  0  0  0  0  0  0  0  0
   -6.3297   -0.0950    1.4082 H   0  0  0  0  0  0  0  0  0  0  0  0
   -5.4582    0.5010   -0.0220 H   0  0  0  0  0  0  0  0  0  0  0  0
   -5.6865   -1.8511   -1.9587 H   0  0  0  0  0  0  0  0  0  0  0  0
   -7.4315   -1.6744   -2.2142 H   0  0  0  0  0  0  0  0  0  0  0  0
   -6.9584    0.1469   -3.4470 H   0  0  0  0  0  0  0  0  0  0  0  0
   -6.4972    1.0069   -1.9350 H   0  0  0  0  0  0  0  0  0  0  0  0
   -5.2648    0.1613   -2.8948 H   0  0  0  0  0  0  0  0  0  0  0  0
   -7.4326   -2.5959    0.7455 H   0  0  0  0  0  0  0  0  0  0  0  0
   -8.5690   -2.0634   -0.6200 H   0  0  0  0  0  0  0  0  0  0  0  0
   -7.7988   -1.6738    2.9243 H   0  0  0  0  0  0  0  0  0  0  0  0
   -9.1663   -0.1742    4.4111 H   0  0  0  0  0  0  0  0  0  0  0  0
  -10.7455    1.4246    3.4294 H   0  0  0  0  0  0  0  0  0  0  0  0
  -10.9992    1.5689    0.9867 H   0  0  0  0  0  0  0  0  0  0  0  0
  -11.6336    0.7137   -1.2103 H   0  0  0  0  0  0  0  0  0  0  0  0
  -10.3378    1.0793   -2.4866 H   0  0  0  0  0  0  0  0  0  0  0  0
  -10.4505    2.0206   -0.9276 H   0  0  0  0  0  0  0  0  0  0  0  0
   -0.7938   -0.3930    1.8548 H   0  0  0  0  0  0  0  0  0  0  0  0
    1.3460   -1.0445    2.6452 H   0  0  0  0  0  0  0  0  0  0  0  0
    7.6587    0.1663   -2.1188 H   0  0  0  0  0  0  0  0  0  0  0  0
    7.6352   -1.2428   -1.0593 H   0  0  0  0  0  0  0  0  0  0  0  0
    9.1120    1.8660   -1.9242 H   0  0  0  0  0  0  0  0  0  0  0  0
   11.2783    2.7430   -1.0225 H   0  0  0  0  0  0  0  0  0  0  0  0
   12.3113    1.6680    0.9493 H   0  0  0  0  0  0  0  0  0  0  0  0
   11.1805   -0.2561    1.9927 H   0  0  0  0  0  0  0  0  0  0  0  0
    8.9711   -2.7599    2.8090 H   0  0  0  0  0  0  0  0  0  0  0  0
    9.7596   -1.1462    3.1479 H   0  0  0  0  0  0  0  0  0  0  0  0
   10.5630   -2.3766    2.1050 H   0  0  0  0  0  0  0  0  0  0  0  0
  1  2  1  0
  2  3  1  0
  3  4  1  0
  4  5  1  0
  5  6  1  0
  6  7  1  0
  7  8  2  3
  8  9  1  0
  9 10  2  0
 10 11  1  0
 11 12  1  0
 11 13  2  0
 13 14  1  0
 14 15  1  0
 15 16  1  0
 16 17  1  0
 17 18  1  0
 18 19  1  0
 19 20  1  0
 20 21  1  0
 19 22  1  0
 22 23  1  0
 23 24  2  0
 24 25  1  0
 25 26  2  0
 26 27  1  0
 27 28  2  0
 28 29  1  0
 29 30  1  0
 13 31  1  0
 31 32  2  0
 32 33  1  0
  3 34  1  0
 34 35  1  0
 35 36  2  0
 36 37  1  0
 37 38  2  0
 38 39  1  0
 39 40  2  0
 40 41  1  0
 41 42  1  0
 32  9  1  0
 40 35  1  0
 28 23  1  0
  1 43  1  0
  1 44  1  0
  1 45  1  0
  2 46  1  0
  2 47  1  0
  4 48  1  0
  4 49  1  0
  5 50  1  0
  5 51  1  0
  6 52  1  0
  6 53  1  0
  7 54  1  0
 10 55  1  0
 12 56  1  0
 14 57  1  0
 15 58  1  0
 15 59  1  0
 16 60  1  0
 16 61  1  0
 17 62  1  0
 17 63  1  0
 18 64  1  0
 18 65  1  0
 20 66  1  0
 20 67  1  0
 21 68  1  0
 21 69  1  0
 21 70  1  0
 22 71  1  0
 22 72  1  0
 24 73  1  0
 25 74  1  0
 26 75  1  0
 27 76  1  0
 30 77  1  0
 30 78  1  0
 30 79  1  0
 31 80  1  0
 33 81  1  0
 34 82  1  0
 34 83  1  0
 36 84  1  0
 37 85  1  0
 38 86  1  0
 39 87  1  0
 42 88  1  0
 42 89  1  0
 42 90  1  0
M  END
$$$$
