@<TRIPOS>MOLECULE
*****
 90 92 0 0 0
SMALL
GASTEIGER

@<TRIPOS>ATOM
      1 C           6.7096    0.8444    1.9348 C.3     1  UNL1       -0.0523
      2 C           6.1341   -0.0796    0.8519 C.3     1  UNL1       -0.0036
      3 N           6.4897    0.3408   -0.4455 N.3     1  UNL1       -0.2983
      4 C           5.9046    1.4878   -0.9915 C.3     1  UNL1       -0.0005
      5 C           4.6571    1.3703   -1.7519 C.3     1  UNL1       -0.0353
      6 C           3.5099    0.6774   -1.1679 C.3     1  UNL1       -0.0162
      7 C           3.6819   -0.7917   -1.0537 C.2     1  UNL1        0.0059
      8 N           2.6899   -1.5829   -0.8179 N.2     1  UNL1       -0.2561
      9 C           1.3946   -1.0418   -0.6635 C.ar    1  UNL1        0.1083
     10 C           0.6286   -0.5944   -1.7184 C.ar    1  UNL1        0.0106
     11 C          -0.6259   -0.0855   -1.5475 C.ar    1  UNL1        0.1398
     12 O          -1.3801    0.3600   -2.6325 O.3     1  UNL1       -0.5048
     13 C          -1.1471   -0.0188   -0.2493 C.ar    1  UNL1        0.0728
     14 N          -2.4427    0.5280   -0.1040 N.pl3   1  UNL1       -0.3409
     15 C          -3.1559    0.6502    1.1353 C.3     1  UNL1        0.0093
     16 C          -3.6983   -0.6207    1.6881 C.3     1  UNL1       -0.0363
     17 C          -4.6801   -1.3122    0.7507 C.3     1  UNL1       -0.0388
     18 C          -5.8573   -0.4359    0.4663 C.3     1  UNL1       -0.0007
     19 N          -6.8361   -0.9688   -0.3868 N.3     1  UNL1       -0.2983
     20 C          -6.5393   -1.1796   -1.7377 C.3     1  UNL1       -0.0036
     21 C          -6.3344    0.1011   -2.5322 C.3     1  UNL1       -0.0523
     22 C          -7.8769   -1.7259    0.1932 C.3     1  UNL1        0.0275
     23 C          -8.6619   -0.8612    1.1401 C.ar    1  UNL1        0.0082
     24 C          -8.5085   -0.9544    2.5154 C.ar    1  UNL1       -0.0539
     25 C          -9.2551   -0.1356    3.3353 C.ar    1  UNL1       -0.0612
     26 C         -10.1587    0.7806    2.7910 C.ar    1  UNL1       -0.0583
     27 C         -10.2896    0.8505    1.4188 C.ar    1  UNL1       -0.0196
     28 C          -9.5584    0.0482    0.6065 C.ar    1  UNL1        0.1245
     29 O          -9.6941    0.1218   -0.7912 O.3     1  UNL1       -0.4948
     30 C         -10.5830    1.0178   -1.4077 C.3     1  UNL1        0.0788
     31 C          -0.4104   -0.4541    0.8216 C.ar    1  UNL1        0.0064
     32 C           0.8574   -0.9630    0.6002 C.ar    1  UNL1        0.1440
     33 O           1.5588   -1.3913    1.7252 O.3     1  UNL1       -0.5046
     34 C           7.6826   -0.1110   -1.0384 C.3     1  UNL1        0.0275
     35 C           8.9631    0.3146   -0.4452 C.ar    1  UNL1        0.0082
     36 C           9.6014    1.4120   -1.0461 C.ar    1  UNL1       -0.0539
     37 C          10.7864    1.8942   -0.5557 C.ar    1  UNL1       -0.0612
     38 C          11.3842    1.3043    0.5522 C.ar    1  UNL1       -0.0583
     39 C          10.7543    0.2297    1.1360 C.ar    1  UNL1       -0.0196
     40 C           9.5469   -0.2768    0.6515 C.ar    1  UNL1        0.1245
     41 O           8.9408   -1.3698    1.2679 O.3     1  UNL1       -0.4948
     42 C           9.5812   -1.9391    2.3870 C.3     1  UNL1        0.0788
     43 H           7.4631    1.5362    1.5273 H       1  UNL1        0.0242
     44 H           5.9279    1.4322    2.4516 H       1  UNL1        0.0242
     45 H           7.2098    0.2317    2.7123 H       1  UNL1        0.0242
     46 H           5.0148    0.0613    0.9965 H       1  UNL1        0.0424
     47 H           6.3038   -1.1340    1.0354 H       1  UNL1        0.0424
     48 H           6.6357    2.0393   -1.6830 H       1  UNL1        0.0427
     49 H           5.7401    2.3024   -0.2020 H       1  UNL1        0.0427
     50 H           4.8980    0.8485   -2.7684 H       1  UNL1        0.0281
     51 H           4.3458    2.3988   -2.1628 H       1  UNL1        0.0281
     52 H           2.6080    0.8841   -1.8140 H       1  UNL1        0.0323
     53 H           3.1961    1.1098   -0.1620 H       1  UNL1        0.0323
     54 H           4.6359   -1.2793   -1.1783 H       1  UNL1        0.0782
     55 H           1.0129   -0.6388   -2.7338 H       1  UNL1        0.0677
     56 H          -1.2514    1.3300   -2.9061 H       1  UNL1        0.2922
     57 H          -2.9413    0.8782   -0.9556 H       1  UNL1        0.1462
     58 H          -3.9876    1.3843    1.0733 H       1  UNL1        0.0461
     59 H          -2.4718    1.0794    1.9314 H       1  UNL1        0.0461
     60 H          -2.8809   -1.2908    1.9866 H       1  UNL1        0.0281
     61 H          -4.2725   -0.4385    2.6464 H       1  UNL1        0.0281
     62 H          -5.0374   -2.2153    1.2885 H       1  UNL1        0.0278
     63 H          -4.1747   -1.6786   -0.1638 H       1  UNL1        0.0278
     64 H          -6.3297   -0.0950    1.4082 H       1  UNL1        0.0427
     65 H          -5.4582    0.5010   -0.0220 H       1  UNL1        0.0427
     66 H          -5.6865   -1.8511   -1.9587 H       1  UNL1        0.0424
     67 H          -7.4315   -1.6744   -2.2142 H       1  UNL1        0.0424
     68 H          -6.9584    0.1469   -3.4470 H       1  UNL1        0.0242
     69 H          -6.4972    1.0069   -1.9350 H       1  UNL1        0.0242
     70 H          -5.2648    0.1613   -2.8948 H       1  UNL1        0.0242
     71 H          -7.4326   -2.5959    0.7455 H       1  UNL1        0.0477
     72 H          -8.5690   -2.0634   -0.6200 H       1  UNL1        0.0477
     73 H          -7.7988   -1.6738    2.9243 H       1  UNL1        0.0622
     74 H          -9.1663   -0.1742    4.4111 H       1  UNL1        0.0618
     75 H         -10.7455    1.4246    3.4294 H       1  UNL1        0.0619
     76 H         -10.9992    1.5689    0.9867 H       1  UNL1        0.0654
     77 H         -11.6336    0.7137   -1.2103 H       1  UNL1        0.0660
     78 H         -10.3378    1.0793   -2.4866 H       1  UNL1        0.0660
     79 H         -10.4505    2.0206   -0.9276 H       1  UNL1        0.0660
     80 H          -0.7938   -0.3930    1.8548 H       1  UNL1        0.0674
     81 H           1.3460   -1.0445    2.6452 H       1  UNL1        0.2922
     82 H           7.6587    0.1663   -2.1188 H       1  UNL1        0.0477
     83 H           7.6352   -1.2428   -1.0593 H       1  UNL1        0.0477
     84 H           9.1120    1.8660   -1.9242 H       1  UNL1        0.0622
     85 H          11.2783    2.7430   -1.0225 H       1  UNL1        0.0618
     86 H          12.3113    1.6680    0.9493 H       1  UNL1        0.0619
     87 H          11.1805   -0.2561    1.9927 H       1  UNL1        0.0654
     88 H           8.9711   -2.7599    2.8090 H       1  UNL1        0.0660
     89 H           9.7596   -1.1462    3.1479 H       1  UNL1        0.0660
     90 H          10.5630   -2.3766    2.1050 H       1  UNL1        0.0660
@<TRIPOS>BOND
     1     1     2    1
     2     2     3    1
     3     3     4    1
     4     4     5    1
     5     5     6    1
     6     6     7    1
     7     7     8    2
     8     8     9    1
     9     9    10   ar
    10    10    11   ar
    11    11    12    1
    12    11    13   ar
    13    13    14    1
    14    14    15    1
    15    15    16    1
    16    16    17    1
    17    17    18    1
    18    18    19    1
    19    19    20    1
    20    20    21    1
    21    19    22    1
    22    22    23    1
    23    23    24   ar
    24    24    25   ar
    25    25    26   ar
    26    26    27   ar
    27    27    28   ar
    28    28    29    1
    29    29    30    1
    30    13    31   ar
    31    31    32   ar
    32    32    33    1
    33     3    34    1
    34    34    35    1
    35    35    36   ar
    36    36    37   ar
    37    37    38   ar
    38    38    39   ar
    39    39    40   ar
    40    40    41    1
    41    41    42    1
    42    32     9   ar
    43    40    35   ar
    44    28    23   ar
    45     1    43    1
    46     1    44    1
    47     1    45    1
    48     2    46    1
    49     2    47    1
    50     4    48    1
    51     4    49    1
    52     5    50    1
    53     5    51    1
    54     6    52    1
    55     6    53    1
    56     7    54    1
    57    10    55    1
    58    12    56    1
    59    14    57    1
    60    15    58    1
    61    15    59    1
    62    16    60    1
    63    16    61    1
    64    17    62    1
    65    17    63    1
    66    18    64    1
    67    18    65    1
    68    20    66    1
    69    20    67    1
    70    21    68    1
    71    21    69    1
    72    21    70    1
    73    22    71    1
    74    22    72    1
    75    24    73    1
    76    25    74    1
    77    26    75    1
    78    27    76    1
    79    30    77    1
    80    30    78    1
    81    30    79    1
    82    31    80    1
    83    33    81    1
    84    34    82    1
    85    34    83    1
    86    36    84    1
    87    37    85    1
    88    38    86    1
    89    39    87    1
    90    42    88    1
    91    42    89    1
    92    42    90    1
