@<TRIPOS>MOLECULE
*****
 18 17 0 0 0
SMALL
GASTEIGER

@<TRIPOS>ATOM
      1 O          -0.6509    1.0754    1.1543 O.3     1  UNL1       -0.3884
      2 C          -0.6566   -0.0659    0.3701 C.3     1  UNL1        0.0905
      3 C          -1.9376   -0.2015   -0.4266 C.3     1  UNL1        0.0192
      4 S          -3.2914   -0.2804    0.8003 S.3     1  UNL1       -0.1756
      5 C           0.5723   -0.0207   -0.5141 C.3     1  UNL1        0.0905
      6 O           0.5851    1.0957   -1.3383 O.3     1  UNL1       -0.3884
      7 C           1.7715   -0.0384    0.4203 C.3     1  UNL1        0.0192
      8 S           3.3179    0.0120   -0.5044 S.3     1  UNL1       -0.1756
      9 H          -0.6163    1.8678    0.5337 H       1  UNL1        0.2099
     10 H          -0.5056   -0.9267    1.0527 H       1  UNL1        0.0627
     11 H          -1.9053   -1.1222   -1.0400 H       1  UNL1        0.0400
     12 H          -2.0773    0.6892   -1.0590 H       1  UNL1        0.0400
     13 H          -3.5466   -1.6021    1.2034 H       1  UNL1        0.1017
     14 H           0.6422   -0.9448   -1.1216 H       1  UNL1        0.0627
     15 H           1.0157    1.8564   -0.8665 H       1  UNL1        0.2099
     16 H           1.7038   -0.9408    1.0479 H       1  UNL1        0.0400
     17 H           1.6764    0.8329    1.0947 H       1  UNL1        0.0400
     18 H           3.9028   -1.2858   -0.4469 H       1  UNL1        0.1017
@<TRIPOS>BOND
     1     1     2    1
     2     2     3    1
     3     3     4    1
     4     2     5    1
     5     5     6    1
     6     5     7    1
     7     7     8    1
     8     1     9    1
     9     2    10    1
    10     3    11    1
    11     3    12    1
    12     4    13    1
    13     5    14    1
    14     6    15    1
    15     7    16    1
    16     7    17    1
    17     8    18    1
