
     RDKit          3D

 31 32  0  0  0  0  0  0  0  0999 V2000
    3.2222    0.5404   -0.7799 C   0  0  2  0  0  0  0  0  0  0  0  0
    3.8786   -0.7452   -1.2580 C   0  0  0  0  0  0  0  0  0  0  0  0
    3.8884    1.0361    0.4392 C   0  0  0  0  0  0  0  0  0  0  0  0
    3.9415    0.3698    1.6557 O   0  0  0  0  0  0  0  0  0  0  0  0
    4.4999    2.1521    0.5095 O   0  0  0  0  0  0  0  0  0  0  0  0
    1.7561    0.3237   -0.5336 C   0  0  0  0  0  0  0  0  0  0  0  0
    0.8836    1.0883   -1.2874 C   0  0  0  0  0  0  0  0  0  0  0  0
   -0.4702    0.8695   -1.0410 C   0  0  0  0  0  0  0  0  0  0  0  0
   -0.9301   -0.0476   -0.1081 C   0  0  0  0  0  0  0  0  0  0  0  0
    0.0037   -0.7722    0.6044 C   0  0  0  0  0  0  0  0  0  0  0  0
    1.3580   -0.5946    0.3994 C   0  0  0  0  0  0  0  0  0  0  0  0
   -2.3802   -0.1676    0.0407 C   0  0  0  0  0  0  0  0  0  0  0  0
   -3.1728    0.0442   -1.0647 C   0  0  0  0  0  0  0  0  0  0  0  0
   -4.5560   -0.0671   -0.9356 C   0  0  0  0  0  0  0  0  0  0  0  0
   -5.1883   -0.3827    0.2566 C   0  0  0  0  0  0  0  0  0  0  0  0
   -4.3576   -0.5903    1.3540 C   0  0  0  0  0  0  0  0  0  0  0  0
   -2.9783   -0.4800    1.2280 C   0  0  0  0  0  0  0  0  0  0  0  0
    3.3666    1.3138   -1.5592 H   0  0  0  0  0  0  0  0  0  0  0  0
    3.1053   -1.5144   -1.4289 H   0  0  0  0  0  0  0  0  0  0  0  0
    4.4027   -0.5933   -2.2325 H   0  0  0  0  0  0  0  0  0  0  0  0
    4.5750   -1.1131   -0.5017 H   0  0  0  0  0  0  0  0  0  0  0  0
    4.8337    0.2651    2.1611 H   0  0  0  0  0  0  0  0  0  0  0  0
    1.2133    1.8173   -2.0285 H   0  0  0  0  0  0  0  0  0  0  0  0
   -1.1501    1.4653   -1.6284 H   0  0  0  0  0  0  0  0  0  0  0  0
   -0.3682   -1.4835    1.3283 H   0  0  0  0  0  0  0  0  0  0  0  0
    2.0823   -1.1789    0.9744 H   0  0  0  0  0  0  0  0  0  0  0  0
   -2.7703    0.2957   -2.0402 H   0  0  0  0  0  0  0  0  0  0  0  0
   -5.2158    0.0945   -1.7932 H   0  0  0  0  0  0  0  0  0  0  0  0
   -6.2649   -0.4627    0.3283 H   0  0  0  0  0  0  0  0  0  0  0  0
   -4.8338   -0.8360    2.2867 H   0  0  0  0  0  0  0  0  0  0  0  0
   -2.3739   -0.6464    2.0919 H   0  0  0  0  0  0  0  0  0  0  0  0
  1  2  1  0
  1  3  1  0
  3  4  1  0
  3  5  2  0
  1  6  1  0
  6  7  2  0
  7  8  1  0
  8  9  2  0
  9 10  1  0
 10 11  2  0
  9 12  1  0
 12 13  2  0
 13 14  1  0
 14 15  2  0
 15 16  1  0
 16 17  2  0
 11  6  1  0
 17 12  1  0
  1 18  1  6
  2 19  1  0
  2 20  1  0
  2 21  1  0
  4 22  1  0
  7 23  1  0
  8 24  1  0
 10 25  1  0
 11 26  1  0
 13 27  1  0
 14 28  1  0
 15 29  1  0
 16 30  1  0
 17 31  1  0
M  END
$$$$
