@<TRIPOS>MOLECULE
*****
 31 32 0 0 0
SMALL
GASTEIGER

@<TRIPOS>ATOM
      1 C           3.2222    0.5404   -0.7799 C.3     1  UNL1        0.0784
      2 C           3.8786   -0.7452   -1.2580 C.3     1  UNL1       -0.0482
      3 C           3.8884    1.0361    0.4392 C.2     1  UNL1        0.3119
      4 O           3.9415    0.3698    1.6557 O.3     1  UNL1       -0.4802
      5 O           4.4999    2.1521    0.5095 O.2     1  UNL1       -0.2503
      6 C           1.7561    0.3237   -0.5336 C.ar    1  UNL1       -0.0339
      7 C           0.8836    1.0883   -1.2874 C.ar    1  UNL1       -0.0572
      8 C          -0.4702    0.8695   -1.0410 C.ar    1  UNL1       -0.0538
      9 C          -0.9301   -0.0476   -0.1081 C.ar    1  UNL1       -0.0179
     10 C           0.0037   -0.7722    0.6044 C.ar    1  UNL1       -0.0538
     11 C           1.3580   -0.5946    0.3994 C.ar    1  UNL1       -0.0572
     12 C          -2.3802   -0.1676    0.0407 C.ar    1  UNL1       -0.0179
     13 C          -3.1728    0.0442   -1.0647 C.ar    1  UNL1       -0.0540
     14 C          -4.5560   -0.0671   -0.9356 C.ar    1  UNL1       -0.0612
     15 C          -5.1883   -0.3827    0.2566 C.ar    1  UNL1       -0.0617
     16 C          -4.3576   -0.5903    1.3540 C.ar    1  UNL1       -0.0612
     17 C          -2.9783   -0.4800    1.2280 C.ar    1  UNL1       -0.0540
     18 H           3.3666    1.3138   -1.5592 H       1  UNL1        0.0459
     19 H           3.1053   -1.5144   -1.4289 H       1  UNL1        0.0241
     20 H           4.4027   -0.5933   -2.2325 H       1  UNL1        0.0241
     21 H           4.5750   -1.1131   -0.5017 H       1  UNL1        0.0241
     22 H           4.8337    0.2651    2.1611 H       1  UNL1        0.2951
     23 H           1.2133    1.8173   -2.0285 H       1  UNL1        0.0621
     24 H          -1.1501    1.4653   -1.6284 H       1  UNL1        0.0624
     25 H          -0.3682   -1.4835    1.3283 H       1  UNL1        0.0624
     26 H           2.0823   -1.1789    0.9744 H       1  UNL1        0.0621
     27 H          -2.7703    0.2957   -2.0402 H       1  UNL1        0.0624
     28 H          -5.2158    0.0945   -1.7932 H       1  UNL1        0.0618
     29 H          -6.2649   -0.4627    0.3283 H       1  UNL1        0.0618
     30 H          -4.8338   -0.8360    2.2867 H       1  UNL1        0.0618
     31 H          -2.3739   -0.6464    2.0919 H       1  UNL1        0.0624
@<TRIPOS>BOND
     1     1     2    1
     2     1     3    1
     3     3     4    1
     4     3     5    2
     5     1     6    1
     6     6     7   ar
     7     7     8   ar
     8     8     9   ar
     9     9    10   ar
    10    10    11   ar
    11     9    12    1
    12    12    13   ar
    13    13    14   ar
    14    14    15   ar
    15    15    16   ar
    16    16    17   ar
    17    11     6   ar
    18    17    12   ar
    19     1    18    1
    20     2    19    1
    21     2    20    1
    22     2    21    1
    23     4    22    1
    24     7    23    1
    25     8    24    1
    26    10    25    1
    27    11    26    1
    28    13    27    1
    29    14    28    1
    30    15    29    1
    31    16    30    1
    32    17    31    1
