@<TRIPOS>MOLECULE
*****
 68 71 0 0 0
SMALL
GASTEIGER

@<TRIPOS>ATOM
      1 C           0.5688    1.0852    3.8231 C.3     1  UNL1       -0.0383
      2 C           0.4092    1.6384    2.3941 C.3     1  UNL1        0.0930
      3 C           0.9622    3.0250    2.3909 C.3     1  UNL1       -0.0383
      4 C          -1.0620    1.5975    2.1616 C.2     1  UNL1        0.2331
      5 O          -1.7784    2.3990    2.7934 O.2     1  UNL1       -0.2738
      6 N          -1.7280    0.7196    1.2776 N.am    1  UNL1       -0.3104
      7 C          -3.1332    0.6809    1.0542 C.3     1  UNL1        0.0288
      8 C          -3.3752    1.1364   -0.3880 C.3     1  UNL1       -0.0216
      9 C          -4.8304    1.2864   -0.6891 C.3     1  UNL1       -0.0485
     10 C          -5.6996    0.1553   -0.2651 C.3     1  UNL1       -0.0524
     11 C          -5.3235   -0.3159    1.0973 C.3     1  UNL1       -0.0485
     12 C          -3.8146   -0.6194    1.2049 C.3     1  UNL1       -0.0216
     13 C          -3.4741   -1.6529    0.1937 C.3     1  UNL1       -0.0374
     14 C          -2.7868   -1.2325   -1.0294 C.3     1  UNL1        0.0360
     15 C          -3.4407   -1.8298   -2.2409 C.2     1  UNL1        0.2136
     16 N          -3.5389   -3.2402   -2.3885 N.am    1  UNL1       -0.3291
     17 O          -3.9216   -1.1235   -3.1615 O.2     1  UNL1       -0.2757
     18 C          -2.6242    0.2205   -1.2768 C.3     1  UNL1       -0.0374
     19 N           1.1186    0.7248    1.5401 N.3     1  UNL1       -0.2864
     20 C           2.5074    0.6013    1.9732 C.3     1  UNL1        0.0157
     21 C           3.1487   -0.5151    1.2213 C.3     1  UNL1        0.0263
     22 N           3.0734   -0.2340   -0.1986 N.pl3   1  UNL1       -0.3127
     23 C           4.1682   -0.6225   -1.0284 C.ar    1  UNL1        0.1213
     24 C           4.1766   -0.5062   -2.3990 C.ar    1  UNL1       -0.0212
     25 C           5.2558   -0.8898   -3.1674 C.ar    1  UNL1       -0.0454
     26 C           6.3620   -1.4064   -2.5433 C.ar    1  UNL1        0.0730
     27 C           7.5278   -1.8213   -3.3700 C.3     1  UNL1        0.4188
     28 F           7.8882   -0.7830   -4.2215 F       1  UNL1       -0.1658
     29 F           8.6164   -2.0749   -2.5669 F       1  UNL1       -0.1658
     30 F           7.2299   -2.9800   -4.0597 F       1  UNL1       -0.1658
     31 C           6.3417   -1.5173   -1.1756 C.ar    1  UNL1        0.0413
     32 N           5.2701   -1.1322   -0.4606 N.ar    1  UNL1       -0.2398
     33 C           1.9040    0.4299   -0.7589 C.3     1  UNL1        0.0263
     34 C           1.2315    1.3570    0.2104 C.3     1  UNL1        0.0157
     35 H           1.4576    1.5325    4.3115 H       1  UNL1        0.0252
     36 H          -0.3010    1.4297    4.4168 H       1  UNL1        0.0252
     37 H           0.5586   -0.0137    3.8280 H       1  UNL1        0.0252
     38 H           0.8374    3.5557    1.4392 H       1  UNL1        0.0252
     39 H           0.3810    3.6155    3.1577 H       1  UNL1        0.0252
     40 H           2.0086    2.9977    2.7022 H       1  UNL1        0.0252
     41 H          -1.1385    0.0410    0.7485 H       1  UNL1        0.1490
     42 H          -3.6877    1.4417    1.6778 H       1  UNL1        0.0504
     43 H          -2.9126    2.1549   -0.4470 H       1  UNL1        0.0319
     44 H          -4.9348    1.5412   -1.7536 H       1  UNL1        0.0269
     45 H          -5.1801    2.2016   -0.1310 H       1  UNL1        0.0269
     46 H          -5.7854   -0.6722   -0.9961 H       1  UNL1        0.0265
     47 H          -6.7416    0.5677   -0.1774 H       1  UNL1        0.0265
     48 H          -5.8611   -1.2588    1.3167 H       1  UNL1        0.0269
     49 H          -5.5476    0.4929    1.8340 H       1  UNL1        0.0269
     50 H          -3.7439   -1.0314    2.2566 H       1  UNL1        0.0319
     51 H          -4.4188   -2.2117   -0.0848 H       1  UNL1        0.0276
     52 H          -2.8845   -2.4555    0.7369 H       1  UNL1        0.0276
     53 H          -1.7516   -1.6918   -1.0392 H       1  UNL1        0.0394
     54 H          -2.7272   -3.8583   -2.5902 H       1  UNL1        0.1449
     55 H          -4.4828   -3.6877   -2.2892 H       1  UNL1        0.1449
     56 H          -1.5386    0.5364   -1.2174 H       1  UNL1        0.0276
     57 H          -2.8964    0.5030   -2.3389 H       1  UNL1        0.0276
     58 H           3.0209    1.5372    1.7099 H       1  UNL1        0.0442
     59 H           2.5860    0.3951    3.0567 H       1  UNL1        0.0442
     60 H           2.7174   -1.5139    1.4713 H       1  UNL1        0.0477
     61 H           4.2255   -0.5854    1.5489 H       1  UNL1        0.0477
     62 H           3.3044   -0.1003   -2.8875 H       1  UNL1        0.0652
     63 H           5.2549   -0.7945   -4.2544 H       1  UNL1        0.0625
     64 H           7.2077   -1.9221   -0.6810 H       1  UNL1        0.0836
     65 H           1.2179   -0.2919   -1.2343 H       1  UNL1        0.0477
     66 H           2.2913    1.0853   -1.5881 H       1  UNL1        0.0477
     67 H           0.2811    1.6912   -0.1824 H       1  UNL1        0.0442
     68 H           1.9543    2.2088    0.3855 H       1  UNL1        0.0442
@<TRIPOS>BOND
     1     1     2    1
     2     2     3    1
     3     2     4    1
     4     4     5    2
     5     4     6   am
     6     6     7    1
     7     7     8    1
     8     8     9    1
     9     9    10    1
    10    10    11    1
    11    11    12    1
    12    12    13    1
    13    13    14    1
    14    14    15    1
    15    15    16   am
    16    15    17    2
    17    14    18    1
    18     2    19    1
    19    19    20    1
    20    20    21    1
    21    21    22    1
    22    22    23    1
    23    23    24   ar
    24    24    25   ar
    25    25    26   ar
    26    26    27    1
    27    27    28    1
    28    27    29    1
    29    27    30    1
    30    26    31   ar
    31    31    32   ar
    32    22    33    1
    33    33    34    1
    34    12     7    1
    35    34    19    1
    36    18     8    1
    37    32    23   ar
    38     1    35    1
    39     1    36    1
    40     1    37    1
    41     3    38    1
    42     3    39    1
    43     3    40    1
    44     6    41    1
    45     7    42    1
    46     8    43    1
    47     9    44    1
    48     9    45    1
    49    10    46    1
    50    10    47    1
    51    11    48    1
    52    11    49    1
    53    12    50    1
    54    13    51    1
    55    13    52    1
    56    14    53    1
    57    16    54    1
    58    16    55    1
    59    18    56    1
    60    18    57    1
    61    20    58    1
    62    20    59    1
    63    21    60    1
    64    21    61    1
    65    24    62    1
    66    25    63    1
    67    31    64    1
    68    33    65    1
    69    33    66    1
    70    34    67    1
    71    34    68    1
