
     RDKit          3D

 46 49  0  0  0  0  0  0  0  0999 V2000
    7.8026   -1.9704    0.0677 C   0  0  0  0  0  0  0  0  0  0  0  0
    6.5271   -1.2081    0.1399 C   0  0  0  0  0  0  0  0  0  0  0  0
    5.2775   -1.6842   -0.1485 C   0  0  0  0  0  0  0  0  0  0  0  0
    4.3910   -0.6524    0.0491 C   0  0  0  0  0  0  0  0  0  0  0  0
    3.0435   -0.5792   -0.0896 C   0  0  0  0  0  0  0  0  0  0  0  0
    2.3038   -1.6595   -0.4948 F   0  0  0  0  0  0  0  0  0  0  0  0
    2.3968    0.6384    0.1911 C   0  0  0  0  0  0  0  0  0  0  0  0
    1.0515    0.6339    0.0299 O   0  0  0  0  0  0  0  0  0  0  0  0
    0.1061    1.5876    0.1975 C   0  0  0  0  0  0  0  0  0  0  0  0
    0.3076    2.8339    0.5873 N   0  0  0  0  0  0  0  0  0  0  0  0
   -0.7151    3.6840    0.7153 C   0  0  0  0  0  0  0  0  0  0  0  0
   -1.9958    3.2956    0.4491 N   0  0  0  0  0  0  0  0  0  0  0  0
   -2.2396    2.0585    0.0570 N   0  0  0  0  0  0  0  0  0  0  0  0
   -3.4096    1.4403   -0.2636 C   0  0  0  0  0  0  0  0  0  0  0  0
   -3.1684    0.1414   -0.6155 C   0  0  0  0  0  0  0  0  0  0  0  0
   -3.9180   -0.9101   -1.0154 O   0  0  0  0  0  0  0  0  0  0  0  0
   -5.2826   -0.9335   -1.1667 C   0  0  0  0  0  0  0  0  0  0  0  0
   -5.9708   -0.7067    0.1565 C   0  0  1  0  0  0  0  0  0  0  0  0
   -7.4591   -0.9249   -0.1022 C   0  0  0  0  0  0  0  0  0  0  0  0
   -5.6019   -1.7099    1.0708 O   0  0  0  0  0  0  0  0  0  0  0  0
   -1.7700    0.0223   -0.4846 C   0  0  0  0  0  0  0  0  0  0  0  0
   -0.9819   -1.2256   -0.7573 C   0  0  0  0  0  0  0  0  0  0  0  0
   -1.2236    1.2081   -0.0719 C   0  0  0  0  0  0  0  0  0  0  0  0
    3.0872    1.7363    0.5956 C   0  0  0  0  0  0  0  0  0  0  0  0
    4.4765    1.6343    0.7309 C   0  0  0  0  0  0  0  0  0  0  0  0
    5.1040    0.4387    0.4543 C   0  0  0  0  0  0  0  0  0  0  0  0
    6.4034    0.0776    0.5028 N   0  0  0  0  0  0  0  0  0  0  0  0
    7.9649   -2.4491    1.0385 H   0  0  0  0  0  0  0  0  0  0  0  0
    7.6944   -2.7186   -0.7534 H   0  0  0  0  0  0  0  0  0  0  0  0
    8.5987   -1.2842   -0.2340 H   0  0  0  0  0  0  0  0  0  0  0  0
    5.0245   -2.6751   -0.4696 H   0  0  0  0  0  0  0  0  0  0  0  0
   -0.5075    4.6984    1.0377 H   0  0  0  0  0  0  0  0  0  0  0  0
   -4.3744    1.9075   -0.2544 H   0  0  0  0  0  0  0  0  0  0  0  0
   -5.5811   -1.9273   -1.5835 H   0  0  0  0  0  0  0  0  0  0  0  0
   -5.6614   -0.1898   -1.9300 H   0  0  0  0  0  0  0  0  0  0  0  0
   -5.7644    0.2907    0.5354 H   0  0  0  0  0  0  0  0  0  0  0  0
   -8.0521   -0.4052    0.6734 H   0  0  0  0  0  0  0  0  0  0  0  0
   -7.6341   -2.0035   -0.1085 H   0  0  0  0  0  0  0  0  0  0  0  0
   -7.6846   -0.5181   -1.1188 H   0  0  0  0  0  0  0  0  0  0  0  0
   -5.0986   -1.2587    1.7947 H   0  0  0  0  0  0  0  0  0  0  0  0
   -0.3733   -1.4666    0.1485 H   0  0  0  0  0  0  0  0  0  0  0  0
   -0.2594   -1.0644   -1.5759 H   0  0  0  0  0  0  0  0  0  0  0  0
   -1.6307   -2.0825   -0.9611 H   0  0  0  0  0  0  0  0  0  0  0  0
    2.5967    2.6651    0.8101 H   0  0  0  0  0  0  0  0  0  0  0  0
    5.0346    2.4937    1.0496 H   0  0  0  0  0  0  0  0  0  0  0  0
    7.1658    0.7214    0.7825 H   0  0  0  0  0  0  0  0  0  0  0  0
  1  2  1  0
  2  3  2  0
  3  4  1  0
  4  5  2  0
  5  6  1  0
  5  7  1  0
  7  8  1  0
  8  9  1  0
  9 10  2  0
 10 11  1  0
 11 12  2  0
 12 13  1  0
 13 14  1  0
 14 15  2  0
 15 16  1  0
 16 17  1  0
 17 18  1  0
 18 19  1  0
 18 20  1  0
 15 21  1  0
 21 22  1  0
 21 23  2  0
  7 24  2  0
 24 25  1  0
 25 26  2  0
 26 27  1  0
 27  2  1  0
 26  4  1  0
 23  9  1  0
 23 13  1  0
  1 28  1  0
  1 29  1  0
  1 30  1  0
  3 31  1  0
 11 32  1  0
 14 33  1  0
 17 34  1  0
 17 35  1  0
 18 36  1  1
 19 37  1  0
 19 38  1  0
 19 39  1  0
 20 40  1  0
 22 41  1  0
 22 42  1  0
 22 43  1  0
 24 44  1  0
 25 45  1  0
 27 46  1  0
M  END
$$$$
