@<TRIPOS>MOLECULE
*****
 46 49 0 0 0
SMALL
GASTEIGER

@<TRIPOS>ATOM
      1 C           7.8026   -1.9704    0.0677 C.3     1  UNL1       -0.0244
      2 C           6.5271   -1.2081    0.1399 C.ar    1  UNL1        0.0140
      3 C           5.2775   -1.6842   -0.1485 C.ar    1  UNL1       -0.0308
      4 C           4.3910   -0.6524    0.0491 C.ar    1  UNL1        0.0387
      5 C           3.0435   -0.5792   -0.0896 C.ar    1  UNL1        0.1746
      6 F           2.3038   -1.6595   -0.4948 F       1  UNL1       -0.2009
      7 C           2.3968    0.6384    0.1911 C.ar    1  UNL1        0.1662
      8 O           1.0515    0.6339    0.0299 O.3     1  UNL1       -0.4332
      9 C           0.1061    1.5876    0.1975 C.ar    1  UNL1        0.2483
     10 N           0.3076    2.8339    0.5873 N.ar    1  UNL1       -0.1975
     11 C          -0.7151    3.6840    0.7153 C.ar    1  UNL1        0.1405
     12 N          -1.9958    3.2956    0.4491 N.ar    1  UNL1       -0.1546
     13 N          -2.2396    2.0585    0.0570 N.ar    1  UNL1       -0.2294
     14 C          -3.4096    1.4403   -0.2636 C.ar    1  UNL1        0.0719
     15 C          -3.1684    0.1414   -0.6155 C.ar    1  UNL1        0.1437
     16 O          -3.9180   -0.9101   -1.0154 O.3     1  UNL1       -0.4876
     17 C          -5.2826   -0.9335   -1.1667 C.3     1  UNL1        0.1152
     18 C          -5.9708   -0.7067    0.1565 C.3     1  UNL1        0.0864
     19 C          -7.4591   -0.9249   -0.1022 C.3     1  UNL1       -0.0357
     20 O          -5.6019   -1.7099    1.0708 O.3     1  UNL1       -0.3887
     21 C          -1.7700    0.0223   -0.4846 C.ar    1  UNL1        0.0233
     22 C          -0.9819   -1.2256   -0.7573 C.3     1  UNL1       -0.0340
     23 C          -1.2236    1.2081   -0.0719 C.ar    1  UNL1        0.1336
     24 C           3.0872    1.7363    0.5956 C.ar    1  UNL1       -0.0144
     25 C           4.4765    1.6343    0.7309 C.ar    1  UNL1       -0.0341
     26 C           5.1040    0.4387    0.4543 C.ar    1  UNL1        0.0497
     27 N           6.4034    0.0776    0.5028 N.ar    1  UNL1       -0.3581
     28 H           7.9649   -2.4491    1.0385 H       1  UNL1        0.0292
     29 H           7.6944   -2.7186   -0.7534 H       1  UNL1        0.0292
     30 H           8.5987   -1.2842   -0.2340 H       1  UNL1        0.0292
     31 H           5.0245   -2.6751   -0.4696 H       1  UNL1        0.0642
     32 H          -0.5075    4.6984    1.0377 H       1  UNL1        0.1066
     33 H          -4.3744    1.9075   -0.2544 H       1  UNL1        0.0868
     34 H          -5.5811   -1.9273   -1.5835 H       1  UNL1        0.0722
     35 H          -5.6614   -0.1898   -1.9300 H       1  UNL1        0.0722
     36 H          -5.7644    0.2907    0.5354 H       1  UNL1        0.0624
     37 H          -8.0521   -0.4052    0.6734 H       1  UNL1        0.0256
     38 H          -7.6341   -2.0035   -0.1085 H       1  UNL1        0.0256
     39 H          -7.6846   -0.5181   -1.1188 H       1  UNL1        0.0256
     40 H          -5.0986   -1.2587    1.7947 H       1  UNL1        0.2099
     41 H          -0.3733   -1.4666    0.1485 H       1  UNL1        0.0279
     42 H          -0.2594   -1.0644   -1.5759 H       1  UNL1        0.0279
     43 H          -1.6307   -2.0825   -0.9611 H       1  UNL1        0.0279
     44 H           2.5967    2.6651    0.8101 H       1  UNL1        0.0656
     45 H           5.0346    2.4937    1.0496 H       1  UNL1        0.0639
     46 H           7.1658    0.7214    0.7825 H       1  UNL1        0.1656
@<TRIPOS>BOND
     1     1     2    1
     2     2     3   ar
     3     3     4   ar
     4     4     5   ar
     5     5     6    1
     6     5     7   ar
     7     7     8    1
     8     8     9    1
     9     9    10   ar
    10    10    11   ar
    11    11    12   ar
    12    12    13   ar
    13    13    14   ar
    14    14    15   ar
    15    15    16    1
    16    16    17    1
    17    17    18    1
    18    18    19    1
    19    18    20    1
    20    15    21   ar
    21    21    22    1
    22    21    23   ar
    23     7    24   ar
    24    24    25   ar
    25    25    26   ar
    26    26    27   ar
    27    27     2   ar
    28    26     4   ar
    29    23     9   ar
    30    23    13   ar
    31     1    28    1
    32     1    29    1
    33     1    30    1
    34     3    31    1
    35    11    32    1
    36    14    33    1
    37    17    34    1
    38    17    35    1
    39    18    36    1
    40    19    37    1
    41    19    38    1
    42    19    39    1
    43    20    40    1
    44    22    41    1
    45    22    42    1
    46    22    43    1
    47    24    44    1
    48    25    45    1
    49    27    46    1
