
     RDKit          3D

 41 44  0  0  0  0  0  0  0  0999 V2000
   -0.8033   -1.1723   -3.1867 N   0  0  0  0  0  0  0  0  0  0  0  0
   -0.2082   -1.0209   -2.2116 C   0  0  0  0  0  0  0  0  0  0  0  0
    0.5389   -0.8108   -1.0086 C   0  0  0  0  0  0  0  0  0  0  0  0
    1.8494   -1.2359   -1.0123 C   0  0  0  0  0  0  0  0  0  0  0  0
    2.6435   -1.0375    0.1244 C   0  0  0  0  0  0  0  0  0  0  0  0
    4.2922   -1.5731    0.1898 S   0  0  0  0  0  6  0  0  0  0  0  0
    4.3148   -3.0114   -0.3004 O   0  0  0  0  0  0  0  0  0  0  0  0
    4.6851   -1.6841    1.6620 O   0  0  0  0  0  0  0  0  0  0  0  0
    5.3804   -0.6024   -0.6699 N   0  0  0  0  0  0  0  0  0  0  0  0
    5.6207    0.7654   -0.3741 C   0  0  0  0  0  0  0  0  0  0  0  0
    6.2511    1.6622   -0.7343 N   0  0  0  0  0  0  0  0  0  0  0  0
    6.3322    2.8789   -0.3080 C   0  0  0  0  0  0  0  0  0  0  0  0
    5.5168    3.1501    0.7721 N   0  0  0  0  0  0  0  0  0  0  0  0
    4.6849    1.5481    1.0679 S   0  0  0  0  0  0  0  0  0  0  0  0
    2.0823   -0.4237    1.2057 C   0  0  0  0  0  0  0  0  0  0  0  0
    0.7482   -0.0025    1.1809 C   0  0  0  0  0  0  0  0  0  0  0  0
   -0.0577   -0.1934    0.0539 C   0  0  0  0  0  0  0  0  0  0  0  0
   -1.3653    0.2436    0.0848 O   0  0  0  0  0  0  0  0  0  0  0  0
   -2.4193   -0.6394   -0.0121 C   0  0  0  0  0  0  0  0  0  0  0  0
   -2.3008   -2.0062   -0.0859 C   0  0  0  0  0  0  0  0  0  0  0  0
   -3.4095   -2.8544   -0.1863 C   0  0  0  0  0  0  0  0  0  0  0  0
   -4.6688   -2.3009   -0.2116 C   0  0  0  0  0  0  0  0  0  0  0  0
   -6.0459   -3.3696   -0.3372 Cl  0  0  0  0  0  0  0  0  0  0  0  0
   -4.8378   -0.9388   -0.1398 C   0  0  0  0  0  0  0  0  0  0  0  0
   -3.7174   -0.1149   -0.0406 C   0  0  0  0  0  0  0  0  0  0  0  0
   -3.8500    1.3349    0.0380 C   0  0  0  0  0  0  0  0  0  0  0  0
   -3.1445    2.3134   -0.6293 C   0  0  0  0  0  0  0  0  0  0  0  0
   -3.6119    3.5351   -0.2407 N   0  0  0  0  0  0  0  0  0  0  0  0
   -4.5818    3.3520    0.6433 N   0  0  0  0  0  0  0  0  0  0  0  0
   -4.7507    2.0106    0.8348 C   0  0  0  0  0  0  0  0  0  0  0  0
    2.3130   -1.7244   -1.8578 H   0  0  0  0  0  0  0  0  0  0  0  0
    5.9129   -1.0103   -1.4621 H   0  0  0  0  0  0  0  0  0  0  0  0
    6.9545    3.6704   -0.7038 H   0  0  0  0  0  0  0  0  0  0  0  0
    2.6372   -0.2455    2.1379 H   0  0  0  0  0  0  0  0  0  0  0  0
    0.2953    0.4824    2.0261 H   0  0  0  0  0  0  0  0  0  0  0  0
   -1.3109   -2.4533   -0.0520 H   0  0  0  0  0  0  0  0  0  0  0  0
   -3.2275   -3.9213   -0.2402 H   0  0  0  0  0  0  0  0  0  0  0  0
   -5.8102   -0.4732   -0.1569 H   0  0  0  0  0  0  0  0  0  0  0  0
   -2.3620    2.1610   -1.3339 H   0  0  0  0  0  0  0  0  0  0  0  0
   -5.1020    4.1368    1.0922 H   0  0  0  0  0  0  0  0  0  0  0  0
   -5.4681    1.5752    1.4973 H   0  0  0  0  0  0  0  0  0  0  0  0
  1  2  3  0
  2  3  1  0
  3  4  2  0
  4  5  1  0
  5  6  1  0
  6  7  2  0
  6  8  2  0
  6  9  1  0
  9 10  1  0
 10 11  2  0
 11 12  1  0
 12 13  2  0
 13 14  1  0
  5 15  2  0
 15 16  1  0
 16 17  2  0
 17 18  1  0
 18 19  1  0
 19 20  2  0
 20 21  1  0
 21 22  2  0
 22 23  1  0
 22 24  1  0
 24 25  2  0
 25 26  1  0
 26 27  1  0
 27 28  2  0
 28 29  1  0
 29 30  1  0
 17  3  1  0
 25 19  1  0
 30 26  2  0
 14 10  1  0
  4 31  1  0
  9 32  1  0
 12 33  1  0
 15 34  1  0
 16 35  1  0
 20 36  1  0
 21 37  1  0
 24 38  1  0
 27 39  1  0
 29 40  1  0
 30 41  1  0
M  END
$$$$
