@<TRIPOS>MOLECULE
*****
 41 44 0 0 0
SMALL
GASTEIGER

@<TRIPOS>ATOM
      1 N          -0.8033   -1.1723   -3.1867 N.1     1  UNL1       -0.1907
      2 C          -0.2082   -1.0209   -2.2116 C.1     1  UNL1        0.1029
      3 C           0.5389   -0.8108   -1.0086 C.ar    1  UNL1        0.0958
      4 C           1.8494   -1.2359   -1.0123 C.ar    1  UNL1       -0.0141
      5 C           2.6435   -1.0375    0.1244 C.ar    1  UNL1        0.1100
      6 S           4.2922   -1.5731    0.1898 S.O2    1  UNL1        0.0739
      7 O           4.3148   -3.0114   -0.3004 O.2     1  UNL1       -0.1499
      8 O           4.6851   -1.6841    1.6620 O.2     1  UNL1       -0.1499
      9 N           5.3804   -0.6024   -0.6699 N.pl3   1  UNL1       -0.1926
     10 C           5.6207    0.7654   -0.3741 C.ar    1  UNL1        0.1970
     11 N           6.2511    1.6622   -0.7343 N.ar    1  UNL1       -0.2109
     12 C           6.3322    2.8789   -0.3080 C.ar    1  UNL1        0.1273
     13 N           5.5168    3.1501    0.7721 N.ar    1  UNL1       -0.1958
     14 S           4.6849    1.5481    1.0679 S.2     1  UNL1        0.0500
     15 C           2.0823   -0.4237    1.2057 C.ar    1  UNL1       -0.0315
     16 C           0.7482   -0.0025    1.1809 C.ar    1  UNL1       -0.0162
     17 C          -0.0577   -0.1934    0.0539 C.ar    1  UNL1        0.1459
     18 O          -1.3653    0.2436    0.0848 O.3     1  UNL1       -0.4541
     19 C          -2.4193   -0.6394   -0.0121 C.ar    1  UNL1        0.1363
     20 C          -2.3008   -2.0062   -0.0859 C.ar    1  UNL1       -0.0173
     21 C          -3.4095   -2.8544   -0.1863 C.ar    1  UNL1       -0.0399
     22 C          -4.6688   -2.3009   -0.2116 C.ar    1  UNL1        0.0418
     23 CL         -6.0459   -3.3696   -0.3372 Cl      1  UNL1       -0.0835
     24 C          -4.8378   -0.9388   -0.1398 C.ar    1  UNL1       -0.0321
     25 C          -3.7174   -0.1149   -0.0406 C.ar    1  UNL1        0.0287
     26 C          -3.8500    1.3349    0.0380 C.ar    1  UNL1        0.0229
     27 C          -3.1445    2.3134   -0.6293 C.ar    1  UNL1        0.0570
     28 N          -3.6119    3.5351   -0.2407 N.ar    1  UNL1       -0.1817
     29 N          -4.5818    3.3520    0.6433 N.ar    1  UNL1       -0.2841
     30 C          -4.7507    2.0106    0.8348 C.ar    1  UNL1        0.0301
     31 H           2.3130   -1.7244   -1.8578 H       1  UNL1        0.0651
     32 H           5.9129   -1.0103   -1.4621 H       1  UNL1        0.1758
     33 H           6.9545    3.6704   -0.7038 H       1  UNL1        0.1054
     34 H           2.6372   -0.2455    2.1379 H       1  UNL1        0.0638
     35 H           0.2953    0.4824    2.0261 H       1  UNL1        0.0655
     36 H          -1.3109   -2.4533   -0.0520 H       1  UNL1        0.0655
     37 H          -3.2275   -3.9213   -0.2402 H       1  UNL1        0.0633
     38 H          -5.8102   -0.4732   -0.1569 H       1  UNL1        0.0639
     39 H          -2.3620    2.1610   -1.3339 H       1  UNL1        0.0854
     40 H          -5.1020    4.1368    1.0922 H       1  UNL1        0.1882
     41 H          -5.4681    1.5752    1.4973 H       1  UNL1        0.0830
@<TRIPOS>BOND
     1     1     2    3
     2     2     3    1
     3     3     4   ar
     4     4     5   ar
     5     5     6    1
     6     6     7    2
     7     6     8    2
     8     6     9    1
     9     9    10    1
    10    10    11   ar
    11    11    12   ar
    12    12    13   ar
    13    13    14   ar
    14     5    15   ar
    15    15    16   ar
    16    16    17   ar
    17    17    18    1
    18    18    19    1
    19    19    20   ar
    20    20    21   ar
    21    21    22   ar
    22    22    23    1
    23    22    24   ar
    24    24    25   ar
    25    25    26    1
    26    26    27   ar
    27    27    28   ar
    28    28    29   ar
    29    29    30   ar
    30    17     3   ar
    31    25    19   ar
    32    30    26   ar
    33    14    10   ar
    34     4    31    1
    35     9    32    1
    36    12    33    1
    37    15    34    1
    38    16    35    1
    39    20    36    1
    40    21    37    1
    41    24    38    1
    42    27    39    1
    43    29    40    1
    44    30    41    1
