
     RDKit          3D

 60 65  0  0  0  0  0  0  0  0999 V2000
    1.7586    2.8254   -3.9854 C   0  0  0  0  0  0  0  0  0  0  0  0
    1.9394    1.9819   -2.7750 C   0  0  0  0  0  0  0  0  0  0  0  0
    3.0714    1.7644   -2.0283 C   0  0  0  0  0  0  0  0  0  0  0  0
    2.8174    0.9337   -1.0081 N   0  0  0  0  0  0  0  0  0  0  0  0
    3.7568    0.4723   -0.0133 C   0  0  0  0  0  0  0  0  0  0  0  0
    3.7037    1.2309    1.2658 C   0  0  0  0  0  0  0  0  0  0  0  0
    4.1303    0.2287    2.3024 C   0  0  0  0  0  0  0  0  0  0  0  0
    3.7897   -1.0639    1.7461 N   0  0  0  0  0  0  0  0  0  0  0  0
    3.6580   -2.2722    2.5354 C   0  0  0  0  0  0  0  0  0  0  0  0
    3.6163   -0.9421    0.3419 C   0  0  0  0  0  0  0  0  0  0  0  0
    3.3833   -1.8720   -0.4695 O   0  0  0  0  0  0  0  0  0  0  0  0
    1.4907    0.6036   -1.0923 C   0  0  0  0  0  0  0  0  0  0  0  0
    0.9248    1.2301   -2.1667 C   0  0  0  0  0  0  0  0  0  0  0  0
   -0.4788    0.8730   -2.2860 C   0  0  0  0  0  0  0  0  0  0  0  0
   -1.2501    1.3035   -3.1812 O   0  0  0  0  0  0  0  0  0  0  0  0
   -0.7372   -0.0133   -1.2215 N   0  0  0  0  0  0  0  0  0  0  0  0
   -1.9975   -0.6648   -1.0043 C   0  0  0  0  0  0  0  0  0  0  0  0
   -2.1623   -1.9230   -1.5949 C   0  0  0  0  0  0  0  0  0  0  0  0
   -3.3448   -2.6022   -1.4320 C   0  0  0  0  0  0  0  0  0  0  0  0
   -3.5442   -3.9291   -2.0447 C   0  0  0  0  0  0  0  0  0  0  0  0
   -4.3584   -2.0184   -0.6779 C   0  0  0  0  0  0  0  0  0  0  0  0
   -5.6014   -2.4131   -0.3381 N   0  0  0  0  0  0  0  0  0  0  0  0
   -6.1720   -1.4843    0.4028 N   0  0  0  0  0  0  0  0  0  0  0  0
   -5.3252   -0.4792    0.5594 C   0  0  0  0  0  0  0  0  0  0  0  0
   -5.4977    0.8063    1.3128 C   0  0  0  0  0  0  0  0  0  0  0  0
   -4.1893   -0.8088   -0.1150 N   0  0  0  0  0  0  0  0  0  0  0  0
   -3.0217   -0.1351   -0.2743 C   0  0  0  0  0  0  0  0  0  0  0  0
    0.4311   -0.1821   -0.4168 C   0  0  0  0  0  0  0  0  0  0  0  0
    0.1952    0.4158    0.9506 C   0  0  0  0  0  0  0  0  0  0  0  0
   -0.3278    1.6722    1.0909 C   0  0  0  0  0  0  0  0  0  0  0  0
   -0.5611    2.2595    2.3224 C   0  0  0  0  0  0  0  0  0  0  0  0
   -0.2565    1.5558    3.4642 C   0  0  0  0  0  0  0  0  0  0  0  0
   -0.5503    2.2952    5.0289 Cl  0  0  0  0  0  0  0  0  0  0  0  0
    0.2734    0.2831    3.3464 C   0  0  0  0  0  0  0  0  0  0  0  0
    0.5024   -0.2945    2.0905 C   0  0  0  0  0  0  0  0  0  0  0  0
    2.0710    2.3167   -4.9069 H   0  0  0  0  0  0  0  0  0  0  0  0
    2.3835    3.7482   -3.8187 H   0  0  0  0  0  0  0  0  0  0  0  0
    0.7217    3.1700   -4.0991 H   0  0  0  0  0  0  0  0  0  0  0  0
    4.0546    2.2120   -2.2391 H   0  0  0  0  0  0  0  0  0  0  0  0
    4.8119    0.5827   -0.4151 H   0  0  0  0  0  0  0  0  0  0  0  0
    2.7215    1.6914    1.4950 H   0  0  0  0  0  0  0  0  0  0  0  0
    4.5071    2.0263    1.2546 H   0  0  0  0  0  0  0  0  0  0  0  0
    3.6466    0.3989    3.2852 H   0  0  0  0  0  0  0  0  0  0  0  0
    5.2376    0.2392    2.4051 H   0  0  0  0  0  0  0  0  0  0  0  0
    3.7059   -2.0609    3.6081 H   0  0  0  0  0  0  0  0  0  0  0  0
    2.7091   -2.8125    2.3515 H   0  0  0  0  0  0  0  0  0  0  0  0
    4.4809   -3.0029    2.2919 H   0  0  0  0  0  0  0  0  0  0  0  0
   -1.3421   -2.3249   -2.1678 H   0  0  0  0  0  0  0  0  0  0  0  0
   -2.9437   -3.9702   -2.9801 H   0  0  0  0  0  0  0  0  0  0  0  0
   -3.1658   -4.7162   -1.3503 H   0  0  0  0  0  0  0  0  0  0  0  0
   -4.6224   -4.0601   -2.2275 H   0  0  0  0  0  0  0  0  0  0  0  0
   -4.8299    0.8515    2.1970 H   0  0  0  0  0  0  0  0  0  0  0  0
   -6.5761    0.8422    1.6071 H   0  0  0  0  0  0  0  0  0  0  0  0
   -5.3112    1.6668    0.6378 H   0  0  0  0  0  0  0  0  0  0  0  0
   -2.9080    0.8305    0.1801 H   0  0  0  0  0  0  0  0  0  0  0  0
    0.7239   -1.2541   -0.3052 H   0  0  0  0  0  0  0  0  0  0  0  0
   -0.5754    2.2446    0.2187 H   0  0  0  0  0  0  0  0  0  0  0  0
   -0.9773    3.2587    2.4096 H   0  0  0  0  0  0  0  0  0  0  0  0
    0.5011   -0.2420    4.2495 H   0  0  0  0  0  0  0  0  0  0  0  0
    0.9093   -1.2735    1.9924 H   0  0  0  0  0  0  0  0  0  0  0  0
  1  2  1  0
  2  3  2  0
  3  4  1  0
  4  5  1  0
  5  6  1  0
  6  7  1  0
  7  8  1  0
  8  9  1  0
  8 10  1  0
 10 11  2  0
  4 12  1  0
 12 13  2  0
 13 14  1  0
 14 15  2  0
 14 16  1  0
 16 17  1  0
 17 18  1  0
 18 19  2  0
 19 20  1  0
 19 21  1  0
 21 22  2  0
 22 23  1  0
 23 24  2  0
 24 25  1  0
 24 26  1  0
 26 27  1  0
 16 28  1  0
 28 29  1  0
 29 30  2  0
 30 31  1  0
 31 32  2  0
 32 33  1  0
 32 34  1  0
 34 35  2  0
 13  2  1  0
 27 17  2  0
 35 29  1  0
 10  5  1  0
 28 12  1  0
 26 21  1  0
  1 36  1  0
  1 37  1  0
  1 38  1  0
  3 39  1  0
  5 40  1  0
  6 41  1  0
  6 42  1  0
  7 43  1  0
  7 44  1  0
  9 45  1  0
  9 46  1  0
  9 47  1  0
 18 48  1  0
 20 49  1  0
 20 50  1  0
 20 51  1  0
 25 52  1  0
 25 53  1  0
 25 54  1  0
 27 55  1  0
 28 56  1  0
 30 57  1  0
 31 58  1  0
 34 59  1  0
 35 60  1  0
M  END
$$$$
