@<TRIPOS>MOLECULE
*****
 60 65 0 0 0
SMALL
GASTEIGER

@<TRIPOS>ATOM
      1 C           1.7586    2.8254   -3.9854 C.3     1  UNL1       -0.0376
      2 C           1.9394    1.9819   -2.7750 C.ar    1  UNL1       -0.0205
      3 C           3.0714    1.7644   -2.0283 C.ar    1  UNL1        0.0094
      4 N           2.8174    0.9337   -1.0081 N.ar    1  UNL1       -0.3358
      5 C           3.7568    0.4723   -0.0133 C.3     1  UNL1        0.1117
      6 C           3.7037    1.2309    1.2658 C.3     1  UNL1       -0.0077
      7 C           4.1303    0.2287    2.3024 C.3     1  UNL1        0.0168
      8 N           3.7897   -1.0639    1.7461 N.am    1  UNL1       -0.3028
      9 C           3.6580   -2.2722    2.5354 C.3     1  UNL1        0.0032
     10 C           3.6163   -0.9421    0.3419 C.2     1  UNL1        0.2383
     11 O           3.3833   -1.8720   -0.4695 O.2     1  UNL1       -0.2733
     12 C           1.4907    0.6036   -1.0923 C.ar    1  UNL1        0.0574
     13 C           0.9248    1.2301   -2.1667 C.ar    1  UNL1        0.0630
     14 C          -0.4788    0.8730   -2.2860 C.2     1  UNL1        0.2538
     15 O          -1.2501    1.3035   -3.1812 O.2     1  UNL1       -0.2695
     16 N          -0.7372   -0.0133   -1.2215 N.am    1  UNL1       -0.2530
     17 C          -1.9975   -0.6648   -1.0043 C.ar    1  UNL1        0.0545
     18 C          -2.1623   -1.9230   -1.5949 C.ar    1  UNL1       -0.0324
     19 C          -3.3448   -2.6022   -1.4320 C.ar    1  UNL1       -0.0041
     20 C          -3.5442   -3.9291   -2.0447 C.3     1  UNL1       -0.0361
     21 C          -4.3584   -2.0184   -0.6779 C.ar    1  UNL1        0.1641
     22 N          -5.6014   -2.4131   -0.3381 N.ar    1  UNL1       -0.1292
     23 N          -6.1720   -1.4843    0.4028 N.ar    1  UNL1       -0.1340
     24 C          -5.3252   -0.4792    0.5594 C.ar    1  UNL1        0.1347
     25 C          -5.4977    0.8063    1.3128 C.3     1  UNL1       -0.0041
     26 N          -4.1893   -0.8088   -0.1150 N.ar    1  UNL1       -0.2846
     27 C          -3.0217   -0.1351   -0.2743 C.ar    1  UNL1        0.0344
     28 C           0.4311   -0.1821   -0.4168 C.3     1  UNL1        0.0973
     29 C           0.1952    0.4158    0.9506 C.ar    1  UNL1       -0.0208
     30 C          -0.3278    1.6722    1.0909 C.ar    1  UNL1       -0.0550
     31 C          -0.5611    2.2595    2.3224 C.ar    1  UNL1       -0.0431
     32 C          -0.2565    1.5558    3.4642 C.ar    1  UNL1        0.0410
     33 CL         -0.5503    2.2952    5.0289 Cl      1  UNL1       -0.0835
     34 C           0.2734    0.2831    3.3464 C.ar    1  UNL1       -0.0431
     35 C           0.5024   -0.2945    2.0905 C.ar    1  UNL1       -0.0550
     36 H           2.0710    2.3167   -4.9069 H       1  UNL1        0.0278
     37 H           2.3835    3.7482   -3.8187 H       1  UNL1        0.0278
     38 H           0.7217    3.1700   -4.0991 H       1  UNL1        0.0278
     39 H           4.0546    2.2120   -2.2391 H       1  UNL1        0.0812
     40 H           4.8119    0.5827   -0.4151 H       1  UNL1        0.0624
     41 H           2.7215    1.6914    1.4950 H       1  UNL1        0.0305
     42 H           4.5071    2.0263    1.2546 H       1  UNL1        0.0305
     43 H           3.6466    0.3989    3.2852 H       1  UNL1        0.0465
     44 H           5.2376    0.2392    2.4051 H       1  UNL1        0.0465
     45 H           3.7059   -2.0609    3.6081 H       1  UNL1        0.0428
     46 H           2.7091   -2.8125    2.3515 H       1  UNL1        0.0428
     47 H           4.4809   -3.0029    2.2919 H       1  UNL1        0.0428
     48 H          -1.3421   -2.3249   -2.1678 H       1  UNL1        0.0640
     49 H          -2.9437   -3.9702   -2.9801 H       1  UNL1        0.0279
     50 H          -3.1658   -4.7162   -1.3503 H       1  UNL1        0.0279
     51 H          -4.6224   -4.0601   -2.2275 H       1  UNL1        0.0279
     52 H          -4.8299    0.8515    2.1970 H       1  UNL1        0.0308
     53 H          -6.5761    0.8422    1.6071 H       1  UNL1        0.0308
     54 H          -5.3112    1.6668    0.6378 H       1  UNL1        0.0308
     55 H          -2.9080    0.8305    0.1801 H       1  UNL1        0.0833
     56 H           0.7239   -1.2541   -0.3052 H       1  UNL1        0.0619
     57 H          -0.5754    2.2446    0.2187 H       1  UNL1        0.0621
     58 H          -0.9773    3.2587    2.4096 H       1  UNL1        0.0632
     59 H           0.5011   -0.2420    4.2495 H       1  UNL1        0.0632
     60 H           0.9093   -1.2735    1.9924 H       1  UNL1        0.0621
@<TRIPOS>BOND
     1     1     2    1
     2     2     3   ar
     3     3     4   ar
     4     4     5    1
     5     5     6    1
     6     6     7    1
     7     7     8    1
     8     8     9    1
     9     8    10   am
    10    10    11    2
    11     4    12   ar
    12    12    13   ar
    13    13    14    1
    14    14    15    2
    15    14    16   am
    16    16    17    1
    17    17    18   ar
    18    18    19   ar
    19    19    20    1
    20    19    21   ar
    21    21    22   ar
    22    22    23   ar
    23    23    24   ar
    24    24    25    1
    25    24    26   ar
    26    26    27   ar
    27    16    28    1
    28    28    29    1
    29    29    30   ar
    30    30    31   ar
    31    31    32   ar
    32    32    33    1
    33    32    34   ar
    34    34    35   ar
    35    13     2   ar
    36    27    17   ar
    37    35    29   ar
    38    10     5    1
    39    28    12    1
    40    26    21   ar
    41     1    36    1
    42     1    37    1
    43     1    38    1
    44     3    39    1
    45     5    40    1
    46     6    41    1
    47     6    42    1
    48     7    43    1
    49     7    44    1
    50     9    45    1
    51     9    46    1
    52     9    47    1
    53    18    48    1
    54    20    49    1
    55    20    50    1
    56    20    51    1
    57    25    52    1
    58    25    53    1
    59    25    54    1
    60    27    55    1
    61    28    56    1
    62    30    57    1
    63    31    58    1
    64    34    59    1
    65    35    60    1
