@<TRIPOS>MOLECULE
*****
 52 52 0 0 0
SMALL
GASTEIGER

@<TRIPOS>ATOM
      1 C           7.1042    1.2173    1.8900 C.3     1  UNL1       -0.0648
      2 C           7.5867    0.7230    0.5435 C.3     1  UNL1       -0.0476
      3 C           6.8269   -0.5526    0.1812 C.3     1  UNL1        0.0240
      4 C           5.3900   -0.1804    0.1348 C.2     1  UNL1        0.2172
      5 O           5.1509    1.0069    0.3788 O.2     1  UNL1       -0.2755
      6 N           4.3274   -1.0724   -0.1613 N.am    1  UNL1       -0.2855
      7 C           2.9587   -0.8168   -0.2296 C.ar    1  UNL1        0.0343
      8 C           2.3099    0.3736   -0.0204 C.ar    1  UNL1       -0.0265
      9 C           0.9517    0.5764   -0.1060 C.ar    1  UNL1        0.0605
     10 C           0.3842    1.8855    0.1365 C.2     1  UNL1        0.1637
     11 C          -1.0555    2.1709    0.0617 C.3     1  UNL1       -0.0013
     12 O           1.1581    2.8450    0.4301 O.2     1  UNL1       -0.2922
     13 C           0.1511   -0.4967   -0.4291 C.ar    1  UNL1        0.1312
     14 O          -1.2402   -0.3878   -0.5392 O.3     1  UNL1       -0.4887
     15 C          -1.9550   -1.5532   -0.8781 C.3     1  UNL1        0.1166
     16 C          -3.4651   -1.2890   -0.9629 C.3     1  UNL1        0.1015
     17 O          -4.0466   -2.5245   -1.3199 O.3     1  UNL1       -0.3872
     18 C          -3.9476   -0.8621    0.3938 C.3     1  UNL1        0.0254
     19 N          -5.3323   -0.7052    0.4633 N.3     1  UNL1       -0.3112
     20 C          -6.0321    0.3227   -0.1586 C.3     1  UNL1        0.0021
     21 C          -6.0527    0.3011   -1.6390 C.3     1  UNL1       -0.0499
     22 C          -5.6007    1.7191    0.2932 C.3     1  UNL1       -0.0499
     23 C           0.7632   -1.7316   -0.6513 C.ar    1  UNL1       -0.0175
     24 C           2.1285   -1.8655   -0.5495 C.ar    1  UNL1       -0.0370
     25 H           8.0010    1.3756    2.5243 H       1  UNL1        0.0230
     26 H           6.5890    2.2056    1.8091 H       1  UNL1        0.0230
     27 H           6.4549    0.4617    2.3401 H       1  UNL1        0.0230
     28 H           7.2730    1.4763   -0.2121 H       1  UNL1        0.0267
     29 H           8.6657    0.5996    0.4632 H       1  UNL1        0.0267
     30 H           7.0133   -1.2946    0.9870 H       1  UNL1        0.0358
     31 H           7.1316   -0.9258   -0.8061 H       1  UNL1        0.0358
     32 H           4.7066   -2.0355   -0.3415 H       1  UNL1        0.1548
     33 H           2.8937    1.2282    0.2309 H       1  UNL1        0.0644
     34 H          -1.5383    1.5567    0.8634 H       1  UNL1        0.0309
     35 H          -1.2619    3.2553    0.2072 H       1  UNL1        0.0309
     36 H          -1.5312    1.8905   -0.9031 H       1  UNL1        0.0309
     37 H          -1.7461   -2.3384   -0.1156 H       1  UNL1        0.0723
     38 H          -1.6621   -1.9607   -1.8621 H       1  UNL1        0.0723
     39 H          -3.6339   -0.5498   -1.7486 H       1  UNL1        0.0640
     40 H          -3.7042   -3.1743   -0.6551 H       1  UNL1        0.2100
     41 H          -3.5410   -1.6301    1.1045 H       1  UNL1        0.0450
     42 H          -3.3973    0.0796    0.6607 H       1  UNL1        0.0450
     43 H          -5.8722   -1.3734    1.0489 H       1  UNL1        0.1223
     44 H          -7.1048    0.2624    0.1962 H       1  UNL1        0.0455
     45 H          -7.0471    0.7345   -1.9564 H       1  UNL1        0.0245
     46 H          -5.3167    0.9950   -2.1131 H       1  UNL1        0.0245
     47 H          -5.9673   -0.7390   -1.9999 H       1  UNL1        0.0245
     48 H          -4.5410    1.9307    0.0024 H       1  UNL1        0.0245
     49 H          -6.2423    2.4312   -0.2746 H       1  UNL1        0.0245
     50 H          -5.7967    1.8661    1.3597 H       1  UNL1        0.0245
     51 H           0.1680   -2.5756   -0.9026 H       1  UNL1        0.0655
     52 H           2.5440   -2.8558   -0.7346 H       1  UNL1        0.0637
@<TRIPOS>BOND
     1     1     2    1
     2     2     3    1
     3     3     4    1
     4     4     5    2
     5     4     6   am
     6     6     7    1
     7     7     8   ar
     8     8     9   ar
     9     9    10    1
    10    10    11    1
    11    10    12    2
    12     9    13   ar
    13    13    14    1
    14    14    15    1
    15    15    16    1
    16    16    17    1
    17    16    18    1
    18    18    19    1
    19    19    20    1
    20    20    21    1
    21    20    22    1
    22    13    23   ar
    23    23    24   ar
    24    24     7   ar
    25     1    25    1
    26     1    26    1
    27     1    27    1
    28     2    28    1
    29     2    29    1
    30     3    30    1
    31     3    31    1
    32     6    32    1
    33     8    33    1
    34    11    34    1
    35    11    35    1
    36    11    36    1
    37    15    37    1
    38    15    38    1
    39    16    39    1
    40    17    40    1
    41    18    41    1
    42    18    42    1
    43    19    43    1
    44    20    44    1
    45    21    45    1
    46    21    46    1
    47    21    47    1
    48    22    48    1
    49    22    49    1
    50    22    50    1
    51    23    51    1
    52    24    52    1
