@<TRIPOS>MOLECULE
*****
 64 66 0 0 0
SMALL
GASTEIGER

@<TRIPOS>ATOM
      1 C           7.4983   -1.2450    0.8252 C.3     1  UNL1       -0.0638
      2 C           6.2285   -1.3718    0.0243 C.3     1  UNL1       -0.0350
      3 C           5.1111   -1.7694    0.9358 C.3     1  UNL1        0.0817
      4 S           3.5519   -1.9444    0.0678 S.O2    1  UNL1        0.0318
      5 O           2.5474   -2.3421    1.1002 O.2     1  UNL1       -0.1580
      6 O           3.6735   -2.9652   -1.0253 O.2     1  UNL1       -0.1580
      7 N           3.1671   -0.4412   -0.6303 N.3     1  UNL1       -0.1811
      8 C           2.9882    0.6292    0.2654 C.3     1  UNL1        0.0211
      9 C           1.6530    1.2957    0.3346 C.3     1  UNL1       -0.0231
     10 C           0.4641    0.4792   -0.1152 C.3     1  UNL1        0.0650
     11 C          -0.2783   -0.1230    1.0450 C.3     1  UNL1        0.0259
     12 N          -1.3736   -0.9785    0.7855 N.am    1  UNL1       -0.3103
     13 C          -2.6309   -0.7651    0.1999 C.2     1  UNL1        0.2446
     14 O          -2.9102    0.3949   -0.1634 O.2     1  UNL1       -0.2702
     15 C          -3.5934   -1.8587    0.0099 C.ar    1  UNL1        0.0485
     16 C          -3.0881   -3.0559   -0.4204 C.ar    1  UNL1       -0.0464
     17 C          -3.9329   -4.1370   -0.6233 C.ar    1  UNL1       -0.0257
     18 C          -5.2917   -3.9786   -0.3821 C.ar    1  UNL1        0.1240
     19 F          -6.1710   -5.0041   -0.5641 F       1  UNL1       -0.2055
     20 C          -5.7776   -2.7725    0.0476 C.ar    1  UNL1       -0.0141
     21 C          -4.9260   -1.6731    0.2556 C.ar    1  UNL1        0.0696
     22 C          -5.4740   -0.3686    0.7214 C.3     1  UNL1        0.4182
     23 F          -4.9220    0.0361    1.9222 F       1  UNL1       -0.1659
     24 F          -6.8316   -0.6016    1.0093 F       1  UNL1       -0.1659
     25 F          -5.4722    0.6036   -0.2470 F       1  UNL1       -0.1659
     26 C          -0.3908    1.3804   -0.9025 C.2     1  UNL1        0.2235
     27 O          -0.6869    0.9357   -2.0787 O.2     1  UNL1       -0.2749
     28 N          -0.9084    2.6359   -0.5423 N.am    1  UNL1       -0.2966
     29 C          -0.7645    3.4050    0.6321 C.3     1  UNL1        0.0382
     30 C          -2.1876    3.8473    1.0326 C.3     1  UNL1        0.0635
     31 O          -2.5423    4.8243    0.1470 O.3     1  UNL1       -0.3767
     32 C          -2.2161    4.6375   -1.1568 C.3     1  UNL1        0.0635
     33 C          -1.7666    3.2962   -1.5619 C.3     1  UNL1        0.0382
     34 C           0.8707   -0.7239   -0.9653 C.3     1  UNL1       -0.0231
     35 C           2.1703   -0.5240   -1.6727 C.3     1  UNL1        0.0211
     36 H           7.5340   -1.9596    1.6652 H       1  UNL1        0.0230
     37 H           7.5098   -0.2365    1.2901 H       1  UNL1        0.0230
     38 H           8.3895   -1.3224    0.1681 H       1  UNL1        0.0230
     39 H           5.9846   -0.3868   -0.4094 H       1  UNL1        0.0279
     40 H           6.3471   -2.0980   -0.8273 H       1  UNL1        0.0279
     41 H           5.3981   -2.7043    1.4569 H       1  UNL1        0.0515
     42 H           5.0246   -1.0020    1.7337 H       1  UNL1        0.0515
     43 H           3.8187    1.3586    0.0865 H       1  UNL1        0.0444
     44 H           3.2114    0.2416    1.3064 H       1  UNL1        0.0444
     45 H           1.7426    2.2251   -0.2538 H       1  UNL1        0.0289
     46 H           1.4438    1.6061    1.3868 H       1  UNL1        0.0289
     47 H          -0.7159    0.7020    1.7108 H       1  UNL1        0.0472
     48 H           0.4924   -0.6666    1.6838 H       1  UNL1        0.0472
     49 H          -1.2317   -2.0141    1.0925 H       1  UNL1        0.1490
     50 H          -2.0291   -3.1579   -0.6000 H       1  UNL1        0.0626
     51 H          -3.5485   -5.0689   -0.9584 H       1  UNL1        0.0646
     52 H          -6.8149   -2.6260    0.2386 H       1  UNL1        0.0652
     53 H          -0.2545    4.4065    0.4302 H       1  UNL1        0.0487
     54 H          -0.3591    2.9941    1.5326 H       1  UNL1        0.0487
     55 H          -2.8686    2.9991    1.0213 H       1  UNL1        0.0575
     56 H          -2.0764    4.3194    2.0320 H       1  UNL1        0.0575
     57 H          -3.1319    4.8898   -1.7693 H       1  UNL1        0.0575
     58 H          -1.4518    5.3887   -1.4476 H       1  UNL1        0.0575
     59 H          -1.1755    3.2874   -2.4901 H       1  UNL1        0.0487
     60 H          -2.6255    2.6133   -1.6949 H       1  UNL1        0.0487
     61 H           0.8982   -1.6592   -0.4035 H       1  UNL1        0.0289
     62 H           0.0873   -0.8160   -1.7654 H       1  UNL1        0.0289
     63 H           2.2122    0.3773   -2.2847 H       1  UNL1        0.0444
     64 H           2.4018   -1.4480   -2.2413 H       1  UNL1        0.0444
@<TRIPOS>BOND
     1     1     2    1
     2     2     3    1
     3     3     4    1
     4     4     5    2
     5     4     6    2
     6     4     7    1
     7     7     8    1
     8     8     9    1
     9     9    10    1
    10    10    11    1
    11    11    12    1
    12    12    13   am
    13    13    14    2
    14    13    15    1
    15    15    16   ar
    16    16    17   ar
    17    17    18   ar
    18    18    19    1
    19    18    20   ar
    20    20    21   ar
    21    21    22    1
    22    22    23    1
    23    22    24    1
    24    22    25    1
    25    10    26    1
    26    26    27    2
    27    26    28   am
    28    28    29    1
    29    29    30    1
    30    30    31    1
    31    31    32    1
    32    32    33    1
    33    10    34    1
    34    34    35    1
    35    35     7    1
    36    21    15   ar
    37    33    28    1
    38     1    36    1
    39     1    37    1
    40     1    38    1
    41     2    39    1
    42     2    40    1
    43     3    41    1
    44     3    42    1
    45     8    43    1
    46     8    44    1
    47     9    45    1
    48     9    46    1
    49    11    47    1
    50    11    48    1
    51    12    49    1
    52    16    50    1
    53    17    51    1
    54    20    52    1
    55    29    53    1
    56    29    54    1
    57    30    55    1
    58    30    56    1
    59    32    57    1
    60    32    58    1
    61    33    59    1
    62    33    60    1
    63    34    61    1
    64    34    62    1
    65    35    63    1
    66    35    64    1
