
     RDKit          3D

 44 46  0  0  0  0  0  0  0  0999 V2000
   -7.9824    0.6548    0.4643 C   0  0  0  0  0  0  0  0  0  0  0  0
   -6.6429   -0.0100    0.4841 C   0  0  0  0  0  0  0  0  0  0  0  0
   -6.1891   -0.3760    1.5985 O   0  0  0  0  0  0  0  0  0  0  0  0
   -5.9927   -0.1732   -0.7610 N   0  0  0  0  0  0  0  0  0  0  0  0
   -4.6928   -0.8098   -0.8095 C   0  0  0  0  0  0  0  0  0  0  0  0
   -3.6486   -0.0572    0.0108 C   0  0  1  0  0  0  0  0  0  0  0  0
   -2.3170   -0.7130   -0.2688 C   0  0  0  0  0  0  0  0  0  0  0  0
   -1.3563    0.3643   -0.3858 N   0  0  0  0  0  0  0  0  0  0  0  0
   -2.1221    1.5288   -0.5557 C   0  0  0  0  0  0  0  0  0  0  0  0
   -1.7121    2.6792   -0.7687 O   0  0  0  0  0  0  0  0  0  0  0  0
   -3.4797    1.2591   -0.4568 O   0  0  0  0  0  0  0  0  0  0  0  0
    0.0459    0.2051   -0.3313 C   0  0  0  0  0  0  0  0  0  0  0  0
    0.9384    1.2492   -0.4452 C   0  0  0  0  0  0  0  0  0  0  0  0
    2.3192    1.0735   -0.3892 C   0  0  0  0  0  0  0  0  0  0  0  0
    3.1214    2.1826   -0.5137 F   0  0  0  0  0  0  0  0  0  0  0  0
    2.8573   -0.1686   -0.2152 C   0  0  0  0  0  0  0  0  0  0  0  0
    1.9740   -1.2320   -0.0986 C   0  0  0  0  0  0  0  0  0  0  0  0
    0.6229   -1.0352   -0.1566 C   0  0  0  0  0  0  0  0  0  0  0  0
    4.2696   -0.2465   -0.1710 N   0  0  0  0  0  0  0  0  0  0  0  0
    4.9386    0.5120    0.8917 C   0  0  0  0  0  0  0  0  0  0  0  0
    6.3095   -0.0870    1.1043 C   0  0  0  0  0  0  0  0  0  0  0  0
    7.1151    0.0320   -0.0206 O   0  0  0  0  0  0  0  0  0  0  0  0
    6.3905   -0.0147   -1.2047 C   0  0  0  0  0  0  0  0  0  0  0  0
    5.2025   -0.9689   -1.0210 C   0  0  0  0  0  0  0  0  0  0  0  0
   -8.7301   -0.1151    0.2666 H   0  0  0  0  0  0  0  0  0  0  0  0
   -8.1338    1.1922    1.4248 H   0  0  0  0  0  0  0  0  0  0  0  0
   -7.9860    1.4245   -0.3431 H   0  0  0  0  0  0  0  0  0  0  0  0
   -6.4298    0.1577   -1.6639 H   0  0  0  0  0  0  0  0  0  0  0  0
   -4.2918   -0.8577   -1.8287 H   0  0  0  0  0  0  0  0  0  0  0  0
   -4.7520   -1.8264   -0.3570 H   0  0  0  0  0  0  0  0  0  0  0  0
   -3.9264   -0.1068    1.0770 H   0  0  0  0  0  0  0  0  0  0  0  0
   -2.3138   -1.2919   -1.2074 H   0  0  0  0  0  0  0  0  0  0  0  0
   -2.0795   -1.3538    0.5899 H   0  0  0  0  0  0  0  0  0  0  0  0
    0.5750    2.2577   -0.5847 H   0  0  0  0  0  0  0  0  0  0  0  0
    2.4406   -2.2071    0.0391 H   0  0  0  0  0  0  0  0  0  0  0  0
    0.0170   -1.9381   -0.0541 H   0  0  0  0  0  0  0  0  0  0  0  0
    5.0058    1.5801    0.6745 H   0  0  0  0  0  0  0  0  0  0  0  0
    4.3645    0.3360    1.8257 H   0  0  0  0  0  0  0  0  0  0  0  0
    6.7827    0.5221    1.9055 H   0  0  0  0  0  0  0  0  0  0  0  0
    6.1994   -1.1109    1.4738 H   0  0  0  0  0  0  0  0  0  0  0  0
    7.0074   -0.3579   -2.0368 H   0  0  0  0  0  0  0  0  0  0  0  0
    5.9372    0.9788   -1.4139 H   0  0  0  0  0  0  0  0  0  0  0  0
    5.5634   -1.8698   -0.4953 H   0  0  0  0  0  0  0  0  0  0  0  0
    4.7811   -1.2623   -1.9890 H   0  0  0  0  0  0  0  0  0  0  0  0
  1  2  1  0
  2  3  2  0
  2  4  1  0
  4  5  1  0
  5  6  1  0
  6  7  1  0
  7  8  1  0
  8  9  1  0
  9 10  2  0
  9 11  1  0
  8 12  1  0
 12 13  2  0
 13 14  1  0
 14 15  1  0
 14 16  2  0
 16 17  1  0
 17 18  2  0
 16 19  1  0
 19 20  1  0
 20 21  1  0
 21 22  1  0
 22 23  1  0
 23 24  1  0
 11  6  1  0
 18 12  1  0
 24 19  1  0
  1 25  1  0
  1 26  1  0
  1 27  1  0
  4 28  1  0
  5 29  1  0
  5 30  1  0
  6 31  1  1
  7 32  1  0
  7 33  1  0
 13 34  1  0
 17 35  1  0
 18 36  1  0
 20 37  1  0
 20 38  1  0
 21 39  1  0
 21 40  1  0
 23 41  1  0
 23 42  1  0
 24 43  1  0
 24 44  1  0
M  END
$$$$
