@<TRIPOS>MOLECULE
*****
 44 46 0 0 0
SMALL
GASTEIGER

@<TRIPOS>ATOM
      1 C          -7.9824    0.6548    0.4643 C.3     1  UNL1        0.0121
      2 C          -6.6429   -0.0100    0.4841 C.2     1  UNL1        0.2100
      3 O          -6.1891   -0.3760    1.5985 O.2     1  UNL1       -0.2761
      4 N          -5.9927   -0.1732   -0.7610 N.am    1  UNL1       -0.3120
      5 C          -4.6928   -0.8098   -0.8095 C.3     1  UNL1        0.0503
      6 C          -3.6486   -0.0572    0.0108 C.3     1  UNL1        0.1361
      7 C          -2.3170   -0.7130   -0.2688 C.3     1  UNL1        0.0616
      8 N          -1.3563    0.3643   -0.3858 N.am    1  UNL1       -0.2336
      9 C          -2.1221    1.5288   -0.5557 C.2     1  UNL1        0.4077
     10 O          -1.7121    2.6792   -0.7687 O.2     1  UNL1       -0.2259
     11 O          -3.4797    1.2591   -0.4568 O.3     1  UNL1       -0.4436
     12 C           0.0459    0.2051   -0.3313 C.ar    1  UNL1        0.0424
     13 C           0.9384    1.2492   -0.4452 C.ar    1  UNL1       -0.0031
     14 C           2.3192    1.0735   -0.3892 C.ar    1  UNL1        0.1461
     15 F           3.1214    2.1826   -0.5137 F       1  UNL1       -0.2035
     16 C           2.8573   -0.1686   -0.2152 C.ar    1  UNL1        0.0656
     17 C           1.9740   -1.2320   -0.0986 C.ar    1  UNL1       -0.0361
     18 C           0.6229   -1.0352   -0.1566 C.ar    1  UNL1       -0.0382
     19 N           4.2696   -0.2465   -0.1710 N.pl3   1  UNL1       -0.3233
     20 C           4.9386    0.5120    0.8917 C.3     1  UNL1        0.0358
     21 C           6.3095   -0.0870    1.1043 C.3     1  UNL1        0.0634
     22 O           7.1151    0.0320   -0.0206 O.3     1  UNL1       -0.3767
     23 C           6.3905   -0.0147   -1.2047 C.3     1  UNL1        0.0634
     24 C           5.2025   -0.9689   -1.0210 C.3     1  UNL1        0.0358
     25 H          -8.7301   -0.1151    0.2666 H       1  UNL1        0.0322
     26 H          -8.1338    1.1922    1.4248 H       1  UNL1        0.0322
     27 H          -7.9860    1.4245   -0.3431 H       1  UNL1        0.0322
     28 H          -6.4298    0.1577   -1.6639 H       1  UNL1        0.1488
     29 H          -4.2918   -0.8577   -1.8287 H       1  UNL1        0.0499
     30 H          -4.7520   -1.8264   -0.3570 H       1  UNL1        0.0499
     31 H          -3.9264   -0.1068    1.0770 H       1  UNL1        0.0766
     32 H          -2.3138   -1.2919   -1.2074 H       1  UNL1        0.0507
     33 H          -2.0795   -1.3538    0.5899 H       1  UNL1        0.0507
     34 H           0.5750    2.2577   -0.5847 H       1  UNL1        0.0665
     35 H           2.4406   -2.2071    0.0391 H       1  UNL1        0.0637
     36 H           0.0170   -1.9381   -0.0541 H       1  UNL1        0.0637
     37 H           5.0058    1.5801    0.6745 H       1  UNL1        0.0486
     38 H           4.3645    0.3360    1.8257 H       1  UNL1        0.0486
     39 H           6.7827    0.5221    1.9055 H       1  UNL1        0.0575
     40 H           6.1994   -1.1109    1.4738 H       1  UNL1        0.0575
     41 H           7.0074   -0.3579   -2.0368 H       1  UNL1        0.0575
     42 H           5.9372    0.9788   -1.4139 H       1  UNL1        0.0575
     43 H           5.5634   -1.8698   -0.4953 H       1  UNL1        0.0486
     44 H           4.7811   -1.2623   -1.9890 H       1  UNL1        0.0486
@<TRIPOS>BOND
     1     1     2    1
     2     2     3    2
     3     2     4   am
     4     4     5    1
     5     5     6    1
     6     6     7    1
     7     7     8    1
     8     8     9   am
     9     9    10    2
    10     9    11    1
    11     8    12    1
    12    12    13   ar
    13    13    14   ar
    14    14    15    1
    15    14    16   ar
    16    16    17   ar
    17    17    18   ar
    18    16    19    1
    19    19    20    1
    20    20    21    1
    21    21    22    1
    22    22    23    1
    23    23    24    1
    24    11     6    1
    25    18    12   ar
    26    24    19    1
    27     1    25    1
    28     1    26    1
    29     1    27    1
    30     4    28    1
    31     5    29    1
    32     5    30    1
    33     6    31    1
    34     7    32    1
    35     7    33    1
    36    13    34    1
    37    17    35    1
    38    18    36    1
    39    20    37    1
    40    20    38    1
    41    21    39    1
    42    21    40    1
    43    23    41    1
    44    23    42    1
    45    24    43    1
    46    24    44    1
