@<TRIPOS>MOLECULE
*****
 41 44 0 0 0
SMALL
GASTEIGER

@<TRIPOS>ATOM
      1 F          -3.2250   -3.0148   -2.9131 F       1  UNL1       -0.2490
      2 C          -2.3842   -3.2323   -1.8538 C.3     1  UNL1        0.0918
      3 C          -2.7955   -2.3071   -0.7168 C.3     1  UNL1       -0.0065
      4 C          -1.8917   -2.5111    0.4801 C.3     1  UNL1        0.0271
      5 N          -0.5135   -2.2401    0.1790 N.ar    1  UNL1       -0.3295
      6 C           0.3966   -3.1500   -0.2809 C.ar    1  UNL1        0.0971
      7 N           1.5815   -2.5287   -0.4488 N.ar    1  UNL1       -0.2351
      8 C           1.4128   -1.2238   -0.0922 C.ar    1  UNL1        0.0968
      9 C           2.4554   -0.2067   -0.1261 C.ar    1  UNL1        0.0040
     10 C           2.8505    0.4068    1.0494 C.ar    1  UNL1       -0.0497
     11 C           3.8471    1.3830    1.0475 C.ar    1  UNL1       -0.0244
     12 C           4.4531    1.7506   -0.1307 C.ar    1  UNL1        0.1417
     13 F           5.4251    2.6897   -0.1976 F       1  UNL1       -0.2040
     14 C           4.0640    1.1451   -1.2968 C.ar    1  UNL1        0.0767
     15 CL          4.7920    1.5559   -2.8589 Cl      1  UNL1       -0.0806
     16 C           3.0708    0.1739   -1.2837 C.ar    1  UNL1       -0.0313
     17 C           0.1037   -1.0563    0.2970 C.ar    1  UNL1        0.0778
     18 C          -0.4955    0.1746    0.7487 C.ar    1  UNL1        0.0172
     19 C          -0.9758    0.2757    2.0384 C.ar    1  UNL1       -0.0477
     20 C          -1.5474    1.4523    2.4581 C.ar    1  UNL1       -0.0182
     21 C          -1.6508    2.5406    1.6100 C.ar    1  UNL1        0.1375
     22 N          -2.1495    3.7590    1.7730 N.ar    1  UNL1       -0.2361
     23 C          -2.0117    4.4541    0.6385 C.ar    1  UNL1        0.0464
     24 C          -1.4022    3.6119   -0.2438 C.ar    1  UNL1        0.0293
     25 N          -1.1877    2.4481    0.3613 N.ar    1  UNL1       -0.3060
     26 C          -0.6191    1.2852   -0.0639 C.ar    1  UNL1        0.0204
     27 H          -1.3706   -2.9084   -2.1576 H       1  UNL1        0.0615
     28 H          -2.3769   -4.2886   -1.5038 H       1  UNL1        0.0615
     29 H          -2.7725   -1.2838   -1.1030 H       1  UNL1        0.0307
     30 H          -3.8221   -2.6180   -0.4315 H       1  UNL1        0.0307
     31 H          -2.0099   -3.6001    0.7592 H       1  UNL1        0.0493
     32 H          -2.2854   -1.9541    1.3527 H       1  UNL1        0.0493
     33 H           0.2331   -4.2001   -0.4877 H       1  UNL1        0.1029
     34 H           2.3963    0.1430    1.9911 H       1  UNL1        0.0625
     35 H           4.1638    1.8707    1.9700 H       1  UNL1        0.0647
     36 H           2.7716   -0.2982   -2.2099 H       1  UNL1        0.0640
     37 H          -0.9074   -0.5672    2.7327 H       1  UNL1        0.0626
     38 H          -1.9256    1.5116    3.4946 H       1  UNL1        0.0654
     39 H          -2.3067    5.4731    0.4211 H       1  UNL1        0.0845
     40 H          -1.1393    3.8464   -1.2551 H       1  UNL1        0.0829
     41 H          -0.2514    1.2382   -1.0821 H       1  UNL1        0.0820
@<TRIPOS>BOND
     1     1     2    1
     2     2     3    1
     3     3     4    1
     4     4     5    1
     5     5     6   ar
     6     6     7   ar
     7     7     8   ar
     8     8     9    1
     9     9    10   ar
    10    10    11   ar
    11    11    12   ar
    12    12    13    1
    13    12    14   ar
    14    14    15    1
    15    14    16   ar
    16     8    17   ar
    17    17    18    1
    18    18    19   ar
    19    19    20   ar
    20    20    21   ar
    21    21    22   ar
    22    22    23   ar
    23    23    24   ar
    24    24    25   ar
    25    25    26   ar
    26    17     5   ar
    27    26    18   ar
    28    16     9   ar
    29    25    21   ar
    30     2    27    1
    31     2    28    1
    32     3    29    1
    33     3    30    1
    34     4    31    1
    35     4    32    1
    36     6    33    1
    37    10    34    1
    38    11    35    1
    39    16    36    1
    40    19    37    1
    41    20    38    1
    42    23    39    1
    43    24    40    1
    44    26    41    1
