
     RDKit          3D

 41 44  0  0  0  0  0  0  0  0999 V2000
   -3.2250   -3.0148   -2.9131 F   0  0  0  0  0  0  0  0  0  0  0  0
   -2.3842   -3.2323   -1.8538 C   0  0  0  0  0  0  0  0  0  0  0  0
   -2.7955   -2.3071   -0.7168 C   0  0  0  0  0  0  0  0  0  0  0  0
   -1.8917   -2.5111    0.4801 C   0  0  0  0  0  0  0  0  0  0  0  0
   -0.5135   -2.2401    0.1790 N   0  0  0  0  0  0  0  0  0  0  0  0
    0.3966   -3.1500   -0.2809 C   0  0  0  0  0  0  0  0  0  0  0  0
    1.5815   -2.5287   -0.4488 N   0  0  0  0  0  0  0  0  0  0  0  0
    1.4128   -1.2238   -0.0922 C   0  0  0  0  0  0  0  0  0  0  0  0
    2.4554   -0.2067   -0.1261 C   0  0  0  0  0  0  0  0  0  0  0  0
    2.8505    0.4068    1.0494 C   0  0  0  0  0  0  0  0  0  0  0  0
    3.8471    1.3830    1.0475 C   0  0  0  0  0  0  0  0  0  0  0  0
    4.4531    1.7506   -0.1307 C   0  0  0  0  0  0  0  0  0  0  0  0
    5.4251    2.6897   -0.1976 F   0  0  0  0  0  0  0  0  0  0  0  0
    4.0640    1.1451   -1.2968 C   0  0  0  0  0  0  0  0  0  0  0  0
    4.7920    1.5559   -2.8589 Cl  0  0  0  0  0  0  0  0  0  0  0  0
    3.0708    0.1739   -1.2837 C   0  0  0  0  0  0  0  0  0  0  0  0
    0.1037   -1.0563    0.2970 C   0  0  0  0  0  0  0  0  0  0  0  0
   -0.4955    0.1746    0.7487 C   0  0  0  0  0  0  0  0  0  0  0  0
   -0.9758    0.2757    2.0384 C   0  0  0  0  0  0  0  0  0  0  0  0
   -1.5474    1.4523    2.4581 C   0  0  0  0  0  0  0  0  0  0  0  0
   -1.6508    2.5406    1.6100 C   0  0  0  0  0  0  0  0  0  0  0  0
   -2.1495    3.7590    1.7730 N   0  0  0  0  0  0  0  0  0  0  0  0
   -2.0117    4.4541    0.6385 C   0  0  0  0  0  0  0  0  0  0  0  0
   -1.4022    3.6119   -0.2438 C   0  0  0  0  0  0  0  0  0  0  0  0
   -1.1877    2.4481    0.3613 N   0  0  0  0  0  0  0  0  0  0  0  0
   -0.6191    1.2852   -0.0639 C   0  0  0  0  0  0  0  0  0  0  0  0
   -1.3706   -2.9084   -2.1576 H   0  0  0  0  0  0  0  0  0  0  0  0
   -2.3769   -4.2886   -1.5038 H   0  0  0  0  0  0  0  0  0  0  0  0
   -2.7725   -1.2838   -1.1030 H   0  0  0  0  0  0  0  0  0  0  0  0
   -3.8221   -2.6180   -0.4315 H   0  0  0  0  0  0  0  0  0  0  0  0
   -2.0099   -3.6001    0.7592 H   0  0  0  0  0  0  0  0  0  0  0  0
   -2.2854   -1.9541    1.3527 H   0  0  0  0  0  0  0  0  0  0  0  0
    0.2331   -4.2001   -0.4877 H   0  0  0  0  0  0  0  0  0  0  0  0
    2.3963    0.1430    1.9911 H   0  0  0  0  0  0  0  0  0  0  0  0
    4.1638    1.8707    1.9700 H   0  0  0  0  0  0  0  0  0  0  0  0
    2.7716   -0.2982   -2.2099 H   0  0  0  0  0  0  0  0  0  0  0  0
   -0.9074   -0.5672    2.7327 H   0  0  0  0  0  0  0  0  0  0  0  0
   -1.9256    1.5116    3.4946 H   0  0  0  0  0  0  0  0  0  0  0  0
   -2.3067    5.4731    0.4211 H   0  0  0  0  0  0  0  0  0  0  0  0
   -1.1393    3.8464   -1.2551 H   0  0  0  0  0  0  0  0  0  0  0  0
   -0.2514    1.2382   -1.0821 H   0  0  0  0  0  0  0  0  0  0  0  0
  1  2  1  0
  2  3  1  0
  3  4  1  0
  4  5  1  0
  5  6  1  0
  6  7  2  0
  7  8  1  0
  8  9  1  0
  9 10  2  0
 10 11  1  0
 11 12  2  0
 12 13  1  0
 12 14  1  0
 14 15  1  0
 14 16  2  0
  8 17  2  0
 17 18  1  0
 18 19  1  0
 19 20  2  0
 20 21  1  0
 21 22  2  0
 22 23  1  0
 23 24  2  0
 24 25  1  0
 25 26  1  0
 17  5  1  0
 26 18  2  0
 16  9  1  0
 25 21  1  0
  2 27  1  0
  2 28  1  0
  3 29  1  0
  3 30  1  0
  4 31  1  0
  4 32  1  0
  6 33  1  0
 10 34  1  0
 11 35  1  0
 16 36  1  0
 19 37  1  0
 20 38  1  0
 23 39  1  0
 24 40  1  0
 26 41  1  0
M  END
$$$$
