@<TRIPOS>MOLECULE
*****
 22 21 0 0 0
SMALL
GASTEIGER

@<TRIPOS>ATOM
      1 C          -2.3986    0.6662   -0.6423 C.3     1  UNL1       -0.0653
      2 C          -1.4650   -0.4333   -1.0677 C.3     1  UNL1       -0.0558
      3 C          -0.8087   -1.0693    0.1494 C.3     1  UNL1       -0.0514
      4 C          -0.0237   -0.0732    0.9255 C.3     1  UNL1       -0.0274
      5 CA          1.0886    0.5821    0.1616 C.3     1  UNL1        0.1032
      6 N           1.7089    1.5104    1.1230 N.3     1  UNL1       -0.3184
      7 C           2.1469   -0.4177   -0.1445 C.2     1  UNL1        0.3217
      8 O           2.7220   -1.5265   -0.7369 O.3     1  UNL1       -0.4795
      9 OXT         3.2479   -0.2542    0.4439 O.2     1  UNL1       -0.2493
     10 H          -3.1777    0.8169   -1.4103 H       1  UNL1        0.0230
     11 H          -2.9020    0.3501    0.2928 H       1  UNL1        0.0230
     12 H          -1.8645    1.6412   -0.5584 H       1  UNL1        0.0230
     13 H          -0.7238    0.0209   -1.7565 H       1  UNL1        0.0263
     14 H          -2.0771   -1.1920   -1.5852 H       1  UNL1        0.0263
     15 H          -0.2900   -2.0035   -0.1071 H       1  UNL1        0.0266
     16 H          -1.6550   -1.3858    0.8141 H       1  UNL1        0.0266
     17 H           0.4153   -0.5630    1.8112 H       1  UNL1        0.0285
     18 H          -0.7380    0.6854    1.3043 H       1  UNL1        0.0285
     19 HA          0.7910    1.1203   -0.7348 H       1  UNL1        0.0574
     20 H1          1.9226    0.8989    1.9679 H       1  UNL1        0.1190
     21 H2          0.9382    2.1468    1.4266 H       1  UNL1        0.1190
     22 H           3.1424   -1.5206   -1.6764 H       1  UNL1        0.2951
@<TRIPOS>BOND
     1     1     2    1
     2     2     3    1
     3     3     4    1
     4     4     5    1
     5     5     6    1
     6     5     7    1
     7     7     8    1
     8     7     9    2
     9     1    10    1
    10     1    11    1
    11     1    12    1
    12     2    13    1
    13     2    14    1
    14     3    15    1
    15     3    16    1
    16     4    17    1
    17     4    18    1
    18     5    19    1
    19     6    20    1
    20     6    21    1
    21     8    22    1
