@<TRIPOS>MOLECULE
*****
 40 43 0 0 0
SMALL
GASTEIGER

@<TRIPOS>ATOM
      1 C           7.6350    0.3013   -0.3054 C.3     1  UNL1       -0.0039
      2 C           6.2583   -0.2045    0.1466 C.ar    1  UNL1        0.1359
      3 N           6.1241   -1.4254    0.6802 N.ar    1  UNL1       -0.1939
      4 S           4.3051   -1.4217    0.9916 S.2     1  UNL1        0.0369
      5 C           4.0398    0.1385    0.3857 C.ar    1  UNL1        0.1652
      6 C           2.7009    0.8595    0.3088 C.ar    1  UNL1        0.1910
      7 N           2.4315    2.1251    0.6079 N.ar    1  UNL1       -0.1269
      8 N           1.1353    2.3782    0.4167 N.ar    1  UNL1       -0.1320
      9 C           0.5603    1.2297   -0.0211 C.ar    1  UNL1        0.1542
     10 N           1.5464    0.3251   -0.0737 N.ar    1  UNL1       -0.3062
     11 C           1.2607   -1.0506   -0.4944 C.3     1  UNL1        0.0423
     12 C          -0.0365   -1.4842    0.1449 C.3     1  UNL1        0.0338
     13 N          -1.1067   -0.4840   -0.0103 N.am    1  UNL1       -0.2860
     14 C          -2.3885   -0.9578    0.2816 C.2     1  UNL1        0.2474
     15 O          -2.3772   -2.2564    0.6409 O.2     1  UNL1       -0.2700
     16 C          -3.7050   -0.4361    0.2975 C.ar    1  UNL1        0.0423
     17 C          -4.0903    0.7131   -0.3603 C.ar    1  UNL1       -0.0142
     18 C          -5.4087    1.1056   -0.2826 C.ar    1  UNL1        0.1268
     19 F          -5.7602    2.2513   -0.9412 F       1  UNL1       -0.2054
     20 C          -6.3660    0.3984    0.4289 C.ar    1  UNL1        0.0088
     21 C          -6.0108   -0.7534    1.0978 C.ar    1  UNL1        0.1268
     22 F          -6.9339   -1.4650    1.7985 F       1  UNL1       -0.2054
     23 C          -4.7024   -1.1369    1.0161 C.ar    1  UNL1       -0.0142
     24 C          -0.8275    0.8310   -0.4424 C.3     1  UNL1        0.0834
     25 C          -0.9106    0.9705   -1.9623 C.3     1  UNL1       -0.0393
     26 N           5.1813    0.5347    0.0228 N.ar    1  UNL1       -0.2199
     27 H           7.4833    1.0652   -1.1015 H       1  UNL1        0.0308
     28 H           8.1262    0.8304    0.5383 H       1  UNL1        0.0308
     29 H           8.2130   -0.5054   -0.7424 H       1  UNL1        0.0308
     30 H           1.2951   -1.1822   -1.5881 H       1  UNL1        0.0508
     31 H           2.0347   -1.7599   -0.0882 H       1  UNL1        0.0508
     32 H           0.1322   -1.6932    1.2392 H       1  UNL1        0.0482
     33 H          -0.3459   -2.4496   -0.2998 H       1  UNL1        0.0482
     34 H          -3.4078    1.3163   -0.9526 H       1  UNL1        0.0654
     35 H          -7.4030    0.7175    0.4800 H       1  UNL1        0.0675
     36 H          -4.4611   -2.0551    1.5673 H       1  UNL1        0.0654
     37 H          -1.4535    1.6356   -0.0124 H       1  UNL1        0.0579
     38 H           0.0076    0.6094   -2.4635 H       1  UNL1        0.0252
     39 H          -1.7274    0.3425   -2.3077 H       1  UNL1        0.0252
     40 H          -1.0475    2.0428   -2.1693 H       1  UNL1        0.0252
@<TRIPOS>BOND
     1     1     2    1
     2     2     3   ar
     3     3     4   ar
     4     4     5   ar
     5     5     6    1
     6     6     7   ar
     7     7     8   ar
     8     8     9   ar
     9     9    10   ar
    10    10    11    1
    11    11    12    1
    12    12    13    1
    13    13    14   am
    14    14    15    2
    15    14    16    1
    16    16    17   ar
    17    17    18   ar
    18    18    19    1
    19    18    20   ar
    20    20    21   ar
    21    21    22    1
    22    21    23   ar
    23    13    24    1
    24    24    25    1
    25     5    26   ar
    26    26     2   ar
    27    10     6   ar
    28    23    16   ar
    29    24     9    1
    30     1    27    1
    31     1    28    1
    32     1    29    1
    33    11    30    1
    34    11    31    1
    35    12    32    1
    36    12    33    1
    37    17    34    1
    38    20    35    1
    39    23    36    1
    40    24    37    1
    41    25    38    1
    42    25    39    1
    43    25    40    1
