@<TRIPOS>MOLECULE
*****
 75 78 0 0 0
SMALL
GASTEIGER

@<TRIPOS>ATOM
      1 C           6.3468    3.8119    2.9495 C.3     1  UNL1        0.0124
      2 C           6.0233    3.1429    1.6386 C.2     1  UNL1        0.2125
      3 O           6.5701    3.5782    0.5888 O.2     1  UNL1       -0.2759
      4 N           5.1403    2.0597    1.5510 N.am    1  UNL1       -0.3017
      5 C           4.8569    1.4470    0.2760 C.3     1  UNL1        0.0153
      6 C           3.4147    0.9873    0.1915 C.3     1  UNL1       -0.0260
      7 C           2.9511    0.2651    1.4042 C.3     1  UNL1        0.0386
      8 C           2.3878   -1.0738    1.1472 C.2     1  UNL1        0.2188
      9 O           2.9848   -2.0697    1.6216 O.2     1  UNL1       -0.2753
     10 N           1.2043   -1.2872    0.3909 N.am    1  UNL1       -0.2999
     11 C           0.6421   -2.5872    0.1195 C.3     1  UNL1        0.0223
     12 C          -0.3124   -2.4622   -1.0132 C.3     1  UNL1        0.0127
     13 C           0.1808   -3.2640   -2.1741 C.ar    1  UNL1       -0.0389
     14 C           1.1739   -2.8349   -3.0100 C.ar    1  UNL1       -0.0553
     15 C           1.6274   -3.6080   -4.0797 C.ar    1  UNL1       -0.0262
     16 C           1.0837   -4.8390   -4.3290 C.ar    1  UNL1        0.1237
     17 F           1.5001   -5.6254   -5.3652 F       1  UNL1       -0.2055
     18 C           0.0822   -5.2911   -3.4992 C.ar    1  UNL1       -0.0233
     19 C          -0.3628   -4.5089   -2.4329 C.ar    1  UNL1       -0.0442
     20 C          -1.4435   -5.0032   -1.5386 C.3     1  UNL1       -0.0394
     21 C          -0.4203   -1.0033   -1.2655 C.3     1  UNL1        0.0597
     22 C          -1.8224   -0.5948   -1.3917 C.2     1  UNL1        0.2208
     23 O          -2.1337   -0.0197   -2.5216 O.2     1  UNL1       -0.2752
     24 N          -2.8541   -0.7467   -0.4567 N.am    1  UNL1       -0.2999
     25 C          -2.6816   -1.3716    0.8155 C.3     1  UNL1        0.0035
     26 C          -4.2176   -0.2435   -0.7642 C.3     1  UNL1        0.0394
     27 C          -4.3835    1.1245   -0.2239 C.ar    1  UNL1       -0.0291
     28 C          -4.0419    2.2261   -0.9508 C.ar    1  UNL1       -0.0454
     29 C          -4.2090    3.5076   -0.4366 C.ar    1  UNL1        0.0556
     30 C          -3.8165    4.6616   -1.2765 C.3     1  UNL1        0.4174
     31 F          -4.5458    5.7666   -0.9256 F       1  UNL1       -0.1659
     32 F          -2.4512    4.8645   -1.0428 F       1  UNL1       -0.1659
     33 F          -3.9756    4.3240   -2.5977 F       1  UNL1       -0.1659
     34 C          -4.7225    3.6667    0.8136 C.ar    1  UNL1       -0.0385
     35 C          -5.0920    2.5789    1.6072 C.ar    1  UNL1        0.0556
     36 C          -5.6506    2.7812    2.9699 C.3     1  UNL1        0.4174
     37 F          -4.6424    2.6141    3.8989 F       1  UNL1       -0.1659
     38 F          -6.6439    1.8346    3.1698 F       1  UNL1       -0.1659
     39 F          -6.1476    4.0661    3.0784 F       1  UNL1       -0.1659
     40 C          -4.9066    1.3392    1.0524 C.ar    1  UNL1       -0.0454
     41 C           0.3680   -0.2923   -0.2162 C.3     1  UNL1        0.0264
     42 C           4.0866    0.1268    2.3895 C.3     1  UNL1       -0.0260
     43 C           4.5087    1.5582    2.7745 C.3     1  UNL1        0.0153
     44 H           6.8690    4.7435    2.7410 H       1  UNL1        0.0323
     45 H           6.9143    3.1030    3.5946 H       1  UNL1        0.0323
     46 H           5.3595    3.9776    3.4602 H       1  UNL1        0.0323
     47 H           5.0059    2.2066   -0.5081 H       1  UNL1        0.0465
     48 H           5.5647    0.6282    0.1015 H       1  UNL1        0.0465
     49 H           2.7507    1.8811   -0.0225 H       1  UNL1        0.0288
     50 H           3.3631    0.3691   -0.7381 H       1  UNL1        0.0288
     51 H           2.1245    0.8782    1.8767 H       1  UNL1        0.0395
     52 H           1.5075   -3.2438   -0.1737 H       1  UNL1        0.0471
     53 H           0.1868   -3.0216    1.0363 H       1  UNL1        0.0471
     54 H          -1.2846   -2.9112   -0.6575 H       1  UNL1        0.0372
     55 H           1.6431   -1.8727   -2.8504 H       1  UNL1        0.0621
     56 H           2.4140   -3.2236   -4.7097 H       1  UNL1        0.0646
     57 H          -0.3598   -6.2606   -3.6817 H       1  UNL1        0.0649
     58 H          -1.1104   -4.9327   -0.4827 H       1  UNL1        0.0278
     59 H          -1.7344   -6.0426   -1.8019 H       1  UNL1        0.0278
     60 H          -2.3322   -4.3524   -1.6512 H       1  UNL1        0.0278
     61 H           0.1150   -0.7878   -2.2623 H       1  UNL1        0.0416
     62 H          -3.2162   -0.7711    1.5986 H       1  UNL1        0.0429
     63 H          -1.6509   -1.4326    1.1663 H       1  UNL1        0.0429
     64 H          -3.0700   -2.4223    0.8137 H       1  UNL1        0.0429
     65 H          -4.3132   -0.2030   -1.8712 H       1  UNL1        0.0514
     66 H          -4.9824   -0.8938   -0.2908 H       1  UNL1        0.0514
     67 H          -3.6357    2.1310   -1.9533 H       1  UNL1        0.0626
     68 H          -4.8534    4.6560    1.2136 H       1  UNL1        0.0629
     69 H          -5.1916    0.4877    1.6388 H       1  UNL1        0.0626
     70 H           0.9767    0.5081   -0.7216 H       1  UNL1        0.0472
     71 H          -0.2451    0.2582    0.5086 H       1  UNL1        0.0472
     72 H           4.9687   -0.3020    1.8630 H       1  UNL1        0.0288
     73 H           3.8202   -0.4514    3.2901 H       1  UNL1        0.0288
     74 H           5.1765    1.5675    3.6342 H       1  UNL1        0.0465
     75 H           3.5637    2.1235    2.9028 H       1  UNL1        0.0465
@<TRIPOS>BOND
     1     1     2    1
     2     2     3    2
     3     2     4   am
     4     4     5    1
     5     5     6    1
     6     6     7    1
     7     7     8    1
     8     8     9    2
     9     8    10   am
    10    10    11    1
    11    11    12    1
    12    12    13    1
    13    13    14   ar
    14    14    15   ar
    15    15    16   ar
    16    16    17    1
    17    16    18   ar
    18    18    19   ar
    19    19    20    1
    20    12    21    1
    21    21    22    1
    22    22    23    2
    23    22    24   am
    24    24    25    1
    25    24    26    1
    26    26    27    1
    27    27    28   ar
    28    28    29   ar
    29    29    30    1
    30    30    31    1
    31    30    32    1
    32    30    33    1
    33    29    34   ar
    34    34    35   ar
    35    35    36    1
    36    36    37    1
    37    36    38    1
    38    36    39    1
    39    35    40   ar
    40    21    41    1
    41     7    42    1
    42    42    43    1
    43    43     4    1
    44    41    10    1
    45    19    13   ar
    46    40    27   ar
    47     1    44    1
    48     1    45    1
    49     1    46    1
    50     5    47    1
    51     5    48    1
    52     6    49    1
    53     6    50    1
    54     7    51    1
    55    11    52    1
    56    11    53    1
    57    12    54    1
    58    14    55    1
    59    15    56    1
    60    18    57    1
    61    20    58    1
    62    20    59    1
    63    20    60    1
    64    21    61    1
    65    25    62    1
    66    25    63    1
    67    25    64    1
    68    26    65    1
    69    26    66    1
    70    28    67    1
    71    34    68    1
    72    40    69    1
    73    41    70    1
    74    41    71    1
    75    42    72    1
    76    42    73    1
    77    43    74    1
    78    43    75    1
