
     RDKit          3D

 75 78  0  0  0  0  0  0  0  0999 V2000
    6.3468    3.8119    2.9495 C   0  0  0  0  0  0  0  0  0  0  0  0
    6.0233    3.1429    1.6386 C   0  0  0  0  0  0  0  0  0  0  0  0
    6.5701    3.5782    0.5888 O   0  0  0  0  0  0  0  0  0  0  0  0
    5.1403    2.0597    1.5510 N   0  0  0  0  0  0  0  0  0  0  0  0
    4.8569    1.4470    0.2760 C   0  0  0  0  0  0  0  0  0  0  0  0
    3.4147    0.9873    0.1915 C   0  0  0  0  0  0  0  0  0  0  0  0
    2.9511    0.2651    1.4042 C   0  0  0  0  0  0  0  0  0  0  0  0
    2.3878   -1.0738    1.1472 C   0  0  0  0  0  0  0  0  0  0  0  0
    2.9848   -2.0697    1.6216 O   0  0  0  0  0  0  0  0  0  0  0  0
    1.2043   -1.2872    0.3909 N   0  0  0  0  0  0  0  0  0  0  0  0
    0.6421   -2.5872    0.1195 C   0  0  0  0  0  0  0  0  0  0  0  0
   -0.3124   -2.4622   -1.0132 C   0  0  2  0  0  0  0  0  0  0  0  0
    0.1808   -3.2640   -2.1741 C   0  0  0  0  0  0  0  0  0  0  0  0
    1.1739   -2.8349   -3.0100 C   0  0  0  0  0  0  0  0  0  0  0  0
    1.6274   -3.6080   -4.0797 C   0  0  0  0  0  0  0  0  0  0  0  0
    1.0837   -4.8390   -4.3290 C   0  0  0  0  0  0  0  0  0  0  0  0
    1.5001   -5.6254   -5.3652 F   0  0  0  0  0  0  0  0  0  0  0  0
    0.0822   -5.2911   -3.4992 C   0  0  0  0  0  0  0  0  0  0  0  0
   -0.3628   -4.5089   -2.4329 C   0  0  0  0  0  0  0  0  0  0  0  0
   -1.4435   -5.0032   -1.5386 C   0  0  0  0  0  0  0  0  0  0  0  0
   -0.4203   -1.0033   -1.2655 C   0  0  1  0  0  0  0  0  0  0  0  0
   -1.8224   -0.5948   -1.3917 C   0  0  0  0  0  0  0  0  0  0  0  0
   -2.1337   -0.0197   -2.5216 O   0  0  0  0  0  0  0  0  0  0  0  0
   -2.8541   -0.7467   -0.4567 N   0  0  0  0  0  0  0  0  0  0  0  0
   -2.6816   -1.3716    0.8155 C   0  0  0  0  0  0  0  0  0  0  0  0
   -4.2176   -0.2435   -0.7642 C   0  0  0  0  0  0  0  0  0  0  0  0
   -4.3835    1.1245   -0.2239 C   0  0  0  0  0  0  0  0  0  0  0  0
   -4.0419    2.2261   -0.9508 C   0  0  0  0  0  0  0  0  0  0  0  0
   -4.2090    3.5076   -0.4366 C   0  0  0  0  0  0  0  0  0  0  0  0
   -3.8165    4.6616   -1.2765 C   0  0  0  0  0  0  0  0  0  0  0  0
   -4.5458    5.7666   -0.9256 F   0  0  0  0  0  0  0  0  0  0  0  0
   -2.4512    4.8645   -1.0428 F   0  0  0  0  0  0  0  0  0  0  0  0
   -3.9756    4.3240   -2.5977 F   0  0  0  0  0  0  0  0  0  0  0  0
   -4.7225    3.6667    0.8136 C   0  0  0  0  0  0  0  0  0  0  0  0
   -5.0920    2.5789    1.6072 C   0  0  0  0  0  0  0  0  0  0  0  0
   -5.6506    2.7812    2.9699 C   0  0  0  0  0  0  0  0  0  0  0  0
   -4.6424    2.6141    3.8989 F   0  0  0  0  0  0  0  0  0  0  0  0
   -6.6439    1.8346    3.1698 F   0  0  0  0  0  0  0  0  0  0  0  0
   -6.1476    4.0661    3.0784 F   0  0  0  0  0  0  0  0  0  0  0  0
   -4.9066    1.3392    1.0524 C   0  0  0  0  0  0  0  0  0  0  0  0
    0.3680   -0.2923   -0.2162 C   0  0  0  0  0  0  0  0  0  0  0  0
    4.0866    0.1268    2.3895 C   0  0  0  0  0  0  0  0  0  0  0  0
    4.5087    1.5582    2.7745 C   0  0  0  0  0  0  0  0  0  0  0  0
    6.8690    4.7435    2.7410 H   0  0  0  0  0  0  0  0  0  0  0  0
    6.9143    3.1030    3.5946 H   0  0  0  0  0  0  0  0  0  0  0  0
    5.3595    3.9776    3.4602 H   0  0  0  0  0  0  0  0  0  0  0  0
    5.0059    2.2066   -0.5081 H   0  0  0  0  0  0  0  0  0  0  0  0
    5.5647    0.6282    0.1015 H   0  0  0  0  0  0  0  0  0  0  0  0
    2.7507    1.8811   -0.0225 H   0  0  0  0  0  0  0  0  0  0  0  0
    3.3631    0.3691   -0.7381 H   0  0  0  0  0  0  0  0  0  0  0  0
    2.1245    0.8782    1.8767 H   0  0  0  0  0  0  0  0  0  0  0  0
    1.5075   -3.2438   -0.1737 H   0  0  0  0  0  0  0  0  0  0  0  0
    0.1868   -3.0216    1.0363 H   0  0  0  0  0  0  0  0  0  0  0  0
   -1.2846   -2.9112   -0.6575 H   0  0  0  0  0  0  0  0  0  0  0  0
    1.6431   -1.8727   -2.8504 H   0  0  0  0  0  0  0  0  0  0  0  0
    2.4140   -3.2236   -4.7097 H   0  0  0  0  0  0  0  0  0  0  0  0
   -0.3598   -6.2606   -3.6817 H   0  0  0  0  0  0  0  0  0  0  0  0
   -1.1104   -4.9327   -0.4827 H   0  0  0  0  0  0  0  0  0  0  0  0
   -1.7344   -6.0426   -1.8019 H   0  0  0  0  0  0  0  0  0  0  0  0
   -2.3322   -4.3524   -1.6512 H   0  0  0  0  0  0  0  0  0  0  0  0
    0.1150   -0.7878   -2.2623 H   0  0  0  0  0  0  0  0  0  0  0  0
   -3.2162   -0.7711    1.5986 H   0  0  0  0  0  0  0  0  0  0  0  0
   -1.6509   -1.4326    1.1663 H   0  0  0  0  0  0  0  0  0  0  0  0
   -3.0700   -2.4223    0.8137 H   0  0  0  0  0  0  0  0  0  0  0  0
   -4.3132   -0.2030   -1.8712 H   0  0  0  0  0  0  0  0  0  0  0  0
   -4.9824   -0.8938   -0.2908 H   0  0  0  0  0  0  0  0  0  0  0  0
   -3.6357    2.1310   -1.9533 H   0  0  0  0  0  0  0  0  0  0  0  0
   -4.8534    4.6560    1.2136 H   0  0  0  0  0  0  0  0  0  0  0  0
   -5.1916    0.4877    1.6388 H   0  0  0  0  0  0  0  0  0  0  0  0
    0.9767    0.5081   -0.7216 H   0  0  0  0  0  0  0  0  0  0  0  0
   -0.2451    0.2582    0.5086 H   0  0  0  0  0  0  0  0  0  0  0  0
    4.9687   -0.3020    1.8630 H   0  0  0  0  0  0  0  0  0  0  0  0
    3.8202   -0.4514    3.2901 H   0  0  0  0  0  0  0  0  0  0  0  0
    5.1765    1.5675    3.6342 H   0  0  0  0  0  0  0  0  0  0  0  0
    3.5637    2.1235    2.9028 H   0  0  0  0  0  0  0  0  0  0  0  0
  1  2  1  0
  2  3  2  0
  2  4  1  0
  4  5  1  0
  5  6  1  0
  6  7  1  0
  7  8  1  0
  8  9  2  0
  8 10  1  0
 10 11  1  0
 11 12  1  0
 12 13  1  0
 13 14  2  0
 14 15  1  0
 15 16  2  0
 16 17  1  0
 16 18  1  0
 18 19  2  0
 19 20  1  0
 12 21  1  0
 21 22  1  0
 22 23  2  0
 22 24  1  0
 24 25  1  0
 24 26  1  0
 26 27  1  0
 27 28  2  0
 28 29  1  0
 29 30  1  0
 30 31  1  0
 30 32  1  0
 30 33  1  0
 29 34  2  0
 34 35  1  0
 35 36  1  0
 36 37  1  0
 36 38  1  0
 36 39  1  0
 35 40  2  0
 21 41  1  0
  7 42  1  0
 42 43  1  0
 43  4  1  0
 41 10  1  0
 19 13  1  0
 40 27  1  0
  1 44  1  0
  1 45  1  0
  1 46  1  0
  5 47  1  0
  5 48  1  0
  6 49  1  0
  6 50  1  0
  7 51  1  0
 11 52  1  0
 11 53  1  0
 12 54  1  1
 14 55  1  0
 15 56  1  0
 18 57  1  0
 20 58  1  0
 20 59  1  0
 20 60  1  0
 21 61  1  6
 25 62  1  0
 25 63  1  0
 25 64  1  0
 26 65  1  0
 26 66  1  0
 28 67  1  0
 34 68  1  0
 40 69  1  0
 41 70  1  0
 41 71  1  0
 42 72  1  0
 42 73  1  0
 43 74  1  0
 43 75  1  0
M  END
$$$$
