@<TRIPOS>MOLECULE
*****
 54 56 0 0 0
SMALL
GASTEIGER

@<TRIPOS>ATOM
      1 C          -3.0227    0.1063    0.1499 C.3     1  UNL1        0.0599
      2 C          -3.2541    0.9072    1.4097 C.3     1  UNL1        0.0652
      3 O          -2.5370    0.4569    2.5069 O.3     1  UNL1       -0.3930
      4 C          -3.3664   -1.3327    0.2192 C.3     1  UNL1       -0.0237
      5 C          -3.0946   -2.0802   -1.0715 C.3     1  UNL1       -0.0607
      6 C          -4.9173   -1.4769    0.3773 C.3     1  UNL1       -0.0607
      7 N          -1.9565    0.5506   -0.6898 N.ar    1  UNL1       -0.3401
      8 C          -2.1352    1.4592   -1.7145 C.ar    1  UNL1        0.0232
      9 C          -1.2504    1.9856   -2.5991 C.ar    1  UNL1        0.1220
     10 C          -1.6398    2.9450   -3.6240 C.2     1  UNL1        0.3420
     11 O          -0.6486    3.4129   -4.4739 O.3     1  UNL1       -0.4770
     12 O          -2.7949    3.3616   -3.7765 O.2     1  UNL1       -0.2449
     13 C           0.0478    1.5472   -2.4613 C.ar    1  UNL1        0.2034
     14 O           0.9398    1.9764   -3.2326 O.2     1  UNL1       -0.2863
     15 C           0.3616    0.6392   -1.4767 C.ar    1  UNL1        0.0465
     16 C          -0.6484    0.1951   -0.6528 C.ar    1  UNL1        0.0566
     17 C          -0.2663   -0.6987    0.2998 C.ar    1  UNL1        0.0046
     18 C           1.0059   -1.1406    0.4539 C.ar    1  UNL1        0.1256
     19 O           1.3594   -2.0378    1.4123 O.3     1  UNL1       -0.4948
     20 C           0.4097   -2.5541    2.3024 C.3     1  UNL1        0.0788
     21 C           2.0422   -0.7274   -0.3395 C.ar    1  UNL1       -0.0005
     22 C           3.4930   -1.0241   -0.3599 C.3     1  UNL1        0.0038
     23 C           4.2566   -0.2398    0.6118 C.ar    1  UNL1       -0.0063
     24 C           4.4979   -0.3506    1.9454 C.ar    1  UNL1        0.1451
     25 F           3.9774   -1.4391    2.5502 F       1  UNL1       -0.2037
     26 C           5.2265    0.5108    2.7157 C.ar    1  UNL1        0.0764
     27 CL          5.4251    0.1987    4.4203 Cl      1  UNL1       -0.0806
     28 C           5.7909    1.6095    2.1334 C.ar    1  UNL1       -0.0406
     29 C           5.6297    1.8445    0.7994 C.ar    1  UNL1       -0.0599
     30 C           4.8711    0.9123    0.0958 C.ar    1  UNL1       -0.0554
     31 C           1.6523    0.1985   -1.3287 C.ar    1  UNL1       -0.0420
     32 H          -3.9411    0.4824   -0.4720 H       1  UNL1        0.0553
     33 H          -3.1343    1.9966    1.2394 H       1  UNL1        0.0578
     34 H          -4.3263    0.8359    1.7438 H       1  UNL1        0.0578
     35 H          -2.8381   -0.4641    2.7175 H       1  UNL1        0.2095
     36 H          -3.0579   -1.9021    1.1126 H       1  UNL1        0.0316
     37 H          -2.1871   -1.7295   -1.6038 H       1  UNL1        0.0233
     38 H          -3.1010   -3.1749   -0.8882 H       1  UNL1        0.0233
     39 H          -3.9165   -1.9095   -1.8264 H       1  UNL1        0.0233
     40 H          -5.1199   -2.5439    0.2241 H       1  UNL1        0.0233
     41 H          -5.3283   -0.8838   -0.4528 H       1  UNL1        0.0233
     42 H          -5.2053   -1.0787    1.3589 H       1  UNL1        0.0233
     43 H          -3.1634    1.8413   -1.8623 H       1  UNL1        0.0819
     44 H          -0.7981    4.2374   -5.0255 H       1  UNL1        0.2954
     45 H          -0.9747   -1.0869    0.9728 H       1  UNL1        0.0675
     46 H          -0.4518   -3.0362    1.7936 H       1  UNL1        0.0660
     47 H           0.8973   -3.3467    2.9128 H       1  UNL1        0.0660
     48 H           0.0340   -1.7320    2.9763 H       1  UNL1        0.0660
     49 H           3.9190   -0.8447   -1.3729 H       1  UNL1        0.0363
     50 H           3.6615   -2.1330   -0.2129 H       1  UNL1        0.0363
     51 H           6.3630    2.2784    2.7594 H       1  UNL1        0.0633
     52 H           6.0635    2.7031    0.3121 H       1  UNL1        0.0618
     53 H           4.7796    1.1609   -0.9759 H       1  UNL1        0.0621
     54 H           2.3710    0.6137   -2.0333 H       1  UNL1        0.0629
@<TRIPOS>BOND
     1     1     2    1
     2     2     3    1
     3     1     4    1
     4     4     5    1
     5     4     6    1
     6     1     7    1
     7     7     8   ar
     8     8     9   ar
     9     9    10    1
    10    10    11    1
    11    10    12    2
    12     9    13   ar
    13    13    14    2
    14    13    15   ar
    15    15    16   ar
    16    16    17   ar
    17    17    18   ar
    18    18    19    1
    19    19    20    1
    20    18    21   ar
    21    21    22    1
    22    22    23    1
    23    23    24   ar
    24    24    25    1
    25    24    26   ar
    26    26    27    1
    27    26    28   ar
    28    28    29   ar
    29    29    30   ar
    30    21    31   ar
    31    16     7   ar
    32    30    23   ar
    33    31    15   ar
    34     1    32    1
    35     2    33    1
    36     2    34    1
    37     3    35    1
    38     4    36    1
    39     5    37    1
    40     5    38    1
    41     5    39    1
    42     6    40    1
    43     6    41    1
    44     6    42    1
    45     8    43    1
    46    11    44    1
    47    17    45    1
    48    20    46    1
    49    20    47    1
    50    20    48    1
    51    22    49    1
    52    22    50    1
    53    28    51    1
    54    29    52    1
    55    30    53    1
    56    31    54    1
