
     RDKit          3D

 55 59  0  0  0  0  0  0  0  0999 V2000
   -3.9286   -5.0054    0.4271 C   0  0  0  0  0  0  0  0  0  0  0  0
   -2.8987   -3.9839    0.3716 N   0  0  0  0  0  0  0  0  0  0  0  0
   -2.9625   -2.7116    0.7933 C   0  0  0  0  0  0  0  0  0  0  0  0
   -1.7593   -2.0758    0.5540 C   0  0  0  0  0  0  0  0  0  0  0  0
   -1.4191   -0.7129    0.8799 C   0  0  0  0  0  0  0  0  0  0  0  0
   -2.2817    0.2989    0.6706 C   0  0  0  0  0  0  0  0  0  0  0  0
   -3.5477    0.1935    0.1438 O   0  0  0  0  0  0  0  0  0  0  0  0
   -4.1284    1.4764    0.0861 C   0  0  0  0  0  0  0  0  0  0  0  0
   -5.3754    1.8915   -0.3613 C   0  0  0  0  0  0  0  0  0  0  0  0
   -5.7531    3.2146   -0.3315 C   0  0  0  0  0  0  0  0  0  0  0  0
   -4.8550    4.1344    0.1590 C   0  0  0  0  0  0  0  0  0  0  0  0
   -3.6123    3.7608    0.6105 C   0  0  0  0  0  0  0  0  0  0  0  0
   -2.7028    4.6981    1.1080 O   0  0  0  0  0  0  0  0  0  0  0  0
   -3.2565    2.4247    0.5700 C   0  0  0  0  0  0  0  0  0  0  0  0
   -2.0439    1.7041    0.9611 C   0  0  0  0  0  0  0  0  0  0  0  0
   -1.0123    2.2322    1.4517 O   0  0  0  0  0  0  0  0  0  0  0  0
   -0.9489   -3.0121   -0.0373 C   0  0  0  0  0  0  0  0  0  0  0  0
    0.3519   -2.9800   -0.4969 C   0  0  0  0  0  0  0  0  0  0  0  0
    1.1217   -1.7439   -0.4741 C   0  0  0  0  0  0  0  0  0  0  0  0
    2.3105   -1.6763    0.2190 C   0  0  0  0  0  0  0  0  0  0  0  0
    3.1080   -0.5312    0.2394 C   0  0  0  0  0  0  0  0  0  0  0  0
    2.7159    0.5916   -0.4521 C   0  0  0  0  0  0  0  0  0  0  0  0
    3.4930    1.8194   -0.4751 C   0  0  0  0  0  0  0  0  0  0  0  0
    3.0970    2.8321   -1.1386 O   0  0  0  0  0  0  0  0  0  0  0  0
    4.7190    1.9716    0.2246 N   0  0  0  0  0  0  0  0  0  0  0  0
    5.4506    3.2186    0.1650 C   0  0  0  0  0  0  0  0  0  0  0  0
    6.7216    3.1531    0.9872 C   0  0  0  0  0  0  0  0  0  0  0  0
    7.5224    2.1331    0.4832 O   0  0  0  0  0  0  0  0  0  0  0  0
    1.5249    0.5307   -1.1495 C   0  0  0  0  0  0  0  0  0  0  0  0
    0.7361   -0.5957   -1.1723 C   0  0  0  0  0  0  0  0  0  0  0  0
    0.9141   -4.1386   -1.0532 C   0  0  0  0  0  0  0  0  0  0  0  0
    0.1792   -5.2806   -1.1391 C   0  0  0  0  0  0  0  0  0  0  0  0
   -1.0816   -5.2847   -0.6887 N   0  0  0  0  0  0  0  0  0  0  0  0
   -1.6715   -4.2100   -0.1472 C   0  0  0  0  0  0  0  0  0  0  0  0
   -3.4921   -6.0003    0.2309 H   0  0  0  0  0  0  0  0  0  0  0  0
   -4.6708   -4.7838   -0.3694 H   0  0  0  0  0  0  0  0  0  0  0  0
   -4.4121   -5.0544    1.4239 H   0  0  0  0  0  0  0  0  0  0  0  0
   -3.8500   -2.2936    1.2475 H   0  0  0  0  0  0  0  0  0  0  0  0
   -0.4782   -0.4016    1.3277 H   0  0  0  0  0  0  0  0  0  0  0  0
   -6.0615    1.1266   -0.7445 H   0  0  0  0  0  0  0  0  0  0  0  0
   -6.7463    3.5173   -0.6921 H   0  0  0  0  0  0  0  0  0  0  0  0
   -5.1606    5.1758    0.1791 H   0  0  0  0  0  0  0  0  0  0  0  0
   -1.7038    4.5646    1.0453 H   0  0  0  0  0  0  0  0  0  0  0  0
    2.6183   -2.5649    0.7645 H   0  0  0  0  0  0  0  0  0  0  0  0
    4.0321   -0.5353    0.8008 H   0  0  0  0  0  0  0  0  0  0  0  0
    5.1106    1.1909    0.7894 H   0  0  0  0  0  0  0  0  0  0  0  0
    4.8115    4.0452    0.5821 H   0  0  0  0  0  0  0  0  0  0  0  0
    5.6578    3.5042   -0.8871 H   0  0  0  0  0  0  0  0  0  0  0  0
    7.2969    4.0952    0.9159 H   0  0  0  0  0  0  0  0  0  0  0  0
    6.4809    3.0233    2.0604 H   0  0  0  0  0  0  0  0  0  0  0  0
    8.2512    2.5248   -0.0957 H   0  0  0  0  0  0  0  0  0  0  0  0
    1.1990    1.4059   -1.7010 H   0  0  0  0  0  0  0  0  0  0  0  0
   -0.1946   -0.6645   -1.7159 H   0  0  0  0  0  0  0  0  0  0  0  0
    1.9346   -4.0442   -1.3902 H   0  0  0  0  0  0  0  0  0  0  0  0
    0.6511   -6.1680   -1.5802 H   0  0  0  0  0  0  0  0  0  0  0  0
  1  2  1  0
  2  3  1  0
  3  4  2  0
  4  5  1  0
  5  6  2  0
  6  7  1  0
  7  8  1  0
  8  9  2  0
  9 10  1  0
 10 11  2  0
 11 12  1  0
 12 13  1  0
 12 14  2  0
 14 15  1  0
 15 16  2  0
  4 17  1  0
 17 18  2  0
 18 19  1  0
 19 20  2  0
 20 21  1  0
 21 22  2  0
 22 23  1  0
 23 24  2  0
 23 25  1  0
 25 26  1  0
 26 27  1  0
 27 28  1  0
 22 29  1  0
 29 30  2  0
 18 31  1  0
 31 32  2  0
 32 33  1  0
 33 34  2  0
 34  2  1  0
 15  6  1  0
 34 17  1  0
 14  8  1  0
 30 19  1  0
  1 35  1  0
  1 36  1  0
  1 37  1  0
  3 38  1  0
  5 39  1  0
  9 40  1  0
 10 41  1  0
 11 42  1  0
 13 43  1  0
 20 44  1  0
 21 45  1  0
 25 46  1  0
 26 47  1  0
 26 48  1  0
 27 49  1  0
 27 50  1  0
 28 51  1  0
 29 52  1  0
 30 53  1  0
 31 54  1  0
 32 55  1  0
M  END
$$$$
