@<TRIPOS>MOLECULE
*****
 55 59 0 0 0
SMALL
GASTEIGER

@<TRIPOS>ATOM
      1 C          -3.9286   -5.0054    0.4271 C.3     1  UNL1        0.0132
      2 N          -2.8987   -3.9839    0.3716 N.ar    1  UNL1       -0.3343
      3 C          -2.9625   -2.7116    0.7933 C.ar    1  UNL1        0.0141
      4 C          -1.7593   -2.0758    0.5540 C.ar    1  UNL1        0.0059
      5 C          -1.4191   -0.7129    0.8799 C.2     1  UNL1       -0.0062
      6 C          -2.2817    0.2989    0.6706 C.2     1  UNL1        0.1763
      7 O          -3.5477    0.1935    0.1438 O.3     1  UNL1       -0.4513
      8 C          -4.1284    1.4764    0.0861 C.ar    1  UNL1        0.1430
      9 C          -5.3754    1.8915   -0.3613 C.ar    1  UNL1       -0.0184
     10 C          -5.7531    3.2146   -0.3315 C.ar    1  UNL1       -0.0548
     11 C          -4.8550    4.1344    0.1590 C.ar    1  UNL1       -0.0192
     12 C          -3.6123    3.7608    0.6105 C.ar    1  UNL1        0.1313
     13 O          -2.7028    4.6981    1.1080 O.3     1  UNL1       -0.5059
     14 C          -3.2565    2.4247    0.5700 C.ar    1  UNL1        0.1088
     15 C          -2.0439    1.7041    0.9611 C.2     1  UNL1        0.2350
     16 O          -1.0123    2.2322    1.4517 O.2     1  UNL1       -0.2831
     17 C          -0.9489   -3.0121   -0.0373 C.ar    1  UNL1        0.0338
     18 C           0.3519   -2.9800   -0.4969 C.ar    1  UNL1       -0.0052
     19 C           1.1217   -1.7439   -0.4741 C.ar    1  UNL1       -0.0171
     20 C           2.3105   -1.6763    0.2190 C.ar    1  UNL1       -0.0533
     21 C           3.1080   -0.5312    0.2394 C.ar    1  UNL1       -0.0491
     22 C           2.7159    0.5916   -0.4521 C.ar    1  UNL1        0.0367
     23 C           3.4930    1.8194   -0.4751 C.2     1  UNL1        0.2441
     24 O           3.0970    2.8321   -1.1386 O.2     1  UNL1       -0.2702
     25 N           4.7190    1.9716    0.2246 N.am    1  UNL1       -0.3092
     26 C           5.4506    3.2186    0.1650 C.3     1  UNL1        0.0351
     27 C           6.7216    3.1531    0.9872 C.3     1  UNL1        0.0597
     28 O           7.5224    2.1331    0.4832 O.3     1  UNL1       -0.3935
     29 C           1.5249    0.5307   -1.1495 C.ar    1  UNL1       -0.0491
     30 C           0.7361   -0.5957   -1.1723 C.ar    1  UNL1       -0.0533
     31 C           0.9141   -4.1386   -1.0532 C.ar    1  UNL1       -0.0351
     32 C           0.1792   -5.2806   -1.1391 C.ar    1  UNL1        0.0305
     33 N          -1.0816   -5.2847   -0.6887 N.ar    1  UNL1       -0.2372
     34 C          -1.6715   -4.2100   -0.1472 C.ar    1  UNL1        0.1416
     35 H          -3.4921   -6.0003    0.2309 H       1  UNL1        0.0456
     36 H          -4.6708   -4.7838   -0.3694 H       1  UNL1        0.0456
     37 H          -4.4121   -5.0544    1.4239 H       1  UNL1        0.0456
     38 H          -3.8500   -2.2936    1.2475 H       1  UNL1        0.0815
     39 H          -0.4782   -0.4016    1.3277 H       1  UNL1        0.0662
     40 H          -6.0615    1.1266   -0.7445 H       1  UNL1        0.0654
     41 H          -6.7463    3.5173   -0.6921 H       1  UNL1        0.0620
     42 H          -5.1606    5.1758    0.1791 H       1  UNL1        0.0654
     43 H          -1.7038    4.5646    1.0453 H       1  UNL1        0.2922
     44 H           2.6183   -2.5649    0.7645 H       1  UNL1        0.0624
     45 H           4.0321   -0.5353    0.8008 H       1  UNL1        0.0625
     46 H           5.1106    1.1909    0.7894 H       1  UNL1        0.1491
     47 H           4.8115    4.0452    0.5821 H       1  UNL1        0.0485
     48 H           5.6578    3.5042   -0.8871 H       1  UNL1        0.0485
     49 H           7.2969    4.0952    0.9159 H       1  UNL1        0.0573
     50 H           6.4809    3.0233    2.0604 H       1  UNL1        0.0573
     51 H           8.2512    2.5248   -0.0957 H       1  UNL1        0.2095
     52 H           1.1990    1.4059   -1.7010 H       1  UNL1        0.0625
     53 H          -0.1946   -0.6645   -1.7159 H       1  UNL1        0.0624
     54 H           1.9346   -4.0442   -1.3902 H       1  UNL1        0.0639
     55 H           0.6511   -6.1680   -1.5802 H       1  UNL1        0.0830
@<TRIPOS>BOND
     1     1     2    1
     2     2     3   ar
     3     3     4   ar
     4     4     5    1
     5     5     6    2
     6     6     7    1
     7     7     8    1
     8     8     9   ar
     9     9    10   ar
    10    10    11   ar
    11    11    12   ar
    12    12    13    1
    13    12    14   ar
    14    14    15    1
    15    15    16    2
    16     4    17   ar
    17    17    18   ar
    18    18    19    1
    19    19    20   ar
    20    20    21   ar
    21    21    22   ar
    22    22    23    1
    23    23    24    2
    24    23    25   am
    25    25    26    1
    26    26    27    1
    27    27    28    1
    28    22    29   ar
    29    29    30   ar
    30    18    31   ar
    31    31    32   ar
    32    32    33   ar
    33    33    34   ar
    34    34     2   ar
    35    15     6    1
    36    34    17   ar
    37    14     8   ar
    38    30    19   ar
    39     1    35    1
    40     1    36    1
    41     1    37    1
    42     3    38    1
    43     5    39    1
    44     9    40    1
    45    10    41    1
    46    11    42    1
    47    13    43    1
    48    20    44    1
    49    21    45    1
    50    25    46    1
    51    26    47    1
    52    26    48    1
    53    27    49    1
    54    27    50    1
    55    28    51    1
    56    29    52    1
    57    30    53    1
    58    31    54    1
    59    32    55    1
