
     RDKit          3D

 66 69  0  0  0  0  0  0  0  0999 V2000
    0.4953    3.0193   -1.4512 C   0  0  0  0  0  0  0  0  0  0  0  0
    0.6039    1.5107   -1.5133 C   0  0  1  0  0  0  0  0  0  0  0  0
    1.9012    1.0259   -0.9539 C   0  0  0  0  0  0  0  0  0  0  0  0
    2.9847    0.8048   -1.8156 C   0  0  0  0  0  0  0  0  0  0  0  0
    4.2099    0.3570   -1.3731 C   0  0  0  0  0  0  0  0  0  0  0  0
    4.4281    0.1015   -0.0356 C   0  0  0  0  0  0  0  0  0  0  0  0
    5.7289   -0.3746    0.4450 C   0  0  0  0  0  0  0  0  0  0  0  0
    6.1990   -0.0578    1.7028 C   0  0  0  0  0  0  0  0  0  0  0  0
    7.4132   -0.4910    2.1743 C   0  0  0  0  0  0  0  0  0  0  0  0
    8.1715   -1.2764    1.3266 C   0  0  0  0  0  0  0  0  0  0  0  0
    9.2823   -1.6683    1.7681 O   0  0  0  0  0  0  0  0  0  0  0  0
    7.7129   -1.5862    0.0980 N   0  0  0  0  0  0  0  0  0  0  0  0
    8.5798   -2.4178   -0.7242 C   0  0  0  0  0  0  0  0  0  0  0  0
    8.0681   -2.4464   -2.0250 F   0  0  0  0  0  0  0  0  0  0  0  0
    9.8152   -1.7874   -0.8223 F   0  0  0  0  0  0  0  0  0  0  0  0
    6.5126   -1.1515   -0.3539 C   0  0  0  0  0  0  0  0  0  0  0  0
    3.3712    0.3147    0.8224 C   0  0  0  0  0  0  0  0  0  0  0  0
    2.1372    0.7671    0.3661 C   0  0  0  0  0  0  0  0  0  0  0  0
   -0.5521    0.8789   -0.9881 N   0  0  0  0  0  0  0  0  0  0  0  0
   -1.0977    0.9907    0.3422 C   0  0  0  0  0  0  0  0  0  0  0  0
   -2.6303    1.1550    0.1463 C   0  0  0  0  0  0  0  0  0  0  0  0
   -3.2509   -0.0937   -0.3343 C   0  0  2  0  0  0  0  0  0  0  0  0
   -4.5310    0.1337   -1.0485 C   0  0  0  0  0  0  0  0  0  0  0  0
   -5.6687    0.7481   -0.3440 C   0  0  0  0  0  0  0  0  0  0  0  0
   -6.8200    0.7916   -1.3950 C   0  0  0  0  0  0  0  0  0  0  0  0
   -5.5151    2.1809    0.0780 C   0  0  0  0  0  0  0  0  0  0  0  0
   -6.1935   -0.0468    0.6782 O   0  0  0  0  0  0  0  0  0  0  0  0
   -3.3838   -1.1234    0.7379 C   0  0  0  0  0  0  0  0  0  0  0  0
   -3.0608   -0.8127    2.0328 C   0  0  0  0  0  0  0  0  0  0  0  0
   -3.1680   -1.7570    3.0482 C   0  0  0  0  0  0  0  0  0  0  0  0
   -3.6022   -3.0192    2.7617 C   0  0  0  0  0  0  0  0  0  0  0  0
   -3.9325   -3.3578    1.4753 C   0  0  0  0  0  0  0  0  0  0  0  0
   -3.8200   -2.4017    0.4680 C   0  0  0  0  0  0  0  0  0  0  0  0
   -2.3676   -0.6846   -1.3098 O   0  0  0  0  0  0  0  0  0  0  0  0
   -1.3288    0.0308   -1.8598 C   0  0  0  0  0  0  0  0  0  0  0  0
   -1.0908   -0.0730   -3.0807 O   0  0  0  0  0  0  0  0  0  0  0  0
   -0.1901    3.4264   -2.1937 H   0  0  0  0  0  0  0  0  0  0  0  0
    0.1307    3.2934   -0.4379 H   0  0  0  0  0  0  0  0  0  0  0  0
    1.5136    3.4917   -1.5302 H   0  0  0  0  0  0  0  0  0  0  0  0
    0.6593    1.2424   -2.6078 H   0  0  0  0  0  0  0  0  0  0  0  0
    2.8044    1.0089   -2.8627 H   0  0  0  0  0  0  0  0  0  0  0  0
    5.0353    0.1940   -2.0672 H   0  0  0  0  0  0  0  0  0  0  0  0
    5.5773    0.5589    2.3379 H   0  0  0  0  0  0  0  0  0  0  0  0
    7.7526   -0.2301    3.1534 H   0  0  0  0  0  0  0  0  0  0  0  0
    8.6906   -3.4351   -0.3263 H   0  0  0  0  0  0  0  0  0  0  0  0
    6.2376   -1.4549   -1.3516 H   0  0  0  0  0  0  0  0  0  0  0  0
    3.5418    0.1137    1.8766 H   0  0  0  0  0  0  0  0  0  0  0  0
    1.3499    0.9149    1.0790 H   0  0  0  0  0  0  0  0  0  0  0  0
   -0.8787    0.0711    0.8905 H   0  0  0  0  0  0  0  0  0  0  0  0
   -0.7526    1.8599    0.9181 H   0  0  0  0  0  0  0  0  0  0  0  0
   -2.6744    1.8919   -0.7122 H   0  0  0  0  0  0  0  0  0  0  0  0
   -3.0625    1.6429    1.0136 H   0  0  0  0  0  0  0  0  0  0  0  0
   -4.3370    0.7799   -1.9683 H   0  0  0  0  0  0  0  0  0  0  0  0
   -4.8937   -0.8303   -1.5393 H   0  0  0  0  0  0  0  0  0  0  0  0
   -7.7425    1.0836   -0.8882 H   0  0  0  0  0  0  0  0  0  0  0  0
   -6.8592   -0.1561   -1.9402 H   0  0  0  0  0  0  0  0  0  0  0  0
   -6.5183    1.5866   -2.0991 H   0  0  0  0  0  0  0  0  0  0  0  0
   -6.5355    2.6890   -0.0188 H   0  0  0  0  0  0  0  0  0  0  0  0
   -4.8375    2.7003   -0.6201 H   0  0  0  0  0  0  0  0  0  0  0  0
   -5.2590    2.3203    1.1490 H   0  0  0  0  0  0  0  0  0  0  0  0
   -6.6890   -0.7869    0.2521 H   0  0  0  0  0  0  0  0  0  0  0  0
   -2.7168    0.1578    2.3573 H   0  0  0  0  0  0  0  0  0  0  0  0
   -2.9046   -1.4940    4.0855 H   0  0  0  0  0  0  0  0  0  0  0  0
   -3.6763   -3.7434    3.5868 H   0  0  0  0  0  0  0  0  0  0  0  0
   -4.2755   -4.3672    1.2713 H   0  0  0  0  0  0  0  0  0  0  0  0
   -4.0909   -2.7129   -0.5295 H   0  0  0  0  0  0  0  0  0  0  0  0
  1  2  1  0
  2  3  1  0
  3  4  2  0
  4  5  1  0
  5  6  2  0
  6  7  1  0
  7  8  1  0
  8  9  2  0
  9 10  1  0
 10 11  2  0
 10 12  1  0
 12 13  1  0
 13 14  1  0
 13 15  1  0
 12 16  1  0
  6 17  1  0
 17 18  2  0
  2 19  1  0
 19 20  1  0
 20 21  1  0
 21 22  1  0
 22 23  1  6
 23 24  1  0
 24 25  1  0
 24 26  1  0
 24 27  1  0
 22 28  1  0
 28 29  2  0
 29 30  1  0
 30 31  2  0
 31 32  1  0
 32 33  2  0
 22 34  1  0
 34 35  1  0
 35 36  2  0
 18  3  1  0
 35 19  1  0
 16  7  2  0
 33 28  1  0
  1 37  1  0
  1 38  1  0
  1 39  1  0
  2 40  1  6
  4 41  1  0
  5 42  1  0
  8 43  1  0
  9 44  1  0
 13 45  1  0
 16 46  1  0
 17 47  1  0
 18 48  1  0
 20 49  1  0
 20 50  1  0
 21 51  1  0
 21 52  1  0
 23 53  1  0
 23 54  1  0
 25 55  1  0
 25 56  1  0
 25 57  1  0
 26 58  1  0
 26 59  1  0
 26 60  1  0
 27 61  1  0
 29 62  1  0
 30 63  1  0
 31 64  1  0
 32 65  1  0
 33 66  1  0
M  END
$$$$
