@<TRIPOS>MOLECULE
*****
 66 69 0 0 0
SMALL
GASTEIGER

@<TRIPOS>ATOM
      1 C           0.4953    3.0193   -1.4512 C.3     1  UNL1       -0.0421
      2 C           0.6039    1.5107   -1.5133 C.3     1  UNL1        0.0515
      3 C           1.9012    1.0259   -0.9539 C.ar    1  UNL1       -0.0271
      4 C           2.9847    0.8048   -1.8156 C.ar    1  UNL1       -0.0562
      5 C           4.2099    0.3570   -1.3731 C.ar    1  UNL1       -0.0537
      6 C           4.4281    0.1015   -0.0356 C.ar    1  UNL1       -0.0165
      7 C           5.7289   -0.3746    0.4450 C.ar    1  UNL1       -0.0013
      8 C           6.1990   -0.0578    1.7028 C.ar    1  UNL1       -0.0475
      9 C           7.4132   -0.4910    2.1743 C.ar    1  UNL1        0.0037
     10 C           8.1715   -1.2764    1.3266 C.ar    1  UNL1        0.2554
     11 O           9.2823   -1.6683    1.7681 O.2     1  UNL1       -0.2675
     12 N           7.7129   -1.5862    0.0980 N.ar    1  UNL1       -0.2578
     13 C           8.5798   -2.4178   -0.7242 C.3     1  UNL1        0.3223
     14 F           8.0681   -2.4464   -2.0250 F       1  UNL1       -0.1846
     15 F           9.8152   -1.7874   -0.8223 F       1  UNL1       -0.1846
     16 C           6.5126   -1.1515   -0.3539 C.ar    1  UNL1        0.0208
     17 C           3.3712    0.3147    0.8224 C.ar    1  UNL1       -0.0537
     18 C           2.1372    0.7671    0.3661 C.ar    1  UNL1       -0.0562
     19 N          -0.5521    0.8789   -0.9881 N.am    1  UNL1       -0.2605
     20 C          -1.0977    0.9907    0.3422 C.3     1  UNL1        0.0224
     21 C          -2.6303    1.1550    0.1463 C.3     1  UNL1        0.0076
     22 C          -3.2509   -0.0937   -0.3343 C.3     1  UNL1        0.1440
     23 C          -4.5310    0.1337   -1.0485 C.3     1  UNL1        0.0199
     24 C          -5.6687    0.7481   -0.3440 C.3     1  UNL1        0.0645
     25 C          -6.8200    0.7916   -1.3950 C.3     1  UNL1       -0.0362
     26 C          -5.5151    2.1809    0.0780 C.3     1  UNL1       -0.0362
     27 O          -6.1935   -0.0468    0.6782 O.3     1  UNL1       -0.3890
     28 C          -3.3838   -1.1234    0.7379 C.ar    1  UNL1       -0.0040
     29 C          -3.0608   -0.8127    2.0328 C.ar    1  UNL1       -0.0548
     30 C          -3.1680   -1.7570    3.0482 C.ar    1  UNL1       -0.0614
     31 C          -3.6022   -3.0192    2.7617 C.ar    1  UNL1       -0.0617
     32 C          -3.9325   -3.3578    1.4753 C.ar    1  UNL1       -0.0614
     33 C          -3.8200   -2.4017    0.4680 C.ar    1  UNL1       -0.0548
     34 O          -2.3676   -0.6846   -1.3098 O.3     1  UNL1       -0.4387
     35 C          -1.3288    0.0308   -1.8598 C.2     1  UNL1        0.4042
     36 O          -1.0908   -0.0730   -3.0807 O.2     1  UNL1       -0.2262
     37 H          -0.1901    3.4264   -2.1937 H       1  UNL1        0.0251
     38 H           0.1307    3.2934   -0.4379 H       1  UNL1        0.0251
     39 H           1.5136    3.4917   -1.5302 H       1  UNL1        0.0251
     40 H           0.6593    1.2424   -2.6078 H       1  UNL1        0.0549
     41 H           2.8044    1.0089   -2.8627 H       1  UNL1        0.0621
     42 H           5.0353    0.1940   -2.0672 H       1  UNL1        0.0624
     43 H           5.5773    0.5589    2.3379 H       1  UNL1        0.0626
     44 H           7.7526   -0.2301    3.1534 H       1  UNL1        0.0672
     45 H           8.6906   -3.4351   -0.3263 H       1  UNL1        0.1281
     46 H           6.2376   -1.4549   -1.3516 H       1  UNL1        0.0818
     47 H           3.5418    0.1137    1.8766 H       1  UNL1        0.0624
     48 H           1.3499    0.9149    1.0790 H       1  UNL1        0.0621
     49 H          -0.8787    0.0711    0.8905 H       1  UNL1        0.0467
     50 H          -0.7526    1.8599    0.9181 H       1  UNL1        0.0467
     51 H          -2.6744    1.8919   -0.7122 H       1  UNL1        0.0322
     52 H          -3.0625    1.6429    1.0136 H       1  UNL1        0.0322
     53 H          -4.3370    0.7799   -1.9683 H       1  UNL1        0.0335
     54 H          -4.8937   -0.8303   -1.5393 H       1  UNL1        0.0335
     55 H          -7.7425    1.0836   -0.8882 H       1  UNL1        0.0257
     56 H          -6.8592   -0.1561   -1.9402 H       1  UNL1        0.0257
     57 H          -6.5183    1.5866   -2.0991 H       1  UNL1        0.0257
     58 H          -6.5355    2.6890   -0.0188 H       1  UNL1        0.0257
     59 H          -4.8375    2.7003   -0.6201 H       1  UNL1        0.0257
     60 H          -5.2590    2.3203    1.1490 H       1  UNL1        0.0257
     61 H          -6.6890   -0.7869    0.2521 H       1  UNL1        0.2101
     62 H          -2.7168    0.1578    2.3573 H       1  UNL1        0.0622
     63 H          -2.9046   -1.4940    4.0855 H       1  UNL1        0.0618
     64 H          -3.6763   -3.7434    3.5868 H       1  UNL1        0.0618
     65 H          -4.2755   -4.3672    1.2713 H       1  UNL1        0.0618
     66 H          -4.0909   -2.7129   -0.5295 H       1  UNL1        0.0622
@<TRIPOS>BOND
     1     1     2    1
     2     2     3    1
     3     3     4   ar
     4     4     5   ar
     5     5     6   ar
     6     6     7    1
     7     7     8   ar
     8     8     9   ar
     9     9    10   ar
    10    10    11    2
    11    10    12   ar
    12    12    13    1
    13    13    14    1
    14    13    15    1
    15    12    16   ar
    16     6    17   ar
    17    17    18   ar
    18     2    19    1
    19    19    20    1
    20    20    21    1
    21    21    22    1
    22    22    23    1
    23    23    24    1
    24    24    25    1
    25    24    26    1
    26    24    27    1
    27    22    28    1
    28    28    29   ar
    29    29    30   ar
    30    30    31   ar
    31    31    32   ar
    32    32    33   ar
    33    22    34    1
    34    34    35    1
    35    35    36    2
    36    18     3   ar
    37    35    19   am
    38    16     7   ar
    39    33    28   ar
    40     1    37    1
    41     1    38    1
    42     1    39    1
    43     2    40    1
    44     4    41    1
    45     5    42    1
    46     8    43    1
    47     9    44    1
    48    13    45    1
    49    16    46    1
    50    17    47    1
    51    18    48    1
    52    20    49    1
    53    20    50    1
    54    21    51    1
    55    21    52    1
    56    23    53    1
    57    23    54    1
    58    25    55    1
    59    25    56    1
    60    25    57    1
    61    26    58    1
    62    26    59    1
    63    26    60    1
    64    27    61    1
    65    29    62    1
    66    30    63    1
    67    31    64    1
    68    32    65    1
    69    33    66    1
