@<TRIPOS>MOLECULE
*****
 47 52 0 0 0
SMALL
GASTEIGER

@<TRIPOS>ATOM
      1 O           2.3753   -1.4604   -3.5845 O.2     1  UNL1       -0.2656
      2 C           1.9126   -1.0511   -2.4679 C.ar    1  UNL1        0.2748
      3 N           0.5757   -0.9718   -2.2431 N.ar    1  UNL1       -0.3203
      4 C           0.0871   -0.5403   -1.0659 C.ar    1  UNL1        0.0519
      5 C          -1.2721   -0.4713   -0.8687 C.ar    1  UNL1       -0.0299
      6 C          -1.8019   -0.0296    0.3365 C.ar    1  UNL1       -0.0159
      7 C          -3.2541    0.0270    0.5039 C.ar    1  UNL1       -0.0172
      8 C          -3.8459   -0.1729    1.7475 C.ar    1  UNL1       -0.0534
      9 C          -5.2244   -0.1182    1.8967 C.ar    1  UNL1       -0.0535
     10 C          -6.0565    0.1350    0.8243 C.ar    1  UNL1       -0.0178
     11 C          -7.4378    0.1879    0.9852 C.ar    1  UNL1       -0.0540
     12 C          -8.1846    0.4440   -0.1283 C.ar    1  UNL1       -0.0612
     13 C          -7.6095    0.6442   -1.3686 C.ar    1  UNL1       -0.0612
     14 C          -6.2535    0.5908   -1.5186 C.ar    1  UNL1       -0.0540
     15 C          -5.4719    0.3341   -0.4123 C.ar    1  UNL1       -0.0173
     16 C          -4.1028    0.2784   -0.5537 C.ar    1  UNL1       -0.0463
     17 C          -0.9664    0.3486    1.3593 C.ar    1  UNL1       -0.0533
     18 C           0.4088    0.2831    1.1716 C.ar    1  UNL1       -0.0499
     19 C           0.9115   -0.1563   -0.0268 C.ar    1  UNL1        0.0260
     20 C           2.2636   -0.2273   -0.2292 C.ar    1  UNL1        0.1039
     21 N           3.3242    0.0554    0.5340 N.ar    1  UNL1       -0.2269
     22 C           4.4753   -0.1906   -0.1422 C.ar    1  UNL1        0.1408
     23 C           5.7876    0.0290    0.4440 C.ar    1  UNL1        0.0356
     24 C           5.8872    0.5046    1.7607 C.ar    1  UNL1       -0.0497
     25 C           7.0768    0.7396    2.3896 C.ar    1  UNL1       -0.0610
     26 C           8.2335    0.4922    1.6818 C.ar    1  UNL1       -0.0603
     27 C           8.1998    0.0282    0.3958 C.ar    1  UNL1       -0.0427
     28 C           6.9716   -0.1991   -0.2110 C.ar    1  UNL1        0.0516
     29 CL          7.0175   -0.7913   -1.8576 Cl      1  UNL1       -0.0828
     30 N           4.1076   -0.6251   -1.3226 N.ar    1  UNL1       -0.3336
     31 C           2.7518   -0.6728   -1.4444 C.ar    1  UNL1        0.1322
     32 H          -0.0817   -1.2546   -3.0078 H       1  UNL1        0.1690
     33 H          -1.9441   -0.7614   -1.6539 H       1  UNL1        0.0644
     34 H          -3.1787   -0.3698    2.5759 H       1  UNL1        0.0624
     35 H          -5.6544   -0.2814    2.8951 H       1  UNL1        0.0624
     36 H          -7.8591    0.0303    1.9538 H       1  UNL1        0.0624
     37 H          -9.2626    0.4903   -0.0293 H       1  UNL1        0.0618
     38 H          -8.2337    0.8448   -2.2257 H       1  UNL1        0.0618
     39 H          -5.7551    0.7407   -2.4661 H       1  UNL1        0.0624
     40 H          -3.6411    0.4364   -1.5339 H       1  UNL1        0.0630
     41 H          -1.4168    0.6854    2.2773 H       1  UNL1        0.0624
     42 H           1.0673    0.5760    1.9635 H       1  UNL1        0.0625
     43 H           4.9512    0.6917    2.2978 H       1  UNL1        0.0625
     44 H           7.1078    1.1112    3.4196 H       1  UNL1        0.0618
     45 H           9.1669    0.6866    2.2031 H       1  UNL1        0.0618
     46 H           9.1321   -0.1546   -0.1289 H       1  UNL1        0.0632
     47 H           4.7158   -0.9155   -2.1149 H       1  UNL1        0.1675
@<TRIPOS>BOND
     1     1     2    2
     2     2     3   ar
     3     3     4   ar
     4     4     5   ar
     5     5     6   ar
     6     6     7    1
     7     7     8   ar
     8     8     9   ar
     9     9    10   ar
    10    10    11   ar
    11    11    12   ar
    12    12    13   ar
    13    13    14   ar
    14    14    15   ar
    15    15    16   ar
    16     6    17   ar
    17    17    18   ar
    18    18    19   ar
    19    19    20   ar
    20    20    21   ar
    21    21    22   ar
    22    22    23    1
    23    23    24   ar
    24    24    25   ar
    25    25    26   ar
    26    26    27   ar
    27    27    28   ar
    28    28    29    1
    29    22    30   ar
    30    30    31   ar
    31    31     2   ar
    32    19     4   ar
    33    31    20   ar
    34    16     7   ar
    35    28    23   ar
    36    15    10   ar
    37     3    32    1
    38     5    33    1
    39     8    34    1
    40     9    35    1
    41    11    36    1
    42    12    37    1
    43    13    38    1
    44    14    39    1
    45    16    40    1
    46    17    41    1
    47    18    42    1
    48    24    43    1
    49    25    44    1
    50    26    45    1
    51    27    46    1
    52    30    47    1
