@<TRIPOS>MOLECULE
*****
 16 16 0 0 0
SMALL
GASTEIGER

@<TRIPOS>ATOM
      1 O           2.7871    1.6411   -0.3364 O.2     1  UNL1       -0.2451
      2 C           2.2851    0.4922   -0.3185 C.2     1  UNL1        0.3368
      3 O           3.1429   -0.5848   -0.4575 O.3     1  UNL1       -0.4771
      4 C           0.8573    0.2567   -0.1595 C.ar    1  UNL1        0.0591
      5 C           0.3043   -1.0059   -0.1398 C.ar    1  UNL1       -0.0443
      6 C          -1.0520   -1.2129    0.0119 C.ar    1  UNL1       -0.0194
      7 C          -1.9236   -0.1558    0.1519 C.ar    1  UNL1        0.1169
      8 O          -3.3049   -0.3532    0.3069 O.3     1  UNL1       -0.5068
      9 C          -1.3812    1.1118    0.1336 C.ar    1  UNL1       -0.0194
     10 C          -0.0233    1.3165   -0.0184 C.ar    1  UNL1       -0.0443
     11 H           4.0695   -0.5878   -0.0097 H       1  UNL1        0.2954
     12 H           0.9973   -1.8354   -0.2507 H       1  UNL1        0.0627
     13 H          -1.4668   -2.1999    0.0253 H       1  UNL1        0.0654
     14 H          -3.6569   -1.1532    0.8528 H       1  UNL1        0.2921
     15 H          -2.0379    1.9517    0.2406 H       1  UNL1        0.0654
     16 H           0.4032    2.3191   -0.0326 H       1  UNL1        0.0627
@<TRIPOS>BOND
     1     1     2    2
     2     2     3    1
     3     2     4    1
     4     4     5   ar
     5     5     6   ar
     6     6     7   ar
     7     7     8    1
     8     7     9   ar
     9     9    10   ar
    10    10     4   ar
    11     3    11    1
    12     5    12    1
    13     6    13    1
    14     8    14    1
    15     9    15    1
    16    10    16    1
