
     RDKit          3D

 54 57  0  0  0  0  0  0  0  0999 V2000
   -1.0081    5.9327    3.4522 C   0  0  0  0  0  0  0  0  0  0  0  0
   -1.5387    4.7616    2.8182 C   0  0  0  0  0  0  0  0  0  0  0  0
   -2.7894    4.3550    2.4689 C   0  0  0  0  0  0  0  0  0  0  0  0
   -2.9392    3.2070    1.8923 N   0  0  0  0  0  0  0  0  0  0  0  0
   -2.0399    2.3947    1.6061 C   0  0  0  0  0  0  0  0  0  0  0  0
   -1.8829    1.0976    0.9941 C   0  0  0  0  0  0  0  0  0  0  0  0
   -3.0065    0.4488    0.5424 C   0  0  0  0  0  0  0  0  0  0  0  0
   -2.8955   -0.8132   -0.0579 C   0  0  0  0  0  0  0  0  0  0  0  0
   -4.0391   -1.4081   -0.4859 O   0  0  0  0  0  0  0  0  0  0  0  0
   -4.1338   -2.6310   -1.0923 C   0  0  2  0  0  0  0  0  0  0  0  0
   -4.7932   -2.5710   -2.4728 C   0  0  0  0  0  0  0  0  0  0  0  0
   -5.2745   -3.9910   -2.6072 C   0  0  0  0  0  0  0  0  0  0  0  0
   -5.4756   -4.5073   -1.3604 O   0  0  0  0  0  0  0  0  0  0  0  0
   -5.1105   -3.5792   -0.4129 C   0  0  0  0  0  0  0  0  0  0  0  0
   -1.6500   -1.3449   -0.1657 C   0  0  0  0  0  0  0  0  0  0  0  0
   -0.4870   -0.6949    0.2914 C   0  0  0  0  0  0  0  0  0  0  0  0
    0.7616   -1.4032    0.0981 C   0  0  0  0  0  0  0  0  0  0  0  0
    0.8020   -2.5467   -0.4535 O   0  0  0  0  0  0  0  0  0  0  0  0
    1.9716   -0.8109    0.5330 N   0  0  0  0  0  0  0  0  0  0  0  0
    3.2585   -1.5054    0.3509 C   0  0  2  0  0  0  0  0  0  0  0  0
    3.8292   -1.7502    1.7260 C   0  0  0  0  0  0  0  0  0  0  0  0
    4.1135   -0.5894   -0.4474 C   0  0  0  0  0  0  0  0  0  0  0  0
    5.4336   -0.3299   -0.1477 C   0  0  0  0  0  0  0  0  0  0  0  0
    6.1645    0.5465   -0.9537 C   0  0  0  0  0  0  0  0  0  0  0  0
    5.5725    1.1495   -2.0424 C   0  0  0  0  0  0  0  0  0  0  0  0
    6.3680    2.0918   -2.9040 C   0  0  0  0  0  0  0  0  0  0  0  0
    5.6483    2.4733   -4.0047 F   0  0  0  0  0  0  0  0  0  0  0  0
    6.7193    3.2221   -2.2007 F   0  0  0  0  0  0  0  0  0  0  0  0
    7.5130    1.4618   -3.3561 F   0  0  0  0  0  0  0  0  0  0  0  0
    4.2864    0.8623   -2.2888 N   0  0  0  0  0  0  0  0  0  0  0  0
    3.6039    0.0371   -1.5271 N   0  0  0  0  0  0  0  0  0  0  0  0
   -0.6276    0.5232    0.8669 C   0  0  0  0  0  0  0  0  0  0  0  0
   -0.5569    3.3371    2.2441 S   0  0  0  0  0  0  0  0  0  0  0  0
   -1.4428    6.0583    4.4803 H   0  0  0  0  0  0  0  0  0  0  0  0
    0.0854    5.8706    3.5293 H   0  0  0  0  0  0  0  0  0  0  0  0
   -1.2805    6.8435    2.8779 H   0  0  0  0  0  0  0  0  0  0  0  0
   -3.6483    5.0468    2.7014 H   0  0  0  0  0  0  0  0  0  0  0  0
   -3.9743    0.9350    0.6616 H   0  0  0  0  0  0  0  0  0  0  0  0
   -3.1890   -3.1762   -1.2427 H   0  0  0  0  0  0  0  0  0  0  0  0
   -4.0422   -2.3024   -3.2421 H   0  0  0  0  0  0  0  0  0  0  0  0
   -5.6384   -1.8645   -2.4780 H   0  0  0  0  0  0  0  0  0  0  0  0
   -6.1955   -4.0672   -3.2348 H   0  0  0  0  0  0  0  0  0  0  0  0
   -4.4394   -4.5578   -3.1129 H   0  0  0  0  0  0  0  0  0  0  0  0
   -5.9706   -3.0204    0.0115 H   0  0  0  0  0  0  0  0  0  0  0  0
   -4.5648   -4.0225    0.4516 H   0  0  0  0  0  0  0  0  0  0  0  0
   -1.5450   -2.3252   -0.6297 H   0  0  0  0  0  0  0  0  0  0  0  0
    1.9339    0.1218    0.9823 H   0  0  0  0  0  0  0  0  0  0  0  0
    3.0900   -2.4819   -0.1454 H   0  0  0  0  0  0  0  0  0  0  0  0
    3.1081   -2.4447    2.2380 H   0  0  0  0  0  0  0  0  0  0  0  0
    3.8063   -0.8192    2.3376 H   0  0  0  0  0  0  0  0  0  0  0  0
    4.8142   -2.2231    1.7092 H   0  0  0  0  0  0  0  0  0  0  0  0
    5.8816   -0.8062    0.7027 H   0  0  0  0  0  0  0  0  0  0  0  0
    7.1918    0.7552   -0.7294 H   0  0  0  0  0  0  0  0  0  0  0  0
    0.2220    1.0544    1.2282 H   0  0  0  0  0  0  0  0  0  0  0  0
  1  2  1  0
  2  3  2  0
  3  4  1  0
  4  5  2  0
  5  6  1  0
  6  7  2  0
  7  8  1  0
  8  9  1  0
  9 10  1  0
 10 11  1  0
 11 12  1  0
 12 13  1  0
 13 14  1  0
  8 15  2  0
 15 16  1  0
 16 17  1  0
 17 18  2  0
 17 19  1  0
 19 20  1  0
 20 21  1  0
 20 22  1  0
 22 23  2  0
 23 24  1  0
 24 25  2  0
 25 26  1  0
 26 27  1  0
 26 28  1  0
 26 29  1  0
 25 30  1  0
 30 31  2  0
 16 32  2  0
  5 33  1  0
 33  2  1  0
 32  6  1  0
 14 10  1  0
 31 22  1  0
  1 34  1  0
  1 35  1  0
  1 36  1  0
  3 37  1  0
  7 38  1  0
 10 39  1  6
 11 40  1  0
 11 41  1  0
 12 42  1  0
 12 43  1  0
 14 44  1  0
 14 45  1  0
 15 46  1  0
 19 47  1  0
 20 48  1  6
 21 49  1  0
 21 50  1  0
 21 51  1  0
 23 52  1  0
 24 53  1  0
 32 54  1  0
M  END
$$$$
