@<TRIPOS>MOLECULE
*****
 54 57 0 0 0
SMALL
GASTEIGER

@<TRIPOS>ATOM
      1 C          -1.0081    5.9327    3.4522 C.3     1  UNL1       -0.0319
      2 C          -1.5387    4.7616    2.8182 C.ar    1  UNL1        0.0068
      3 C          -2.7894    4.3550    2.4689 C.ar    1  UNL1        0.0383
      4 N          -2.9392    3.2070    1.8923 N.ar    1  UNL1       -0.2471
      5 C          -2.0399    2.3947    1.6061 C.ar    1  UNL1        0.1086
      6 C          -1.8829    1.0976    0.9941 C.ar    1  UNL1        0.0113
      7 C          -3.0065    0.4488    0.5424 C.ar    1  UNL1       -0.0102
      8 C          -2.8955   -0.8132   -0.0579 C.ar    1  UNL1        0.1224
      9 O          -4.0391   -1.4081   -0.4859 O.3     1  UNL1       -0.4864
     10 C          -4.1338   -2.6310   -1.0923 C.3     1  UNL1        0.1254
     11 C          -4.7932   -2.5710   -2.4728 C.3     1  UNL1        0.0099
     12 C          -5.2745   -3.9910   -2.6072 C.3     1  UNL1        0.0512
     13 O          -5.4756   -4.5073   -1.3604 O.3     1  UNL1       -0.3760
     14 C          -5.1105   -3.5792   -0.4129 C.3     1  UNL1        0.0846
     15 C          -1.6500   -1.3449   -0.1657 C.ar    1  UNL1       -0.0078
     16 C          -0.4870   -0.6949    0.2914 C.ar    1  UNL1        0.0408
     17 C           0.7616   -1.4032    0.0981 C.2     1  UNL1        0.2447
     18 O           0.8020   -2.5467   -0.4535 O.2     1  UNL1       -0.2702
     19 N           1.9716   -0.8109    0.5330 N.am    1  UNL1       -0.3032
     20 C           3.2585   -1.5054    0.3509 C.3     1  UNL1        0.0646
     21 C           3.8292   -1.7502    1.7260 C.3     1  UNL1       -0.0409
     22 C           4.1135   -0.5894   -0.4474 C.ar    1  UNL1        0.0835
     23 C           5.4336   -0.3299   -0.1477 C.ar    1  UNL1       -0.0348
     24 C           6.1645    0.5465   -0.9537 C.ar    1  UNL1       -0.0281
     25 C           5.5725    1.1495   -2.0424 C.ar    1  UNL1        0.1658
     26 C           6.3680    2.0918   -2.9040 C.3     1  UNL1        0.4359
     27 F           5.6483    2.4733   -4.0047 F       1  UNL1       -0.1644
     28 F           6.7193    3.2221   -2.2007 F       1  UNL1       -0.1644
     29 F           7.5130    1.4618   -3.3561 F       1  UNL1       -0.1644
     30 N           4.2864    0.8623   -2.2888 N.ar    1  UNL1       -0.1449
     31 N           3.6039    0.0371   -1.5271 N.ar    1  UNL1       -0.1519
     32 C          -0.6276    0.5232    0.8669 C.ar    1  UNL1       -0.0397
     33 S          -0.5569    3.3371    2.2441 S.2     1  UNL1       -0.0725
     34 H          -1.4428    6.0583    4.4803 H       1  UNL1        0.0283
     35 H           0.0854    5.8706    3.5293 H       1  UNL1        0.0283
     36 H          -1.2805    6.8435    2.8779 H       1  UNL1        0.0283
     37 H          -3.6483    5.0468    2.7014 H       1  UNL1        0.0838
     38 H          -3.9743    0.9350    0.6616 H       1  UNL1        0.0661
     39 H          -3.1890   -3.1762   -1.2427 H       1  UNL1        0.0757
     40 H          -4.0422   -2.3024   -3.2421 H       1  UNL1        0.0324
     41 H          -5.6384   -1.8645   -2.4780 H       1  UNL1        0.0324
     42 H          -6.1955   -4.0672   -3.2348 H       1  UNL1        0.0561
     43 H          -4.4394   -4.5578   -3.1129 H       1  UNL1        0.0561
     44 H          -5.9706   -3.0204    0.0115 H       1  UNL1        0.0597
     45 H          -4.5648   -4.0225    0.4516 H       1  UNL1        0.0597
     46 H          -1.5450   -2.3252   -0.6297 H       1  UNL1        0.0662
     47 H           1.9339    0.1218    0.9823 H       1  UNL1        0.1497
     48 H           3.0900   -2.4819   -0.1454 H       1  UNL1        0.0561
     49 H           3.1081   -2.4447    2.2380 H       1  UNL1        0.0251
     50 H           3.8063   -0.8192    2.3376 H       1  UNL1        0.0251
     51 H           4.8142   -2.2231    1.7092 H       1  UNL1        0.0251
     52 H           5.8816   -0.8062    0.7027 H       1  UNL1        0.0637
     53 H           7.1918    0.7552   -0.7294 H       1  UNL1        0.0639
     54 H           0.2220    1.0544    1.2282 H       1  UNL1        0.0632
@<TRIPOS>BOND
     1     1     2    1
     2     2     3   ar
     3     3     4   ar
     4     4     5   ar
     5     5     6    1
     6     6     7   ar
     7     7     8   ar
     8     8     9    1
     9     9    10    1
    10    10    11    1
    11    11    12    1
    12    12    13    1
    13    13    14    1
    14     8    15   ar
    15    15    16   ar
    16    16    17    1
    17    17    18    2
    18    17    19   am
    19    19    20    1
    20    20    21    1
    21    20    22    1
    22    22    23   ar
    23    23    24   ar
    24    24    25   ar
    25    25    26    1
    26    26    27    1
    27    26    28    1
    28    26    29    1
    29    25    30   ar
    30    30    31   ar
    31    16    32   ar
    32     5    33   ar
    33    33     2   ar
    34    32     6   ar
    35    14    10    1
    36    31    22   ar
    37     1    34    1
    38     1    35    1
    39     1    36    1
    40     3    37    1
    41     7    38    1
    42    10    39    1
    43    11    40    1
    44    11    41    1
    45    12    42    1
    46    12    43    1
    47    14    44    1
    48    14    45    1
    49    15    46    1
    50    19    47    1
    51    20    48    1
    52    21    49    1
    53    21    50    1
    54    21    51    1
    55    23    52    1
    56    24    53    1
    57    32    54    1
