@<TRIPOS>MOLECULE
*****
 67 68 0 0 0
SMALL
GASTEIGER

@<TRIPOS>ATOM
      1 C           9.9057   -0.4412   -0.4180 C.3     1  UNL1       -0.0653
      2 C           8.7630    0.4270   -0.9139 C.3     1  UNL1       -0.0559
      3 C           7.9619    0.8599    0.3030 C.3     1  UNL1       -0.0533
      4 C           7.4286   -0.3560    1.0166 C.3     1  UNL1       -0.0531
      5 C           6.5283   -1.1996    0.1646 C.3     1  UNL1       -0.0531
      6 C           5.3122   -0.4367   -0.3196 C.3     1  UNL1       -0.0531
      7 C           4.4759    0.0691    0.8323 C.3     1  UNL1       -0.0531
      8 C           3.3068    0.8192    0.2766 C.3     1  UNL1       -0.0530
      9 C           2.4579   -0.0294   -0.5814 C.3     1  UNL1       -0.0514
     10 C           1.8587   -1.2317    0.0447 C.3     1  UNL1       -0.0333
     11 C           0.9572   -0.9688    1.2101 C.3     1  UNL1        0.0432
     12 N          -0.1634   -0.1197    0.7714 N.ar    1  UNL1       -0.2514
     13 C          -1.3534   -0.5163    0.2859 C.ar    1  UNL1        0.0499
     14 C          -2.1306    0.5837   -0.0107 C.ar    1  UNL1        0.0965
     15 C          -3.5095    0.6062   -0.5660 C.3     1  UNL1        0.0421
     16 N          -4.4961    0.5958    0.4623 N.3     1  UNL1       -0.3031
     17 C          -5.8070    0.6180   -0.1163 C.3     1  UNL1        0.0652
     18 C          -6.1081   -0.5407   -1.0098 C.3     1  UNL1        0.1013
     19 O          -5.7059   -0.2759   -2.3377 O.3     1  UNL1       -0.3875
     20 C          -7.5917   -0.8368   -1.0673 C.3     1  UNL1        0.1108
     21 O          -7.9426   -1.8532   -0.1731 O.3     1  UNL1       -0.3865
     22 C          -8.4340    0.3922   -0.8421 C.3     1  UNL1        0.1117
     23 O          -8.2882    1.2289   -1.9497 O.3     1  UNL1       -0.3865
     24 C          -8.1344    1.0979    0.4406 C.3     1  UNL1        0.1108
     25 O          -9.1377    0.9515    1.3984 O.3     1  UNL1       -0.3865
     26 C          -6.8286    0.5948    1.0203 C.3     1  UNL1        0.1013
     27 O          -6.3386    1.4294    2.0165 O.3     1  UNL1       -0.3875
     28 N          -1.3504    1.6503    0.3197 N.ar    1  UNL1       -0.1332
     29 N          -0.1917    1.2056    0.7799 N.ar    1  UNL1       -0.0654
     30 H          10.1144   -0.1931    0.6388 H       1  UNL1        0.0230
     31 H           9.6216   -1.4936   -0.5211 H       1  UNL1        0.0230
     32 H          10.8311   -0.2301   -0.9948 H       1  UNL1        0.0230
     33 H           8.1136   -0.1228   -1.6029 H       1  UNL1        0.0263
     34 H           9.1796    1.3203   -1.4263 H       1  UNL1        0.0263
     35 H           7.1753    1.5477   -0.0256 H       1  UNL1        0.0265
     36 H           8.6042    1.4021    1.0269 H       1  UNL1        0.0265
     37 H           8.3094   -0.9826    1.2808 H       1  UNL1        0.0265
     38 H           6.9244   -0.0806    1.9569 H       1  UNL1        0.0265
     39 H           7.0352   -1.6070   -0.7120 H       1  UNL1        0.0265
     40 H           6.1642   -2.0366    0.7697 H       1  UNL1        0.0265
     41 H           5.5984    0.3525   -1.0367 H       1  UNL1        0.0265
     42 H           4.7226   -1.2021   -0.9055 H       1  UNL1        0.0265
     43 H           4.1555   -0.8551    1.3950 H       1  UNL1        0.0265
     44 H           5.0686    0.6610    1.5489 H       1  UNL1        0.0265
     45 H           2.7599    1.4112    1.0379 H       1  UNL1        0.0265
     46 H           3.7536    1.6114   -0.4004 H       1  UNL1        0.0265
     47 H           3.0242   -0.3150   -1.4868 H       1  UNL1        0.0266
     48 H           1.6419    0.6464   -0.9906 H       1  UNL1        0.0266
     49 H           1.2688   -1.7686   -0.7285 H       1  UNL1        0.0283
     50 H           2.6470   -1.9407    0.3727 H       1  UNL1        0.0283
     51 H           1.4169   -0.4750    2.0581 H       1  UNL1        0.0509
     52 H           0.4817   -1.9039    1.5701 H       1  UNL1        0.0509
     53 H          -1.6420   -1.5445    0.1542 H       1  UNL1        0.0845
     54 H          -3.6017    1.5880   -1.1142 H       1  UNL1        0.0490
     55 H          -3.6072   -0.2036   -1.3043 H       1  UNL1        0.0490
     56 H          -4.3893   -0.1297    1.1762 H       1  UNL1        0.1227
     57 H          -5.9872    1.5512   -0.6818 H       1  UNL1        0.0513
     58 H          -5.5702   -1.4482   -0.6490 H       1  UNL1        0.0636
     59 H          -5.8066   -1.0979   -2.8585 H       1  UNL1        0.2100
     60 H          -7.8600   -1.2203   -2.0846 H       1  UNL1        0.0646
     61 H          -7.1960   -2.5055   -0.2006 H       1  UNL1        0.2100
     62 H          -9.4861    0.0712   -0.8219 H       1  UNL1        0.0647
     63 H          -8.0996    2.1391   -1.6614 H       1  UNL1        0.2100
     64 H          -7.9643    2.1760    0.1932 H       1  UNL1        0.0646
     65 H          -9.2088    1.8389    1.8756 H       1  UNL1        0.2100
     66 H          -6.9179   -0.4518    1.3987 H       1  UNL1        0.0636
     67 H          -6.7195    1.1676    2.8836 H       1  UNL1        0.2100
@<TRIPOS>BOND
     1     1     2    1
     2     2     3    1
     3     3     4    1
     4     4     5    1
     5     5     6    1
     6     6     7    1
     7     7     8    1
     8     8     9    1
     9     9    10    1
    10    10    11    1
    11    11    12    1
    12    12    13   ar
    13    13    14   ar
    14    14    15    1
    15    15    16    1
    16    16    17    1
    17    17    18    1
    18    18    19    1
    19    18    20    1
    20    20    21    1
    21    20    22    1
    22    22    23    1
    23    22    24    1
    24    24    25    1
    25    24    26    1
    26    26    27    1
    27    14    28   ar
    28    28    29   ar
    29    29    12   ar
    30    26    17    1
    31     1    30    1
    32     1    31    1
    33     1    32    1
    34     2    33    1
    35     2    34    1
    36     3    35    1
    37     3    36    1
    38     4    37    1
    39     4    38    1
    40     5    39    1
    41     5    40    1
    42     6    41    1
    43     6    42    1
    44     7    43    1
    45     7    44    1
    46     8    45    1
    47     8    46    1
    48     9    47    1
    49     9    48    1
    50    10    49    1
    51    10    50    1
    52    11    51    1
    53    11    52    1
    54    13    53    1
    55    15    54    1
    56    15    55    1
    57    16    56    1
    58    17    57    1
    59    18    58    1
    60    19    59    1
    61    20    60    1
    62    21    61    1
    63    22    62    1
    64    23    63    1
    65    24    64    1
    66    25    65    1
    67    26    66    1
    68    27    67    1
