
     RDKit          3D

 67 68  0  0  0  0  0  0  0  0999 V2000
    9.9057   -0.4412   -0.4180 C   0  0  0  0  0  0  0  0  0  0  0  0
    8.7630    0.4270   -0.9139 C   0  0  0  0  0  0  0  0  0  0  0  0
    7.9619    0.8599    0.3030 C   0  0  0  0  0  0  0  0  0  0  0  0
    7.4286   -0.3560    1.0166 C   0  0  0  0  0  0  0  0  0  0  0  0
    6.5283   -1.1996    0.1646 C   0  0  0  0  0  0  0  0  0  0  0  0
    5.3122   -0.4367   -0.3196 C   0  0  0  0  0  0  0  0  0  0  0  0
    4.4759    0.0691    0.8323 C   0  0  0  0  0  0  0  0  0  0  0  0
    3.3068    0.8192    0.2766 C   0  0  0  0  0  0  0  0  0  0  0  0
    2.4579   -0.0294   -0.5814 C   0  0  0  0  0  0  0  0  0  0  0  0
    1.8587   -1.2317    0.0447 C   0  0  0  0  0  0  0  0  0  0  0  0
    0.9572   -0.9688    1.2101 C   0  0  0  0  0  0  0  0  0  0  0  0
   -0.1634   -0.1197    0.7714 N   0  0  0  0  0  0  0  0  0  0  0  0
   -1.3534   -0.5163    0.2859 C   0  0  0  0  0  0  0  0  0  0  0  0
   -2.1306    0.5837   -0.0107 C   0  0  0  0  0  0  0  0  0  0  0  0
   -3.5095    0.6062   -0.5660 C   0  0  0  0  0  0  0  0  0  0  0  0
   -4.4961    0.5958    0.4623 N   0  0  0  0  0  0  0  0  0  0  0  0
   -5.8070    0.6180   -0.1163 C   0  0  1  0  0  0  0  0  0  0  0  0
   -6.1081   -0.5407   -1.0098 C   0  0  2  0  0  0  0  0  0  0  0  0
   -5.7059   -0.2759   -2.3377 O   0  0  0  0  0  0  0  0  0  0  0  0
   -7.5917   -0.8368   -1.0673 C   0  0  1  0  0  0  0  0  0  0  0  0
   -7.9426   -1.8532   -0.1731 O   0  0  0  0  0  0  0  0  0  0  0  0
   -8.4340    0.3922   -0.8421 C   0  0  2  0  0  0  0  0  0  0  0  0
   -8.2882    1.2289   -1.9497 O   0  0  0  0  0  0  0  0  0  0  0  0
   -8.1344    1.0979    0.4406 C   0  0  1  0  0  0  0  0  0  0  0  0
   -9.1377    0.9515    1.3984 O   0  0  0  0  0  0  0  0  0  0  0  0
   -6.8286    0.5948    1.0203 C   0  0  2  0  0  0  0  0  0  0  0  0
   -6.3386    1.4294    2.0165 O   0  0  0  0  0  0  0  0  0  0  0  0
   -1.3504    1.6503    0.3197 N   0  0  0  0  0  0  0  0  0  0  0  0
   -0.1917    1.2056    0.7799 N   0  0  0  0  0  0  0  0  0  0  0  0
   10.1144   -0.1931    0.6388 H   0  0  0  0  0  0  0  0  0  0  0  0
    9.6216   -1.4936   -0.5211 H   0  0  0  0  0  0  0  0  0  0  0  0
   10.8311   -0.2301   -0.9948 H   0  0  0  0  0  0  0  0  0  0  0  0
    8.1136   -0.1228   -1.6029 H   0  0  0  0  0  0  0  0  0  0  0  0
    9.1796    1.3203   -1.4263 H   0  0  0  0  0  0  0  0  0  0  0  0
    7.1753    1.5477   -0.0256 H   0  0  0  0  0  0  0  0  0  0  0  0
    8.6042    1.4021    1.0269 H   0  0  0  0  0  0  0  0  0  0  0  0
    8.3094   -0.9826    1.2808 H   0  0  0  0  0  0  0  0  0  0  0  0
    6.9244   -0.0806    1.9569 H   0  0  0  0  0  0  0  0  0  0  0  0
    7.0352   -1.6070   -0.7120 H   0  0  0  0  0  0  0  0  0  0  0  0
    6.1642   -2.0366    0.7697 H   0  0  0  0  0  0  0  0  0  0  0  0
    5.5984    0.3525   -1.0367 H   0  0  0  0  0  0  0  0  0  0  0  0
    4.7226   -1.2021   -0.9055 H   0  0  0  0  0  0  0  0  0  0  0  0
    4.1555   -0.8551    1.3950 H   0  0  0  0  0  0  0  0  0  0  0  0
    5.0686    0.6610    1.5489 H   0  0  0  0  0  0  0  0  0  0  0  0
    2.7599    1.4112    1.0379 H   0  0  0  0  0  0  0  0  0  0  0  0
    3.7536    1.6114   -0.4004 H   0  0  0  0  0  0  0  0  0  0  0  0
    3.0242   -0.3150   -1.4868 H   0  0  0  0  0  0  0  0  0  0  0  0
    1.6419    0.6464   -0.9906 H   0  0  0  0  0  0  0  0  0  0  0  0
    1.2688   -1.7686   -0.7285 H   0  0  0  0  0  0  0  0  0  0  0  0
    2.6470   -1.9407    0.3727 H   0  0  0  0  0  0  0  0  0  0  0  0
    1.4169   -0.4750    2.0581 H   0  0  0  0  0  0  0  0  0  0  0  0
    0.4817   -1.9039    1.5701 H   0  0  0  0  0  0  0  0  0  0  0  0
   -1.6420   -1.5445    0.1542 H   0  0  0  0  0  0  0  0  0  0  0  0
   -3.6017    1.5880   -1.1142 H   0  0  0  0  0  0  0  0  0  0  0  0
   -3.6072   -0.2036   -1.3043 H   0  0  0  0  0  0  0  0  0  0  0  0
   -4.3893   -0.1297    1.1762 H   0  0  0  0  0  0  0  0  0  0  0  0
   -5.9872    1.5512   -0.6818 H   0  0  0  0  0  0  0  0  0  0  0  0
   -5.5702   -1.4482   -0.6490 H   0  0  0  0  0  0  0  0  0  0  0  0
   -5.8066   -1.0979   -2.8585 H   0  0  0  0  0  0  0  0  0  0  0  0
   -7.8600   -1.2203   -2.0846 H   0  0  0  0  0  0  0  0  0  0  0  0
   -7.1960   -2.5055   -0.2006 H   0  0  0  0  0  0  0  0  0  0  0  0
   -9.4861    0.0712   -0.8219 H   0  0  0  0  0  0  0  0  0  0  0  0
   -8.0996    2.1391   -1.6614 H   0  0  0  0  0  0  0  0  0  0  0  0
   -7.9643    2.1760    0.1932 H   0  0  0  0  0  0  0  0  0  0  0  0
   -9.2088    1.8389    1.8756 H   0  0  0  0  0  0  0  0  0  0  0  0
   -6.9179   -0.4518    1.3987 H   0  0  0  0  0  0  0  0  0  0  0  0
   -6.7195    1.1676    2.8836 H   0  0  0  0  0  0  0  0  0  0  0  0
  1  2  1  0
  2  3  1  0
  3  4  1  0
  4  5  1  0
  5  6  1  0
  6  7  1  0
  7  8  1  0
  8  9  1  0
  9 10  1  0
 10 11  1  0
 11 12  1  0
 12 13  1  0
 13 14  2  0
 14 15  1  0
 15 16  1  0
 16 17  1  0
 17 18  1  0
 18 19  1  0
 18 20  1  0
 20 21  1  0
 20 22  1  0
 22 23  1  0
 22 24  1  0
 24 25  1  0
 24 26  1  0
 26 27  1  0
 14 28  1  0
 28 29  2  0
 29 12  1  0
 26 17  1  0
  1 30  1  0
  1 31  1  0
  1 32  1  0
  2 33  1  0
  2 34  1  0
  3 35  1  0
  3 36  1  0
  4 37  1  0
  4 38  1  0
  5 39  1  0
  5 40  1  0
  6 41  1  0
  6 42  1  0
  7 43  1  0
  7 44  1  0
  8 45  1  0
  8 46  1  0
  9 47  1  0
  9 48  1  0
 10 49  1  0
 10 50  1  0
 11 51  1  0
 11 52  1  0
 13 53  1  0
 15 54  1  0
 15 55  1  0
 16 56  1  0
 17 57  1  6
 18 58  1  1
 19 59  1  0
 20 60  1  6
 21 61  1  0
 22 62  1  1
 23 63  1  0
 24 64  1  6
 25 65  1  0
 26 66  1  1
 27 67  1  0
M  END
$$$$
