
     RDKit          3D

 46 49  0  0  0  0  0  0  0  0999 V2000
    7.9487    0.1461    0.8413 N   0  0  0  0  0  0  0  0  0  0  0  0
    6.9087    0.9372    0.2878 C   0  0  0  0  0  0  0  0  0  0  0  0
    7.5673    1.9940   -0.0508 N   0  0  0  0  0  4  0  0  0  0  0  0
    5.4791    0.9001    0.0214 C   0  0  0  0  0  0  0  0  0  0  0  0
    5.0670    1.5806   -1.0960 C   0  0  0  0  0  0  0  0  0  0  0  0
    6.1359    2.4576   -2.1770 Cl  0  0  0  0  0  0  0  0  0  0  0  0
    3.7165    1.5665   -1.3792 C   0  0  0  0  0  0  0  0  0  0  0  0
    2.8432    0.8800   -0.5422 C   0  0  0  0  0  0  0  0  0  0  0  0
    1.5133    0.6921   -0.5556 N   0  0  0  0  0  0  0  0  0  0  0  0
    1.0720   -0.0525    0.4684 C   0  0  0  0  0  0  0  0  0  0  0  0
    2.2062   -0.3579    1.1819 C   0  0  0  0  0  0  0  0  0  0  0  0
    3.2893    0.2122    0.5641 C   0  0  0  0  0  0  0  0  0  0  0  0
    4.6334    0.2185    0.8573 C   0  0  0  0  0  0  0  0  0  0  0  0
   -0.2729   -0.4840    0.8262 C   0  0  0  0  0  0  0  0  0  0  0  0
   -0.4583   -1.2800    1.9629 C   0  0  0  0  0  0  0  0  0  0  0  0
   -1.6779   -1.7345    2.3867 C   0  0  0  0  0  0  0  0  0  0  0  0
   -2.7990   -1.3972    1.6623 C   0  0  0  0  0  0  0  0  0  0  0  0
   -2.6748   -0.6164    0.5358 C   0  0  0  0  0  0  0  0  0  0  0  0
   -3.7353   -0.2410   -0.2318 O   0  0  0  0  0  0  0  0  0  0  0  0
   -5.0825   -0.5189   -0.0883 C   0  0  0  0  0  0  0  0  0  0  0  0
   -5.9614    0.6752    0.0377 C   0  0  0  0  0  0  0  0  0  0  0  0
   -6.3957    0.9942   -1.3522 C   0  0  0  0  0  0  0  0  0  0  0  0
   -6.1450   -0.2069   -2.1941 C   0  0  0  0  0  0  0  0  0  0  0  0
   -5.6644   -1.3049   -1.2457 C   0  0  0  0  0  0  0  0  0  0  0  0
   -1.4123   -0.1670    0.1281 C   0  0  0  0  0  0  0  0  0  0  0  0
   -1.3078    0.6182   -1.0085 O   0  0  0  0  0  1  0  0  0  0  0  0
    8.2650   -0.0459    1.8181 H   0  0  0  0  0  0  0  0  0  0  0  0
    8.5964   -0.4051    0.2186 H   0  0  0  0  0  0  0  0  0  0  0  0
    8.3004    2.6890   -0.2145 H   0  0  0  0  0  0  0  0  0  0  0  0
    8.2287    2.7567   -0.2581 H   0  0  0  0  0  0  0  0  0  0  0  0
    3.3002    2.0833   -2.2513 H   0  0  0  0  0  0  0  0  0  0  0  0
    0.9243    1.1016   -1.3063 H   0  0  0  0  0  0  0  0  0  0  0  0
    2.2936   -0.9373    2.0754 H   0  0  0  0  0  0  0  0  0  0  0  0
    5.0650   -0.2805    1.7078 H   0  0  0  0  0  0  0  0  0  0  0  0
    0.4093   -1.5559    2.5462 H   0  0  0  0  0  0  0  0  0  0  0  0
   -1.7394   -2.3494    3.2812 H   0  0  0  0  0  0  0  0  0  0  0  0
   -3.7495   -1.7667    2.0152 H   0  0  0  0  0  0  0  0  0  0  0  0
   -5.2393   -1.1494    0.8104 H   0  0  0  0  0  0  0  0  0  0  0  0
   -5.4418    1.5724    0.4326 H   0  0  0  0  0  0  0  0  0  0  0  0
   -6.7956    0.4601    0.7280 H   0  0  0  0  0  0  0  0  0  0  0  0
   -5.7834    1.8340   -1.7799 H   0  0  0  0  0  0  0  0  0  0  0  0
   -7.4717    1.2843   -1.3065 H   0  0  0  0  0  0  0  0  0  0  0  0
   -7.0505   -0.4861   -2.7497 H   0  0  0  0  0  0  0  0  0  0  0  0
   -5.3602   -0.0249   -2.9793 H   0  0  0  0  0  0  0  0  0  0  0  0
   -4.9753   -2.0075   -1.7121 H   0  0  0  0  0  0  0  0  0  0  0  0
   -6.5696   -1.8610   -0.9165 H   0  0  0  0  0  0  0  0  0  0  0  0
  1  2  1  0
  2  3  2  0
  2  4  1  0
  4  5  2  0
  5  6  1  0
  5  7  1  0
  7  8  2  0
  8  9  1  0
  9 10  1  0
 10 11  2  0
 11 12  1  0
 12 13  2  0
 10 14  1  0
 14 15  2  0
 15 16  1  0
 16 17  2  0
 17 18  1  0
 18 19  1  0
 19 20  1  0
 20 21  1  0
 21 22  1  0
 22 23  1  0
 23 24  1  0
 18 25  2  0
 25 26  1  0
 13  4  1  0
 25 14  1  0
 12  8  1  0
 24 20  1  0
  1 27  1  0
  1 28  1  0
  3 29  1  0
  3 30  1  0
  7 31  1  0
  9 32  1  0
 11 33  1  0
 13 34  1  0
 15 35  1  0
 16 36  1  0
 17 37  1  0
 20 38  1  0
 21 39  1  0
 21 40  1  0
 22 41  1  0
 22 42  1  0
 23 43  1  0
 23 44  1  0
 24 45  1  0
 24 46  1  0
M  CHG  2   3   1  26  -1
M  END
$$$$
