@<TRIPOS>MOLECULE
*****
 46 49 0 0 0
SMALL
GASTEIGER

@<TRIPOS>ATOM
      1 N           7.9487    0.1461    0.8413 N.pl3   1  UNL1       -0.2497
      2 C           6.9087    0.9372    0.2878 C.2     1  UNL1        0.2676
      3 N           7.5673    1.9940   -0.0508 N.2     1  UNL1       -0.2884
      4 C           5.4791    0.9001    0.0214 C.ar    1  UNL1        0.0797
      5 C           5.0670    1.5806   -1.0960 C.ar    1  UNL1        0.0576
      6 CL          6.1359    2.4576   -2.1770 Cl      1  UNL1       -0.0826
      7 C           3.7165    1.5665   -1.3792 C.ar    1  UNL1       -0.0186
      8 C           2.8432    0.8800   -0.5422 C.ar    1  UNL1        0.0483
      9 N           1.5133    0.6921   -0.5556 N.ar    1  UNL1       -0.3541
     10 C           1.0720   -0.0525    0.4684 C.ar    1  UNL1        0.0470
     11 C           2.2062   -0.3579    1.1819 C.ar    1  UNL1       -0.0287
     12 C           3.2893    0.2122    0.5641 C.ar    1  UNL1        0.0011
     13 C           4.6334    0.2185    0.8573 C.ar    1  UNL1       -0.0364
     14 C          -0.2729   -0.4840    0.8262 C.ar    1  UNL1       -0.0059
     15 C          -0.4583   -1.2800    1.9629 C.ar    1  UNL1       -0.0530
     16 C          -1.6779   -1.7345    2.3867 C.ar    1  UNL1       -0.0577
     17 C          -2.7990   -1.3972    1.6623 C.ar    1  UNL1       -0.0205
     18 C          -2.6748   -0.6164    0.5358 C.ar    1  UNL1        0.1139
     19 O          -3.7353   -0.2410   -0.2318 O.3     1  UNL1       -0.4894
     20 C          -5.0825   -0.5189   -0.0883 C.3     1  UNL1        0.1002
     21 C          -5.9614    0.6752    0.0377 C.3     1  UNL1       -0.0158
     22 C          -6.3957    0.9942   -1.3522 C.3     1  UNL1       -0.0496
     23 C          -6.1450   -0.2069   -2.1941 C.3     1  UNL1       -0.0496
     24 C          -5.6644   -1.3049   -1.2457 C.3     1  UNL1       -0.0158
     25 C          -1.4123   -0.1670    0.1281 C.ar    1  UNL1       -0.0560
     26 O          -1.3078    0.6182   -1.0085 O.co2   1  UNL1       -0.8709
     27 H           8.2650   -0.0459    1.8181 H       1  UNL1        0.2883
     28 H           8.5964   -0.4051    0.2186 H       1  UNL1        0.2883
     29 H           8.3004    2.6890   -0.2145 H       1  UNL1        0.3009
     30 H           8.2287    2.7567   -0.2581 H       1  UNL1        0.3009
     31 H           3.3002    2.0833   -2.2513 H       1  UNL1        0.0653
     32 H           0.9243    1.1016   -1.3063 H       1  UNL1        0.1659
     33 H           2.2936   -0.9373    2.0754 H       1  UNL1        0.0645
     34 H           5.0650   -0.2805    1.7078 H       1  UNL1        0.0633
     35 H           0.4093   -1.5559    2.5462 H       1  UNL1        0.0624
     36 H          -1.7394   -2.3494    3.2812 H       1  UNL1        0.0619
     37 H          -3.7495   -1.7667    2.0152 H       1  UNL1        0.0654
     38 H          -5.2393   -1.1494    0.8104 H       1  UNL1        0.0733
     39 H          -5.4418    1.5724    0.4326 H       1  UNL1        0.0301
     40 H          -6.7956    0.4601    0.7280 H       1  UNL1        0.0301
     41 H          -5.7834    1.8340   -1.7799 H       1  UNL1        0.0266
     42 H          -7.4717    1.2843   -1.3065 H       1  UNL1        0.0266
     43 H          -7.0505   -0.4861   -2.7497 H       1  UNL1        0.0266
     44 H          -5.3602   -0.0249   -2.9793 H       1  UNL1        0.0266
     45 H          -4.9753   -2.0075   -1.7121 H       1  UNL1        0.0301
     46 H          -6.5696   -1.8610   -0.9165 H       1  UNL1        0.0301
@<TRIPOS>UNITY_ATOM_ATTR
3 1
charge 1
26 1
charge -1
@<TRIPOS>BOND
     1     1     2    1
     2     2     3    2
     3     2     4    1
     4     4     5   ar
     5     5     6    1
     6     5     7   ar
     7     7     8   ar
     8     8     9   ar
     9     9    10   ar
    10    10    11   ar
    11    11    12   ar
    12    12    13   ar
    13    10    14    1
    14    14    15   ar
    15    15    16   ar
    16    16    17   ar
    17    17    18   ar
    18    18    19    1
    19    19    20    1
    20    20    21    1
    21    21    22    1
    22    22    23    1
    23    23    24    1
    24    18    25   ar
    25    25    26    1
    26    13     4   ar
    27    25    14   ar
    28    12     8   ar
    29    24    20    1
    30     1    27    1
    31     1    28    1
    32     3    29    1
    33     3    30    1
    34     7    31    1
    35     9    32    1
    36    11    33    1
    37    13    34    1
    38    15    35    1
    39    16    36    1
    40    17    37    1
    41    20    38    1
    42    21    39    1
    43    21    40    1
    44    22    41    1
    45    22    42    1
    46    23    43    1
    47    23    44    1
    48    24    45    1
    49    24    46    1
