@<TRIPOS>MOLECULE
*****
 42 43 0 0 0
SMALL
GASTEIGER

@<TRIPOS>ATOM
      1 C          -1.7619   -0.2596   -3.2780 C.3     1  UNL1        0.0790
      2 O          -2.7840    0.1144   -2.4085 O.3     1  UNL1       -0.4913
      3 C          -2.6525    0.3784   -1.0763 C.ar    1  UNL1        0.1658
      4 C          -1.3943    0.2797   -0.4728 C.ar    1  UNL1       -0.0053
      5 C          -1.2540    0.5440    0.8687 C.ar    1  UNL1        0.0288
      6 C           0.0239    0.4506    1.5133 C.2     1  UNL1        0.1863
      7 O           0.1382    0.6954    2.7425 O.2     1  UNL1       -0.2873
      8 C           1.2235    0.0745    0.7839 C.2     1  UNL1       -0.0138
      9 C           2.4097   -0.0094    1.3951 C.2     1  UNL1       -0.0508
     10 C           3.6232   -0.3814    0.6959 C.ar    1  UNL1       -0.0212
     11 C           3.7254   -0.6877   -0.6360 C.ar    1  UNL1       -0.0509
     12 C           4.9209   -1.0350   -1.2354 C.ar    1  UNL1       -0.0160
     13 C           6.0797   -1.0863   -0.4957 C.ar    1  UNL1        0.1582
     14 O           7.2769   -1.4382   -1.1150 O.3     1  UNL1       -0.5033
     15 C           6.0143   -0.7836    0.8508 C.ar    1  UNL1        0.1588
     16 O           7.1929   -0.8436    1.5671 O.3     1  UNL1       -0.5033
     17 C           4.8094   -0.4392    1.4291 C.ar    1  UNL1       -0.0094
     18 C          -2.3549    0.9139    1.6528 C.ar    1  UNL1       -0.0053
     19 C          -3.5707    1.0006    1.0293 C.ar    1  UNL1        0.1658
     20 O          -4.6776    1.3608    1.7632 O.3     1  UNL1       -0.4913
     21 C          -4.5949    1.6434    3.1407 C.3     1  UNL1        0.0790
     22 C          -3.7514    0.7401   -0.3282 C.ar    1  UNL1        0.2035
     23 O          -5.0228    0.8538   -0.8737 O.3     1  UNL1       -0.4885
     24 C          -5.8877   -0.2670   -0.8981 C.3     1  UNL1        0.0791
     25 H          -2.1366   -0.1393   -4.3254 H       1  UNL1        0.0660
     26 H          -0.8127    0.2585   -3.1372 H       1  UNL1        0.0660
     27 H          -1.5857   -1.3685   -3.1591 H       1  UNL1        0.0660
     28 H          -0.5813   -0.0085   -1.1211 H       1  UNL1        0.0662
     29 H           1.1888   -0.1474   -0.2725 H       1  UNL1        0.0656
     30 H           2.3991    0.2208    2.4515 H       1  UNL1        0.0625
     31 H           2.8467   -0.6609   -1.2531 H       1  UNL1        0.0625
     32 H           4.9913   -1.2759   -2.2914 H       1  UNL1        0.0655
     33 H           8.1325   -1.3785   -0.5592 H       1  UNL1        0.2923
     34 H           7.3326   -1.6035    2.2372 H       1  UNL1        0.2923
     35 H           4.7778   -0.2020    2.5005 H       1  UNL1        0.0661
     36 H          -2.2250    1.1205    2.7182 H       1  UNL1        0.0662
     37 H          -3.8728    2.4845    3.2682 H       1  UNL1        0.0660
     38 H          -5.5692    1.8878    3.5611 H       1  UNL1        0.0660
     39 H          -4.2316    0.7207    3.6652 H       1  UNL1        0.0660
     40 H          -6.1321   -0.5628   -1.9237 H       1  UNL1        0.0660
     41 H          -5.4318   -1.1517   -0.3945 H       1  UNL1        0.0660
     42 H          -6.8212   -0.0124   -0.3453 H       1  UNL1        0.0660
@<TRIPOS>BOND
     1     1     2    1
     2     2     3    1
     3     3     4   ar
     4     4     5   ar
     5     5     6    1
     6     6     7    2
     7     6     8    1
     8     8     9    2
     9     9    10    1
    10    10    11   ar
    11    11    12   ar
    12    12    13   ar
    13    13    14    1
    14    13    15   ar
    15    15    16    1
    16    15    17   ar
    17     5    18   ar
    18    18    19   ar
    19    19    20    1
    20    20    21    1
    21    19    22   ar
    22    22    23    1
    23    23    24    1
    24    22     3   ar
    25    17    10   ar
    26     1    25    1
    27     1    26    1
    28     1    27    1
    29     4    28    1
    30     8    29    1
    31     9    30    1
    32    11    31    1
    33    12    32    1
    34    14    33    1
    35    16    34    1
    36    17    35    1
    37    18    36    1
    38    21    37    1
    39    21    38    1
    40    21    39    1
    41    24    40    1
    42    24    41    1
    43    24    42    1
