
     RDKit          3D

 42 43  0  0  0  0  0  0  0  0999 V2000
   -1.7619   -0.2596   -3.2780 C   0  0  0  0  0  0  0  0  0  0  0  0
   -2.7840    0.1144   -2.4085 O   0  0  0  0  0  0  0  0  0  0  0  0
   -2.6525    0.3784   -1.0763 C   0  0  0  0  0  0  0  0  0  0  0  0
   -1.3943    0.2797   -0.4728 C   0  0  0  0  0  0  0  0  0  0  0  0
   -1.2540    0.5440    0.8687 C   0  0  0  0  0  0  0  0  0  0  0  0
    0.0239    0.4506    1.5133 C   0  0  0  0  0  0  0  0  0  0  0  0
    0.1382    0.6954    2.7425 O   0  0  0  0  0  0  0  0  0  0  0  0
    1.2235    0.0745    0.7839 C   0  0  0  0  0  0  0  0  0  0  0  0
    2.4097   -0.0094    1.3951 C   0  0  0  0  0  0  0  0  0  0  0  0
    3.6232   -0.3814    0.6959 C   0  0  0  0  0  0  0  0  0  0  0  0
    3.7254   -0.6877   -0.6360 C   0  0  0  0  0  0  0  0  0  0  0  0
    4.9209   -1.0350   -1.2354 C   0  0  0  0  0  0  0  0  0  0  0  0
    6.0797   -1.0863   -0.4957 C   0  0  0  0  0  0  0  0  0  0  0  0
    7.2769   -1.4382   -1.1150 O   0  0  0  0  0  0  0  0  0  0  0  0
    6.0143   -0.7836    0.8508 C   0  0  0  0  0  0  0  0  0  0  0  0
    7.1929   -0.8436    1.5671 O   0  0  0  0  0  0  0  0  0  0  0  0
    4.8094   -0.4392    1.4291 C   0  0  0  0  0  0  0  0  0  0  0  0
   -2.3549    0.9139    1.6528 C   0  0  0  0  0  0  0  0  0  0  0  0
   -3.5707    1.0006    1.0293 C   0  0  0  0  0  0  0  0  0  0  0  0
   -4.6776    1.3608    1.7632 O   0  0  0  0  0  0  0  0  0  0  0  0
   -4.5949    1.6434    3.1407 C   0  0  0  0  0  0  0  0  0  0  0  0
   -3.7514    0.7401   -0.3282 C   0  0  0  0  0  0  0  0  0  0  0  0
   -5.0228    0.8538   -0.8737 O   0  0  0  0  0  0  0  0  0  0  0  0
   -5.8877   -0.2670   -0.8981 C   0  0  0  0  0  0  0  0  0  0  0  0
   -2.1366   -0.1393   -4.3254 H   0  0  0  0  0  0  0  0  0  0  0  0
   -0.8127    0.2585   -3.1372 H   0  0  0  0  0  0  0  0  0  0  0  0
   -1.5857   -1.3685   -3.1591 H   0  0  0  0  0  0  0  0  0  0  0  0
   -0.5813   -0.0085   -1.1211 H   0  0  0  0  0  0  0  0  0  0  0  0
    1.1888   -0.1474   -0.2725 H   0  0  0  0  0  0  0  0  0  0  0  0
    2.3991    0.2208    2.4515 H   0  0  0  0  0  0  0  0  0  0  0  0
    2.8467   -0.6609   -1.2531 H   0  0  0  0  0  0  0  0  0  0  0  0
    4.9913   -1.2759   -2.2914 H   0  0  0  0  0  0  0  0  0  0  0  0
    8.1325   -1.3785   -0.5592 H   0  0  0  0  0  0  0  0  0  0  0  0
    7.3326   -1.6035    2.2372 H   0  0  0  0  0  0  0  0  0  0  0  0
    4.7778   -0.2020    2.5005 H   0  0  0  0  0  0  0  0  0  0  0  0
   -2.2250    1.1205    2.7182 H   0  0  0  0  0  0  0  0  0  0  0  0
   -3.8728    2.4845    3.2682 H   0  0  0  0  0  0  0  0  0  0  0  0
   -5.5692    1.8878    3.5611 H   0  0  0  0  0  0  0  0  0  0  0  0
   -4.2316    0.7207    3.6652 H   0  0  0  0  0  0  0  0  0  0  0  0
   -6.1321   -0.5628   -1.9237 H   0  0  0  0  0  0  0  0  0  0  0  0
   -5.4318   -1.1517   -0.3945 H   0  0  0  0  0  0  0  0  0  0  0  0
   -6.8212   -0.0124   -0.3453 H   0  0  0  0  0  0  0  0  0  0  0  0
  1  2  1  0
  2  3  1  0
  3  4  2  0
  4  5  1  0
  5  6  1  0
  6  7  2  0
  6  8  1  0
  8  9  2  0
  9 10  1  0
 10 11  2  0
 11 12  1  0
 12 13  2  0
 13 14  1  0
 13 15  1  0
 15 16  1  0
 15 17  2  0
  5 18  2  0
 18 19  1  0
 19 20  1  0
 20 21  1  0
 19 22  2  0
 22 23  1  0
 23 24  1  0
 22  3  1  0
 17 10  1  0
  1 25  1  0
  1 26  1  0
  1 27  1  0
  4 28  1  0
  8 29  1  0
  9 30  1  0
 11 31  1  0
 12 32  1  0
 14 33  1  0
 16 34  1  0
 17 35  1  0
 18 36  1  0
 21 37  1  0
 21 38  1  0
 21 39  1  0
 24 40  1  0
 24 41  1  0
 24 42  1  0
M  END
$$$$
