
     RDKit          3D

 52 56  0  0  0  0  0  0  0  0999 V2000
   -1.8647   -1.2042   -1.5522 O   0  0  0  0  0  0  0  0  0  0  0  0
   -1.5723   -0.0349   -1.1259 C   0  0  0  0  0  0  0  0  0  0  0  0
   -2.6737    0.7711   -0.7413 N   0  0  0  0  0  0  0  0  0  0  0  0
   -4.0546    0.2795   -0.8326 C   0  0  2  0  0  0  0  0  0  0  0  0
   -5.0946    1.3096   -1.3065 C   0  0  0  0  0  0  0  0  0  0  0  0
   -5.0015    0.8920    0.1191 C   0  0  1  0  0  0  0  0  0  0  0  0
   -6.1902    0.1206    0.6042 C   0  0  0  0  0  0  0  0  0  0  0  0
   -6.7669    0.3565    1.8150 C   0  0  0  0  0  0  0  0  0  0  0  0
   -7.8603   -0.3886    2.2038 C   0  0  0  0  0  0  0  0  0  0  0  0
   -8.3887   -1.3746    1.3906 C   0  0  0  0  0  0  0  0  0  0  0  0
   -7.7798   -1.5887    0.1682 C   0  0  0  0  0  0  0  0  0  0  0  0
   -6.6861   -0.8426   -0.2194 C   0  0  0  0  0  0  0  0  0  0  0  0
   -0.2376    0.3541   -1.0704 N   0  0  0  0  0  0  0  0  0  0  0  0
    0.8199   -0.5353   -1.4863 C   0  0  0  0  0  0  0  0  0  0  0  0
    1.9536    0.3021   -2.0509 C   0  0  0  0  0  0  0  0  0  0  0  0
    2.5424    1.1238   -0.9393 C   0  0  0  0  0  0  0  0  0  0  0  0
    3.4587    0.1889   -0.1909 C   0  0  0  0  0  0  0  0  0  0  0  0
    4.7920    0.3331   -0.1162 N   0  0  0  0  0  0  0  0  0  0  0  0
    5.3200   -0.6680    0.6269 C   0  0  0  0  0  0  0  0  0  0  0  0
    6.7178   -0.9064    0.9681 C   0  0  0  0  0  0  0  0  0  0  0  0
    7.6802    0.0760    0.8643 C   0  0  0  0  0  0  0  0  0  0  0  0
    9.0088   -0.1627    1.1925 C   0  0  0  0  0  0  0  0  0  0  0  0
    9.3489   -1.4245    1.6315 C   0  0  0  0  0  0  0  0  0  0  0  0
    8.3734   -2.3933    1.7287 C   0  0  0  0  0  0  0  0  0  0  0  0
    7.1020   -2.1135    1.3994 N   0  0  0  0  0  0  0  0  0  0  0  0
    4.2598   -1.4107    0.9910 N   0  0  0  0  0  0  0  0  0  0  0  0
    3.1761   -0.8745    0.4898 O   0  0  0  0  0  0  0  0  0  0  0  0
    1.5278    1.6484    0.0048 C   0  0  0  0  0  0  0  0  0  0  0  0
    0.1633    1.6554   -0.5997 C   0  0  0  0  0  0  0  0  0  0  0  0
   -2.4680    1.7299   -0.3901 H   0  0  0  0  0  0  0  0  0  0  0  0
   -4.1864   -0.7361   -1.2125 H   0  0  0  0  0  0  0  0  0  0  0  0
   -4.6955    2.3021   -1.5952 H   0  0  0  0  0  0  0  0  0  0  0  0
   -5.9039    0.9556   -1.9589 H   0  0  0  0  0  0  0  0  0  0  0  0
   -4.6457    1.6539    0.8222 H   0  0  0  0  0  0  0  0  0  0  0  0
   -6.3533    1.1326    2.4585 H   0  0  0  0  0  0  0  0  0  0  0  0
   -8.3392   -0.2148    3.1739 H   0  0  0  0  0  0  0  0  0  0  0  0
   -9.2592   -1.9588    1.7146 H   0  0  0  0  0  0  0  0  0  0  0  0
   -8.1634   -2.3606   -0.5121 H   0  0  0  0  0  0  0  0  0  0  0  0
   -6.2295   -1.0433   -1.2006 H   0  0  0  0  0  0  0  0  0  0  0  0
    1.1768   -1.1849   -0.6630 H   0  0  0  0  0  0  0  0  0  0  0  0
    0.4224   -1.1528   -2.3335 H   0  0  0  0  0  0  0  0  0  0  0  0
    2.7405   -0.3755   -2.4943 H   0  0  0  0  0  0  0  0  0  0  0  0
    1.5357    0.9489   -2.8491 H   0  0  0  0  0  0  0  0  0  0  0  0
    3.1809    1.9387   -1.3827 H   0  0  0  0  0  0  0  0  0  0  0  0
    7.3986    1.0550    0.5203 H   0  0  0  0  0  0  0  0  0  0  0  0
    9.7598    0.6358    1.1022 H   0  0  0  0  0  0  0  0  0  0  0  0
   10.3852   -1.5939    1.8825 H   0  0  0  0  0  0  0  0  0  0  0  0
    8.6561   -3.3947    2.0795 H   0  0  0  0  0  0  0  0  0  0  0  0
    1.5079    1.0334    0.9325 H   0  0  0  0  0  0  0  0  0  0  0  0
    1.7870    2.7097    0.2459 H   0  0  0  0  0  0  0  0  0  0  0  0
    0.1650    2.3392   -1.4814 H   0  0  0  0  0  0  0  0  0  0  0  0
   -0.5455    2.0914    0.1467 H   0  0  0  0  0  0  0  0  0  0  0  0
  1  2  2  0
  2  3  1  0
  3  4  1  0
  4  5  1  0
  5  6  1  0
  6  7  1  0
  7  8  2  0
  8  9  1  0
  9 10  2  0
 10 11  1  0
 11 12  2  0
  2 13  1  0
 13 14  1  0
 14 15  1  0
 15 16  1  0
 16 17  1  0
 17 18  2  0
 18 19  1  0
 19 20  1  0
 20 21  2  0
 21 22  1  0
 22 23  2  0
 23 24  1  0
 24 25  2  0
 19 26  2  0
 26 27  1  0
 16 28  1  0
 28 29  1  0
  6  4  1  0
 12  7  1  0
 29 13  1  0
 27 17  1  0
 25 20  1  0
  3 30  1  0
  4 31  1  6
  5 32  1  0
  5 33  1  0
  6 34  1  1
  8 35  1  0
  9 36  1  0
 10 37  1  0
 11 38  1  0
 12 39  1  0
 14 40  1  0
 14 41  1  0
 15 42  1  0
 15 43  1  0
 16 44  1  0
 21 45  1  0
 22 46  1  0
 23 47  1  0
 24 48  1  0
 28 49  1  0
 28 50  1  0
 29 51  1  0
 29 52  1  0
M  END
$$$$
