@<TRIPOS>MOLECULE
*****
 52 56 0 0 0
SMALL
GASTEIGER

@<TRIPOS>ATOM
      1 O          -1.8647   -1.2042   -1.5522 O.2     1  UNL1       -0.2526
      2 C          -1.5723   -0.0349   -1.1259 C.2     1  UNL1        0.3024
      3 N          -2.6737    0.7711   -0.7413 N.am    1  UNL1       -0.2958
      4 C          -4.0546    0.2795   -0.8326 C.3     1  UNL1        0.0320
      5 C          -5.0946    1.3096   -1.3065 C.3     1  UNL1       -0.0254
      6 C          -5.0015    0.8920    0.1191 C.3     1  UNL1        0.0043
      7 C          -6.1902    0.1206    0.6042 C.ar    1  UNL1       -0.0425
      8 C          -6.7669    0.3565    1.8150 C.ar    1  UNL1       -0.0582
      9 C          -7.8603   -0.3886    2.2038 C.ar    1  UNL1       -0.0615
     10 C          -8.3887   -1.3746    1.3906 C.ar    1  UNL1       -0.0617
     11 C          -7.7798   -1.5887    0.1682 C.ar    1  UNL1       -0.0615
     12 C          -6.6861   -0.8426   -0.2194 C.ar    1  UNL1       -0.0582
     13 N          -0.2376    0.3541   -1.0704 N.am    1  UNL1       -0.2856
     14 C           0.8199   -0.5353   -1.4863 C.3     1  UNL1        0.0168
     15 C           1.9536    0.3021   -2.0509 C.3     1  UNL1       -0.0257
     16 C           2.5424    1.1238   -0.9393 C.3     1  UNL1        0.0410
     17 C           3.4587    0.1889   -0.1909 C.ar    1  UNL1        0.2309
     18 N           4.7920    0.3331   -0.1162 N.ar    1  UNL1       -0.1898
     19 C           5.3200   -0.6680    0.6269 C.ar    1  UNL1        0.2204
     20 C           6.7178   -0.9064    0.9681 C.ar    1  UNL1        0.1111
     21 C           7.6802    0.0760    0.8643 C.ar    1  UNL1       -0.0325
     22 C           9.0088   -0.1627    1.1925 C.ar    1  UNL1       -0.0582
     23 C           9.3489   -1.4245    1.6315 C.ar    1  UNL1       -0.0436
     24 C           8.3734   -2.3933    1.7287 C.ar    1  UNL1        0.0284
     25 N           7.1020   -2.1135    1.3994 N.ar    1  UNL1       -0.2517
     26 N           4.2598   -1.4107    0.9910 N.ar    1  UNL1       -0.0545
     27 O           3.1761   -0.8745    0.4898 O.2     1  UNL1       -0.3374
     28 C           1.5278    1.6484    0.0048 C.3     1  UNL1       -0.0257
     29 C           0.1633    1.6554   -0.5997 C.3     1  UNL1        0.0168
     30 H          -2.4680    1.7299   -0.3901 H       1  UNL1        0.1505
     31 H          -4.1864   -0.7361   -1.2125 H       1  UNL1        0.0505
     32 H          -4.6955    2.3021   -1.5952 H       1  UNL1        0.0290
     33 H          -5.9039    0.9556   -1.9589 H       1  UNL1        0.0290
     34 H          -4.6457    1.6539    0.8222 H       1  UNL1        0.0367
     35 H          -6.3533    1.1326    2.4585 H       1  UNL1        0.0620
     36 H          -8.3392   -0.2148    3.1739 H       1  UNL1        0.0618
     37 H          -9.2592   -1.9588    1.7146 H       1  UNL1        0.0618
     38 H          -8.1634   -2.3606   -0.5121 H       1  UNL1        0.0618
     39 H          -6.2295   -1.0433   -1.2006 H       1  UNL1        0.0620
     40 H           1.1768   -1.1849   -0.6630 H       1  UNL1        0.0465
     41 H           0.4224   -1.1528   -2.3335 H       1  UNL1        0.0465
     42 H           2.7405   -0.3755   -2.4943 H       1  UNL1        0.0288
     43 H           1.5357    0.9489   -2.8491 H       1  UNL1        0.0288
     44 H           3.1809    1.9387   -1.3827 H       1  UNL1        0.0397
     45 H           7.3986    1.0550    0.5203 H       1  UNL1        0.0640
     46 H           9.7598    0.6358    1.1022 H       1  UNL1        0.0619
     47 H          10.3852   -1.5939    1.8825 H       1  UNL1        0.0633
     48 H           8.6561   -3.3947    2.0795 H       1  UNL1        0.0830
     49 H           1.5079    1.0334    0.9325 H       1  UNL1        0.0288
     50 H           1.7870    2.7097    0.2459 H       1  UNL1        0.0288
     51 H           0.1650    2.3392   -1.4814 H       1  UNL1        0.0465
     52 H          -0.5455    2.0914    0.1467 H       1  UNL1        0.0465
@<TRIPOS>BOND
     1     1     2    2
     2     2     3   am
     3     3     4    1
     4     4     5    1
     5     5     6    1
     6     6     7    1
     7     7     8   ar
     8     8     9   ar
     9     9    10   ar
    10    10    11   ar
    11    11    12   ar
    12     2    13   am
    13    13    14    1
    14    14    15    1
    15    15    16    1
    16    16    17    1
    17    17    18   ar
    18    18    19   ar
    19    19    20    1
    20    20    21   ar
    21    21    22   ar
    22    22    23   ar
    23    23    24   ar
    24    24    25   ar
    25    19    26   ar
    26    26    27   ar
    27    16    28    1
    28    28    29    1
    29     6     4    1
    30    12     7   ar
    31    29    13    1
    32    27    17   ar
    33    25    20   ar
    34     3    30    1
    35     4    31    1
    36     5    32    1
    37     5    33    1
    38     6    34    1
    39     8    35    1
    40     9    36    1
    41    10    37    1
    42    11    38    1
    43    12    39    1
    44    14    40    1
    45    14    41    1
    46    15    42    1
    47    15    43    1
    48    16    44    1
    49    21    45    1
    50    22    46    1
    51    23    47    1
    52    24    48    1
    53    28    49    1
    54    28    50    1
    55    29    51    1
    56    29    52    1
