@<TRIPOS>MOLECULE
*****
 41 44 0 0 0
SMALL
GASTEIGER

@<TRIPOS>ATOM
      1 C          -2.0757    4.5511    0.7049 C.3     1  UNL1        0.0788
      2 O          -1.3052    3.4793    1.1454 O.3     1  UNL1       -0.4951
      3 C          -1.6572    2.1884    0.7931 C.ar    1  UNL1        0.1208
      4 C          -2.7722    1.9910    0.0077 C.ar    1  UNL1       -0.0180
      5 C          -3.0952    0.6762   -0.3265 C.ar    1  UNL1       -0.0341
      6 C          -2.3286   -0.3790    0.1123 C.ar    1  UNL1        0.0500
      7 C          -1.2072   -0.1722    0.9030 C.ar    1  UNL1        0.0069
      8 C          -0.8986    1.1182    1.2252 C.ar    1  UNL1       -0.0105
      9 C          -0.6311   -1.3891    1.1962 C.ar    1  UNL1       -0.0157
     10 C           0.5804   -1.6082    2.0139 C.3     1  UNL1        0.0233
     11 C           1.7780   -1.2419    1.2133 C.ar    1  UNL1        0.0841
     12 N           2.4027   -0.0921    1.0998 N.ar    1  UNL1       -0.2406
     13 C           3.4384    0.0861    0.3628 C.ar    1  UNL1        0.1192
     14 C           4.1945    1.2541    0.1543 C.ar    1  UNL1        0.1849
     15 F           3.8295    2.4119    0.8023 F       1  UNL1       -0.2002
     16 C           5.2787    1.3070   -0.6600 C.ar    1  UNL1        0.1633
     17 F           5.9645    2.5122   -0.8028 F       1  UNL1       -0.2023
     18 C           5.7160    0.2037   -1.3457 C.ar    1  UNL1        0.0129
     19 C           5.0074   -0.9854   -1.1800 C.ar    1  UNL1        0.1420
     20 F           5.3299   -2.1302   -1.7906 F       1  UNL1       -0.2042
     21 C           3.9049   -1.0018   -0.3403 C.ar    1  UNL1        0.0773
     22 S           2.7257   -2.2578    0.1642 S.2     1  UNL1       -0.0688
     23 C          -1.4194   -2.3270    0.5727 C.ar    1  UNL1        0.0099
     24 N          -2.4432   -1.7019   -0.0796 N.ar    1  UNL1       -0.3356
     25 C          -3.4962   -2.3580   -0.8608 C.3     1  UNL1        0.1202
     26 C          -3.1351   -2.5151   -2.2728 C.2     1  UNL1        0.3247
     27 O          -3.4216   -1.6125   -3.0915 O.2     1  UNL1       -0.2490
     28 O          -2.4709   -3.6566   -2.7451 O.3     1  UNL1       -0.4794
     29 H          -1.6270    5.4829    1.1354 H       1  UNL1        0.0660
     30 H          -2.0698    4.6997   -0.3924 H       1  UNL1        0.0660
     31 H          -3.1296    4.4609    1.0161 H       1  UNL1        0.0660
     32 H          -3.3832    2.8197   -0.3433 H       1  UNL1        0.0655
     33 H          -3.9780    0.5586   -0.9448 H       1  UNL1        0.0639
     34 H          -0.0309    1.2909    1.8380 H       1  UNL1        0.0661
     35 H           0.6957   -2.6636    2.3252 H       1  UNL1        0.0383
     36 H           0.6120   -0.9515    2.9169 H       1  UNL1        0.0383
     37 H           6.5586    0.1994   -1.9931 H       1  UNL1        0.0676
     38 H          -1.2893   -3.4011    0.5708 H       1  UNL1        0.0812
     39 H          -4.4334   -1.8155   -0.6926 H       1  UNL1        0.0607
     40 H          -3.6284   -3.3626   -0.3708 H       1  UNL1        0.0607
     41 H          -2.0900   -3.6683   -3.6924 H       1  UNL1        0.2951
@<TRIPOS>BOND
     1     1     2    1
     2     2     3    1
     3     3     4   ar
     4     4     5   ar
     5     5     6   ar
     6     6     7   ar
     7     7     8   ar
     8     7     9   ar
     9     9    10    1
    10    10    11    1
    11    11    12   ar
    12    12    13   ar
    13    13    14   ar
    14    14    15    1
    15    14    16   ar
    16    16    17    1
    17    16    18   ar
    18    18    19   ar
    19    19    20    1
    20    19    21   ar
    21    21    22   ar
    22     9    23   ar
    23    23    24   ar
    24    24    25    1
    25    25    26    1
    26    26    27    2
    27    26    28    1
    28     8     3   ar
    29    22    11   ar
    30    24     6   ar
    31    21    13   ar
    32     1    29    1
    33     1    30    1
    34     1    31    1
    35     4    32    1
    36     5    33    1
    37     8    34    1
    38    10    35    1
    39    10    36    1
    40    18    37    1
    41    23    38    1
    42    25    39    1
    43    25    40    1
    44    28    41    1
