
     RDKit          3D

 41 44  0  0  0  0  0  0  0  0999 V2000
   -2.0757    4.5511    0.7049 C   0  0  0  0  0  0  0  0  0  0  0  0
   -1.3052    3.4793    1.1454 O   0  0  0  0  0  0  0  0  0  0  0  0
   -1.6572    2.1884    0.7931 C   0  0  0  0  0  0  0  0  0  0  0  0
   -2.7722    1.9910    0.0077 C   0  0  0  0  0  0  0  0  0  0  0  0
   -3.0952    0.6762   -0.3265 C   0  0  0  0  0  0  0  0  0  0  0  0
   -2.3286   -0.3790    0.1123 C   0  0  0  0  0  0  0  0  0  0  0  0
   -1.2072   -0.1722    0.9030 C   0  0  0  0  0  0  0  0  0  0  0  0
   -0.8986    1.1182    1.2252 C   0  0  0  0  0  0  0  0  0  0  0  0
   -0.6311   -1.3891    1.1962 C   0  0  0  0  0  0  0  0  0  0  0  0
    0.5804   -1.6082    2.0139 C   0  0  0  0  0  0  0  0  0  0  0  0
    1.7780   -1.2419    1.2133 C   0  0  0  0  0  0  0  0  0  0  0  0
    2.4027   -0.0921    1.0998 N   0  0  0  0  0  0  0  0  0  0  0  0
    3.4384    0.0861    0.3628 C   0  0  0  0  0  0  0  0  0  0  0  0
    4.1945    1.2541    0.1543 C   0  0  0  0  0  0  0  0  0  0  0  0
    3.8295    2.4119    0.8023 F   0  0  0  0  0  0  0  0  0  0  0  0
    5.2787    1.3070   -0.6600 C   0  0  0  0  0  0  0  0  0  0  0  0
    5.9645    2.5122   -0.8028 F   0  0  0  0  0  0  0  0  0  0  0  0
    5.7160    0.2037   -1.3457 C   0  0  0  0  0  0  0  0  0  0  0  0
    5.0074   -0.9854   -1.1800 C   0  0  0  0  0  0  0  0  0  0  0  0
    5.3299   -2.1302   -1.7906 F   0  0  0  0  0  0  0  0  0  0  0  0
    3.9049   -1.0018   -0.3403 C   0  0  0  0  0  0  0  0  0  0  0  0
    2.7257   -2.2578    0.1642 S   0  0  0  0  0  0  0  0  0  0  0  0
   -1.4194   -2.3270    0.5727 C   0  0  0  0  0  0  0  0  0  0  0  0
   -2.4432   -1.7019   -0.0796 N   0  0  0  0  0  0  0  0  0  0  0  0
   -3.4962   -2.3580   -0.8608 C   0  0  0  0  0  0  0  0  0  0  0  0
   -3.1351   -2.5151   -2.2728 C   0  0  0  0  0  0  0  0  0  0  0  0
   -3.4216   -1.6125   -3.0915 O   0  0  0  0  0  0  0  0  0  0  0  0
   -2.4709   -3.6566   -2.7451 O   0  0  0  0  0  0  0  0  0  0  0  0
   -1.6270    5.4829    1.1354 H   0  0  0  0  0  0  0  0  0  0  0  0
   -2.0698    4.6997   -0.3924 H   0  0  0  0  0  0  0  0  0  0  0  0
   -3.1296    4.4609    1.0161 H   0  0  0  0  0  0  0  0  0  0  0  0
   -3.3832    2.8197   -0.3433 H   0  0  0  0  0  0  0  0  0  0  0  0
   -3.9780    0.5586   -0.9448 H   0  0  0  0  0  0  0  0  0  0  0  0
   -0.0309    1.2909    1.8380 H   0  0  0  0  0  0  0  0  0  0  0  0
    0.6957   -2.6636    2.3252 H   0  0  0  0  0  0  0  0  0  0  0  0
    0.6120   -0.9515    2.9169 H   0  0  0  0  0  0  0  0  0  0  0  0
    6.5586    0.1994   -1.9931 H   0  0  0  0  0  0  0  0  0  0  0  0
   -1.2893   -3.4011    0.5708 H   0  0  0  0  0  0  0  0  0  0  0  0
   -4.4334   -1.8155   -0.6926 H   0  0  0  0  0  0  0  0  0  0  0  0
   -3.6284   -3.3626   -0.3708 H   0  0  0  0  0  0  0  0  0  0  0  0
   -2.0900   -3.6683   -3.6924 H   0  0  0  0  0  0  0  0  0  0  0  0
  1  2  1  0
  2  3  1  0
  3  4  2  0
  4  5  1  0
  5  6  2  0
  6  7  1  0
  7  8  2  0
  7  9  1  0
  9 10  1  0
 10 11  1  0
 11 12  2  0
 12 13  1  0
 13 14  2  0
 14 15  1  0
 14 16  1  0
 16 17  1  0
 16 18  2  0
 18 19  1  0
 19 20  1  0
 19 21  2  0
 21 22  1  0
  9 23  2  0
 23 24  1  0
 24 25  1  0
 25 26  1  0
 26 27  2  0
 26 28  1  0
  8  3  1  0
 22 11  1  0
 24  6  1  0
 21 13  1  0
  1 29  1  0
  1 30  1  0
  1 31  1  0
  4 32  1  0
  5 33  1  0
  8 34  1  0
 10 35  1  0
 10 36  1  0
 18 37  1  0
 23 38  1  0
 25 39  1  0
 25 40  1  0
 28 41  1  0
M  END
$$$$
