@<TRIPOS>MOLECULE
*****
 29 31 0 0 0
SMALL
GASTEIGER

@<TRIPOS>ATOM
      1 C          -4.9167    0.9711   -0.0810 C.3     1  UNL1       -0.0397
      2 C          -3.5211    0.4677   -0.1536 C.ar    1  UNL1       -0.0504
      3 C          -3.0328   -0.1977   -1.2573 C.ar    1  UNL1       -0.0583
      4 C          -1.7231   -0.6520   -1.2855 C.ar    1  UNL1       -0.0536
      5 C          -0.8493   -0.4635   -0.2208 C.ar    1  UNL1       -0.0129
      6 C           0.5112   -0.9727   -0.3257 C.ar    1  UNL1        0.0441
      7 C           0.9237   -2.2310   -0.7719 C.ar    1  UNL1        0.1026
      8 O           2.2124   -2.3007   -0.7131 O.2     1  UNL1       -0.4552
      9 C           2.7480   -1.1991   -0.2633 C.ar    1  UNL1        0.2187
     10 C           4.0311   -0.7694   -0.0171 C.ar    1  UNL1        0.3322
     11 O           5.0190   -1.5058   -0.2288 O.2     1  UNL1       -0.2604
     12 N           4.2274    0.4675    0.4609 N.ar    1  UNL1       -0.0886
     13 O           5.5152    0.8962    0.7071 O.3     1  UNL1       -0.4193
     14 C           3.1807    1.2773    0.6963 C.ar    1  UNL1        0.3630
     15 O           3.4105    2.4243    1.1427 O.2     1  UNL1       -0.2433
     16 N           1.9239    0.9045    0.4733 N.ar    1  UNL1       -0.3015
     17 C           1.6835   -0.3251   -0.0047 C.ar    1  UNL1        0.1022
     18 C          -1.3527    0.2020    0.8722 C.ar    1  UNL1       -0.0536
     19 C          -2.6410    0.6573    0.9184 C.ar    1  UNL1       -0.0583
     20 H          -5.6169    0.2187   -0.5514 H       1  UNL1        0.0278
     21 H          -5.0121    1.9503   -0.6202 H       1  UNL1        0.0278
     22 H          -5.2574    1.0500    0.9729 H       1  UNL1        0.0278
     23 H          -3.7098   -0.3469   -2.0891 H       1  UNL1        0.0620
     24 H          -1.3663   -1.1667   -2.1547 H       1  UNL1        0.0624
     25 H           0.1834   -2.9605   -1.0952 H       1  UNL1        0.1036
     26 H           6.0931    0.5385    1.4522 H       1  UNL1        0.3261
     27 H           1.0918    1.5176    0.6477 H       1  UNL1        0.1706
     28 H          -0.7086    0.3676    1.7200 H       1  UNL1        0.0624
     29 H          -3.0469    1.1805    1.7698 H       1  UNL1        0.0620
@<TRIPOS>BOND
     1     1     2    1
     2     2     3   ar
     3     3     4   ar
     4     4     5   ar
     5     5     6    1
     6     6     7   ar
     7     7     8   ar
     8     8     9   ar
     9     9    10   ar
    10    10    11    2
    11    10    12   ar
    12    12    13    1
    13    12    14   ar
    14    14    15    2
    15    14    16   ar
    16    16    17   ar
    17     5    18   ar
    18    18    19   ar
    19    19     2   ar
    20    17     6   ar
    21    17     9   ar
    22     1    20    1
    23     1    21    1
    24     1    22    1
    25     3    23    1
    26     4    24    1
    27     7    25    1
    28    13    26    1
    29    16    27    1
    30    18    28    1
    31    19    29    1
