
     RDKit          3D

 29 31  0  0  0  0  0  0  0  0999 V2000
   -4.9167    0.9711   -0.0810 C   0  0  0  0  0  0  0  0  0  0  0  0
   -3.5211    0.4677   -0.1536 C   0  0  0  0  0  0  0  0  0  0  0  0
   -3.0328   -0.1977   -1.2573 C   0  0  0  0  0  0  0  0  0  0  0  0
   -1.7231   -0.6520   -1.2855 C   0  0  0  0  0  0  0  0  0  0  0  0
   -0.8493   -0.4635   -0.2208 C   0  0  0  0  0  0  0  0  0  0  0  0
    0.5112   -0.9727   -0.3257 C   0  0  0  0  0  0  0  0  0  0  0  0
    0.9237   -2.2310   -0.7719 C   0  0  0  0  0  0  0  0  0  0  0  0
    2.2124   -2.3007   -0.7131 O   0  0  0  0  0  0  0  0  0  0  0  0
    2.7480   -1.1991   -0.2633 C   0  0  0  0  0  0  0  0  0  0  0  0
    4.0311   -0.7694   -0.0171 C   0  0  0  0  0  0  0  0  0  0  0  0
    5.0190   -1.5058   -0.2288 O   0  0  0  0  0  0  0  0  0  0  0  0
    4.2274    0.4675    0.4609 N   0  0  0  0  0  0  0  0  0  0  0  0
    5.5152    0.8962    0.7071 O   0  0  0  0  0  0  0  0  0  0  0  0
    3.1807    1.2773    0.6963 C   0  0  0  0  0  0  0  0  0  0  0  0
    3.4105    2.4243    1.1427 O   0  0  0  0  0  0  0  0  0  0  0  0
    1.9239    0.9045    0.4733 N   0  0  0  0  0  0  0  0  0  0  0  0
    1.6835   -0.3251   -0.0047 C   0  0  0  0  0  0  0  0  0  0  0  0
   -1.3527    0.2020    0.8722 C   0  0  0  0  0  0  0  0  0  0  0  0
   -2.6410    0.6573    0.9184 C   0  0  0  0  0  0  0  0  0  0  0  0
   -5.6169    0.2187   -0.5514 H   0  0  0  0  0  0  0  0  0  0  0  0
   -5.0121    1.9503   -0.6202 H   0  0  0  0  0  0  0  0  0  0  0  0
   -5.2574    1.0500    0.9729 H   0  0  0  0  0  0  0  0  0  0  0  0
   -3.7098   -0.3469   -2.0891 H   0  0  0  0  0  0  0  0  0  0  0  0
   -1.3663   -1.1667   -2.1547 H   0  0  0  0  0  0  0  0  0  0  0  0
    0.1834   -2.9605   -1.0952 H   0  0  0  0  0  0  0  0  0  0  0  0
    6.0931    0.5385    1.4522 H   0  0  0  0  0  0  0  0  0  0  0  0
    1.0918    1.5176    0.6477 H   0  0  0  0  0  0  0  0  0  0  0  0
   -0.7086    0.3676    1.7200 H   0  0  0  0  0  0  0  0  0  0  0  0
   -3.0469    1.1805    1.7698 H   0  0  0  0  0  0  0  0  0  0  0  0
  1  2  1  0
  2  3  2  0
  3  4  1  0
  4  5  2  0
  5  6  1  0
  6  7  2  0
  7  8  1  0
  8  9  1  0
  9 10  1  0
 10 11  2  0
 10 12  1  0
 12 13  1  0
 12 14  1  0
 14 15  2  0
 14 16  1  0
 16 17  1  0
  5 18  1  0
 18 19  2  0
 19  2  1  0
 17  6  1  0
 17  9  2  0
  1 20  1  0
  1 21  1  0
  1 22  1  0
  3 23  1  0
  4 24  1  0
  7 25  1  0
 13 26  1  0
 16 27  1  0
 18 28  1  0
 19 29  1  0
M  END
$$$$
