@<TRIPOS>MOLECULE
*****
 33 36 0 0 0
SMALL
GASTEIGER

@<TRIPOS>ATOM
      1 C          -5.2945    1.6479   -0.3949 C.ar    1  UNL1       -0.0435
      2 C          -4.3505    2.6593   -0.3188 C.ar    1  UNL1       -0.0571
      3 C          -3.0179    2.3072   -0.2248 C.ar    1  UNL1       -0.0215
      4 C          -2.6561    0.9800   -0.2086 C.ar    1  UNL1        0.1239
      5 N          -1.2997    0.5669   -0.1133 N.pl3   1  UNL1       -0.2838
      6 C          -0.9429   -0.8029   -0.0979 C.ar    1  UNL1        0.1349
      7 N          -1.9517   -1.7289   -0.1784 N.ar    1  UNL1       -0.2200
      8 C          -1.6155   -3.0206   -0.1640 C.ar    1  UNL1        0.1187
      9 N          -0.3367   -3.4244   -0.0741 N.ar    1  UNL1       -0.2353
     10 C           0.6779   -2.5465    0.0065 C.ar    1  UNL1        0.0760
     11 C           1.9959   -2.9542    0.0993 C.ar    1  UNL1       -0.0350
     12 C           3.0241   -2.0325    0.1812 C.ar    1  UNL1       -0.0514
     13 C           2.7417   -0.6853    0.1711 C.ar    1  UNL1       -0.0090
     14 C           3.8180    0.3103    0.2572 C.ar    1  UNL1        0.0388
     15 C           3.8096    1.6473    0.2669 C.ar    1  UNL1        0.0425
     16 N           4.9651    2.2593    0.3558 N.ar    1  UNL1       -0.2551
     17 C           6.0399    1.7621    0.4302 C.ar    1  UNL1        0.0652
     18 S           5.5455   -0.0684    0.3800 S.2     1  UNL1       -0.0755
     19 C           1.4180   -0.3006    0.0778 C.ar    1  UNL1       -0.0410
     20 C           0.3786   -1.1853   -0.0047 C.ar    1  UNL1        0.0411
     21 N          -3.5983    0.0263   -0.2841 N.ar    1  UNL1       -0.2402
     22 C          -4.9003    0.3265   -0.3763 C.ar    1  UNL1        0.0297
     23 H          -6.3558    1.8548   -0.4703 H       1  UNL1        0.0633
     24 H          -4.6300    3.6863   -0.3313 H       1  UNL1        0.0619
     25 H          -2.2377    3.0392   -0.1626 H       1  UNL1        0.0652
     26 H          -0.5891    1.2985   -0.0560 H       1  UNL1        0.1550
     27 H          -2.4408   -3.7443   -0.2296 H       1  UNL1        0.1048
     28 H           2.1883   -4.0235    0.1050 H       1  UNL1        0.0639
     29 H           4.0457   -2.3667    0.2530 H       1  UNL1        0.0624
     30 H           2.8640    2.2216    0.2025 H       1  UNL1        0.0841
     31 H           7.0985    1.9978    0.5091 H       1  UNL1        0.0907
     32 H           1.2248    0.7636    0.0720 H       1  UNL1        0.0631
     33 H          -5.6179   -0.4705   -0.4344 H       1  UNL1        0.0830
@<TRIPOS>BOND
     1     1     2   ar
     2     2     3   ar
     3     3     4   ar
     4     4     5    1
     5     5     6    1
     6     6     7   ar
     7     7     8   ar
     8     8     9   ar
     9     9    10   ar
    10    10    11   ar
    11    11    12   ar
    12    12    13   ar
    13    13    14    1
    14    14    15   ar
    15    15    16   ar
    16    16    17   ar
    17    17    18   ar
    18    13    19   ar
    19    19    20   ar
    20     4    21   ar
    21    21    22   ar
    22    22     1   ar
    23    20     6   ar
    24    20    10   ar
    25    18    14   ar
    26     1    23    1
    27     2    24    1
    28     3    25    1
    29     5    26    1
    30     8    27    1
    31    11    28    1
    32    12    29    1
    33    15    30    1
    34    17    31    1
    35    19    32    1
    36    22    33    1
