@<TRIPOS>MOLECULE
*****
 45 47 0 0 0
SMALL
GASTEIGER

@<TRIPOS>ATOM
      1 C          -3.4899   -0.4838    1.3769 C.3     1  UNL1       -0.0352
      2 C          -2.6483   -0.0866    0.1513 C.3     1  UNL1        0.0952
      3 C          -1.5742    0.7820    0.6732 C.ar    1  UNL1        0.0197
      4 C          -0.2222    0.6239    0.4492 C.ar    1  UNL1       -0.0321
      5 C           0.7441    1.4538    0.9652 C.ar    1  UNL1        0.0369
      6 N           2.1408    1.3292    0.7610 N.am    1  UNL1       -0.2801
      7 C           2.8106    0.3564    0.0061 C.2     1  UNL1        0.2698
      8 O           2.1329   -0.5372   -0.5813 O.2     1  UNL1       -0.2681
      9 C           4.2703    0.3050   -0.1506 C.ar    1  UNL1        0.1657
     10 N           4.9290   -0.6477   -0.8902 N.ar    1  UNL1       -0.1604
     11 N           6.2161   -0.4699   -0.8677 N.ar    1  UNL1       -0.2091
     12 C           7.2693   -1.2532   -1.5177 C.3     1  UNL1        0.3342
     13 F           7.0062   -2.6199   -1.3632 F       1  UNL1       -0.1832
     14 F           8.4675   -1.0284   -0.8693 F       1  UNL1       -0.1832
     15 C           6.4450    0.6086   -0.1104 C.ar    1  UNL1        0.0503
     16 C           5.2282    1.1273    0.3627 C.ar    1  UNL1        0.0909
     17 CL          5.0668    2.5355    1.3893 Cl      1  UNL1       -0.0795
     18 C           0.2744    2.4994    1.7537 C.ar    1  UNL1       -0.0023
     19 C          -1.0661    2.6930    2.0024 C.ar    1  UNL1        0.1605
     20 F          -1.4154    3.7531    2.7915 F       1  UNL1       -0.2024
     21 C          -2.0026    1.8460    1.4714 C.ar    1  UNL1        0.1640
     22 F          -3.3241    2.0719    1.7339 F       1  UNL1       -0.2021
     23 C          -2.2365   -1.3099   -0.5644 C.3     1  UNL1        0.0223
     24 C          -3.2096   -1.7974   -1.6053 C.3     1  UNL1        0.1997
     25 C          -3.5850   -3.2438   -1.4546 C.3     1  UNL1        0.4266
     26 F          -4.1740   -3.4768   -0.2428 F       1  UNL1       -0.1669
     27 F          -2.4684   -4.0603   -1.6450 F       1  UNL1       -0.1669
     28 F          -4.5168   -3.6239   -2.4250 F       1  UNL1       -0.1669
     29 O          -4.3900   -1.0242   -1.6658 O.2     1  UNL1       -0.4534
     30 C          -4.3502    0.3619   -1.5076 C.2     1  UNL1        0.2765
     31 N          -5.1576    1.2436   -2.2367 N.pl3   1  UNL1       -0.3134
     32 N          -3.5122    0.7848   -0.6365 N.2     1  UNL1       -0.2257
     33 H          -3.0384   -0.1009    2.3236 H       1  UNL1        0.0256
     34 H          -4.5238   -0.1428    1.3043 H       1  UNL1        0.0256
     35 H          -3.5004   -1.5925    1.5142 H       1  UNL1        0.0256
     36 H           0.0590   -0.2133   -0.1704 H       1  UNL1        0.0640
     37 H           2.7816    2.0449    1.2234 H       1  UNL1        0.1552
     38 H           7.3358   -0.9950   -2.5861 H       1  UNL1        0.1295
     39 H           7.3860    1.0607    0.1379 H       1  UNL1        0.0843
     40 H           1.0339    3.1711    2.1734 H       1  UNL1        0.0666
     41 H          -2.1897   -2.1437    0.2013 H       1  UNL1        0.0330
     42 H          -1.2582   -1.2600   -1.0387 H       1  UNL1        0.0330
     43 H          -2.7533   -1.7046   -2.6347 H       1  UNL1        0.0826
     44 H          -6.1780    1.0345   -2.3811 H       1  UNL1        0.1466
     45 H          -4.8123    2.1294   -2.6665 H       1  UNL1        0.1466
@<TRIPOS>BOND
     1     2     1    1
     2     2     3    1
     3     3     4   ar
     4     4     5   ar
     5     5     6    1
     6     6     7   am
     7     7     8    2
     8     7     9    1
     9     9    10   ar
    10    10    11   ar
    11    11    12    1
    12    12    13    1
    13    12    14    1
    14    11    15   ar
    15    15    16   ar
    16    16    17    1
    17     5    18   ar
    18    18    19   ar
    19    19    20    1
    20    19    21   ar
    21    21    22    1
    22     2    23    1
    23    23    24    1
    24    24    25    1
    25    25    26    1
    26    25    27    1
    27    25    28    1
    28    24    29    1
    29    29    30    1
    30    30    31    1
    31    30    32    2
    32    32     2    1
    33    21     3   ar
    34    16     9   ar
    35     1    33    1
    36     1    34    1
    37     1    35    1
    38     4    36    1
    39     6    37    1
    40    12    38    1
    41    15    39    1
    42    18    40    1
    43    23    41    1
    44    23    42    1
    45    24    43    1
    46    31    44    1
    47    31    45    1
