@<TRIPOS>MOLECULE
*****
 38 39 0 0 0
SMALL
GASTEIGER

@<TRIPOS>ATOM
      1 C           4.7186    1.6191   -1.5980 C.3     1  UNL1        0.0788
      2 O           4.3877    0.4438   -0.8977 O.3     1  UNL1       -0.4945
      3 C           3.0615    0.2504   -0.5231 C.ar    1  UNL1        0.1324
      4 C           2.1006    1.1524   -0.8131 C.ar    1  UNL1       -0.0188
      5 C           0.7927    0.9709   -0.4488 C.ar    1  UNL1       -0.0499
      6 C           0.4096   -0.1651    0.2413 C.ar    1  UNL1       -0.0077
      7 C          -0.9123   -0.3291    0.5989 C.ar    1  UNL1        0.0110
      8 C          -1.8901    0.6881    0.2512 C.2     1  UNL1        0.0828
      9 S          -1.8032    2.1386    0.9794 S.2     1  UNL1       -0.0348
     10 N          -2.9146    0.4350   -0.7073 N.am    1  UNL1       -0.3162
     11 C          -2.9918   -0.8699   -1.3597 C.3     1  UNL1        0.0017
     12 C          -3.8773    1.4697   -1.0302 C.3     1  UNL1        0.1095
     13 C          -4.7745    1.7355    0.1455 C.2     1  UNL1        0.3222
     14 O          -5.6737    2.6010    0.0355 O.2     1  UNL1       -0.2492
     15 O          -4.5638    1.0076    1.3026 O.3     1  UNL1       -0.4795
     16 C          -1.2669   -1.4716    1.2865 C.ar    1  UNL1       -0.0517
     17 C          -0.3331   -2.4248    1.6095 C.ar    1  UNL1       -0.0605
     18 C           1.0016   -2.2537    1.2453 C.ar    1  UNL1       -0.0533
     19 C           1.3896   -1.1186    0.5550 C.ar    1  UNL1       -0.0021
     20 C           2.6858   -0.9237    0.1859 C.ar    1  UNL1        0.1040
     21 C           3.7835   -1.8507    0.4621 C.3     1  UNL1        0.4213
     22 F           3.5970   -2.9882    1.1110 F       1  UNL1       -0.1657
     23 F           4.5559   -2.0432   -0.7212 F       1  UNL1       -0.1657
     24 F           4.6964   -1.0965    1.2541 F       1  UNL1       -0.1657
     25 H           4.5986    2.5274   -0.9479 H       1  UNL1        0.0660
     26 H           5.8090    1.5592   -1.8370 H       1  UNL1        0.0660
     27 H           4.0914    1.7779   -2.4979 H       1  UNL1        0.0660
     28 H           2.3436    2.0703   -1.3565 H       1  UNL1        0.0654
     29 H           0.0595    1.7157   -0.7007 H       1  UNL1        0.0625
     30 H          -3.5940   -1.5576   -0.7289 H       1  UNL1        0.0428
     31 H          -1.9841   -1.3135   -1.5164 H       1  UNL1        0.0428
     32 H          -3.5141   -0.7413   -2.3311 H       1  UNL1        0.0428
     33 H          -4.5320    1.1168   -1.8535 H       1  UNL1        0.0579
     34 H          -3.3674    2.3948   -1.3388 H       1  UNL1        0.0579
     35 H          -4.8894    1.3889    2.1886 H       1  UNL1        0.2951
     36 H          -2.3132   -1.5690    1.5522 H       1  UNL1        0.0624
     37 H          -0.5984   -3.3218    2.1464 H       1  UNL1        0.0618
     38 H           1.7109   -3.0245    1.5161 H       1  UNL1        0.0624
@<TRIPOS>BOND
     1     1     2    1
     2     2     3    1
     3     3     4   ar
     4     4     5   ar
     5     5     6   ar
     6     6     7   ar
     7     7     8    1
     8     8     9    2
     9     8    10    1
    10    10    11    1
    11    10    12    1
    12    12    13    1
    13    13    14    2
    14    13    15    1
    15     7    16   ar
    16    16    17   ar
    17    17    18   ar
    18    18    19   ar
    19    19    20   ar
    20    20    21    1
    21    21    22    1
    22    21    23    1
    23    21    24    1
    24    20     3   ar
    25    19     6   ar
    26     1    25    1
    27     1    26    1
    28     1    27    1
    29     4    28    1
    30     5    29    1
    31    11    30    1
    32    11    31    1
    33    11    32    1
    34    12    33    1
    35    12    34    1
    36    15    35    1
    37    16    36    1
    38    17    37    1
    39    18    38    1
