@<TRIPOS>MOLECULE
*****
 54 54 0 0 0
SMALL
GASTEIGER

@<TRIPOS>ATOM
      1 C           7.5312    1.8109    1.5733 C.3     1  UNL1       -0.0653
      2 C           6.5138    0.8749    0.8247 C.3     1  UNL1       -0.0559
      3 C           6.3571   -0.2912    1.7065 C.3     1  UNL1       -0.0533
      4 C           5.5717   -1.4684    1.3670 C.3     1  UNL1       -0.0531
      5 C           4.1377   -1.3069    1.0671 C.3     1  UNL1       -0.0531
      6 C           3.8478   -0.5630   -0.1658 C.3     1  UNL1       -0.0531
      7 C           2.3340   -0.4364   -0.3757 C.3     1  UNL1       -0.0530
      8 C           1.7040   -1.7709   -0.4969 C.3     1  UNL1       -0.0516
      9 C           0.1958   -1.5906   -0.7277 C.3     1  UNL1       -0.0373
     10 C          -0.1012   -0.8135   -1.9863 C.3     1  UNL1        0.0131
     11 N          -1.5700   -0.7302   -2.0865 N.am    1  UNL1       -0.2994
     12 C          -2.4161   -0.1357   -1.1470 C.2     1  UNL1        0.2999
     13 O          -1.9675    0.3874   -0.1198 O.2     1  UNL1       -0.2529
     14 N          -3.8078   -0.1136   -1.3408 N.am    1  UNL1       -0.2966
     15 C          -4.7362    0.4720   -0.4314 C.3     1  UNL1        0.0246
     16 C          -5.5523    1.5776   -0.9982 C.3     1  UNL1       -0.0345
     17 C          -6.6204    1.9996   -0.0390 C.3     1  UNL1       -0.0514
     18 C          -7.3696    0.8872    0.6139 C.3     1  UNL1       -0.0529
     19 C          -7.0622   -0.3855   -0.1469 C.3     1  UNL1       -0.0514
     20 C          -5.5843   -0.6631    0.1238 C.3     1  UNL1       -0.0345
     21 H           7.7156    2.6588    0.9093 H       1  UNL1        0.0230
     22 H           8.4150    1.1906    1.7688 H       1  UNL1        0.0230
     23 H           7.0238    2.0514    2.5282 H       1  UNL1        0.0230
     24 H           5.6218    1.5550    0.8279 H       1  UNL1        0.0263
     25 H           6.8664    0.7291   -0.1859 H       1  UNL1        0.0263
     26 H           7.3968   -0.5886    2.0684 H       1  UNL1        0.0265
     27 H           5.9234    0.1272    2.6866 H       1  UNL1        0.0265
     28 H           6.0731   -2.1264    0.5848 H       1  UNL1        0.0265
     29 H           5.6313   -2.1618    2.2867 H       1  UNL1        0.0265
     30 H           3.6091   -2.3017    1.0124 H       1  UNL1        0.0265
     31 H           3.5803   -0.7866    1.9127 H       1  UNL1        0.0265
     32 H           4.2376    0.4299   -0.2974 H       1  UNL1        0.0265
     33 H           4.2487   -1.1707   -1.0399 H       1  UNL1        0.0265
     34 H           1.9688    0.1443    0.4743 H       1  UNL1        0.0265
     35 H           2.2436    0.1024   -1.3585 H       1  UNL1        0.0265
     36 H           2.1604   -2.4311   -1.2328 H       1  UNL1        0.0266
     37 H           1.7509   -2.3286    0.4861 H       1  UNL1        0.0266
     38 H          -0.2098   -2.6327   -0.7957 H       1  UNL1        0.0280
     39 H          -0.2164   -1.1095    0.1577 H       1  UNL1        0.0280
     40 H           0.3278    0.2026   -1.9244 H       1  UNL1        0.0462
     41 H           0.3018   -1.4154   -2.8241 H       1  UNL1        0.0462
     42 H          -2.0271   -1.1582   -2.9458 H       1  UNL1        0.1502
     43 H          -4.2636   -0.5360   -2.1860 H       1  UNL1        0.1505
     44 H          -4.1515    0.8849    0.4174 H       1  UNL1        0.0499
     45 H          -6.0022    1.2766   -1.9702 H       1  UNL1        0.0283
     46 H          -4.8766    2.4568   -1.1127 H       1  UNL1        0.0283
     47 H          -7.3165    2.6555   -0.5729 H       1  UNL1        0.0266
     48 H          -6.1816    2.6244    0.7849 H       1  UNL1        0.0266
     49 H          -7.0858    0.7632    1.6825 H       1  UNL1        0.0265
     50 H          -8.4601    1.1223    0.6231 H       1  UNL1        0.0265
     51 H          -7.2610   -0.2088   -1.2079 H       1  UNL1        0.0266
     52 H          -7.6553   -1.1920    0.2956 H       1  UNL1        0.0266
     53 H          -5.4872   -0.7411    1.2278 H       1  UNL1        0.0283
     54 H          -5.3072   -1.6534   -0.2957 H       1  UNL1        0.0283
@<TRIPOS>BOND
     1     1     2    1
     2     2     3    1
     3     3     4    1
     4     4     5    1
     5     5     6    1
     6     6     7    1
     7     7     8    1
     8     8     9    1
     9     9    10    1
    10    10    11    1
    11    11    12   am
    12    12    13    2
    13    12    14   am
    14    14    15    1
    15    15    16    1
    16    16    17    1
    17    17    18    1
    18    18    19    1
    19    19    20    1
    20    20    15    1
    21     1    21    1
    22     1    22    1
    23     1    23    1
    24     2    24    1
    25     2    25    1
    26     3    26    1
    27     3    27    1
    28     4    28    1
    29     4    29    1
    30     5    30    1
    31     5    31    1
    32     6    32    1
    33     6    33    1
    34     7    34    1
    35     7    35    1
    36     8    36    1
    37     8    37    1
    38     9    38    1
    39     9    39    1
    40    10    40    1
    41    10    41    1
    42    11    42    1
    43    14    43    1
    44    15    44    1
    45    16    45    1
    46    16    46    1
    47    17    47    1
    48    17    48    1
    49    18    49    1
    50    18    50    1
    51    19    51    1
    52    19    52    1
    53    20    53    1
    54    20    54    1
