@<TRIPOS>MOLECULE
*****
 50 52 0 0 0
SMALL
GASTEIGER

@<TRIPOS>ATOM
      1 O           0.0940    1.1911    1.1411 O.3     1  UNL1       -0.3836
      2 C          -0.7323    0.6886    0.1587 C.3     1  UNL1        0.0949
      3 C          -0.0838    0.6702   -1.1487 C.3     1  UNL1       -0.0068
      4 C           1.1622   -0.1032   -1.3478 C.3     1  UNL1        0.0018
      5 N           2.3410    0.1679   -0.6731 N.3     1  UNL1       -0.3022
      6 C           2.6219   -0.0581    0.6631 C.3     1  UNL1       -0.0011
      7 C           4.0036   -0.7187    0.8740 C.3     1  UNL1       -0.0402
      8 C           4.1683   -1.8456   -0.1124 C.3     1  UNL1       -0.0507
      9 C           3.9566   -1.3912   -1.5335 C.3     1  UNL1       -0.0402
     10 C           3.5489    0.0718   -1.4789 C.3     1  UNL1       -0.0011
     11 C          -1.4548   -0.5049    0.6303 C.3     1  UNL1       -0.0079
     12 C          -2.3791   -1.1523   -0.3849 C.3     1  UNL1       -0.0473
     13 C          -2.9246   -2.3254    0.4123 C.3     1  UNL1       -0.0527
     14 C          -1.9254   -2.5851    1.5419 C.3     1  UNL1       -0.0527
     15 C          -0.7387   -1.6493    1.2124 C.3     1  UNL1       -0.0473
     16 C          -1.8432    1.7778    0.1389 C.ar    1  UNL1       -0.0158
     17 C          -2.5071    2.1190    1.2954 C.ar    1  UNL1       -0.0558
     18 C          -3.4969    3.0718    1.2902 C.ar    1  UNL1       -0.0614
     19 C          -3.8349    3.7001    0.1118 C.ar    1  UNL1       -0.0617
     20 C          -3.1799    3.3713   -1.0573 C.ar    1  UNL1       -0.0614
     21 C          -2.2027    2.4223   -1.0206 C.ar    1  UNL1       -0.0558
     22 H           0.4249    2.0717    0.8614 H       1  UNL1        0.2106
     23 H          -0.8310    0.3956   -1.9900 H       1  UNL1        0.0309
     24 H           0.1856    1.7283   -1.4919 H       1  UNL1        0.0309
     25 H           1.3657   -0.1547   -2.4974 H       1  UNL1        0.0427
     26 H           0.9422   -1.2205   -1.1871 H       1  UNL1        0.0427
     27 H           1.9325   -0.7316    1.1650 H       1  UNL1        0.0426
     28 H           2.6966    0.8757    1.3047 H       1  UNL1        0.0426
     29 H           3.9745   -1.1495    1.8928 H       1  UNL1        0.0278
     30 H           4.8176    0.0024    0.8606 H       1  UNL1        0.0278
     31 H           5.2203   -2.2261    0.0376 H       1  UNL1        0.0266
     32 H           3.5035   -2.6982    0.1451 H       1  UNL1        0.0266
     33 H           3.1113   -1.9349   -2.0155 H       1  UNL1        0.0278
     34 H           4.8946   -1.4780   -2.1292 H       1  UNL1        0.0278
     35 H           4.3162    0.6963   -0.9908 H       1  UNL1        0.0426
     36 H           3.4045    0.4434   -2.5022 H       1  UNL1        0.0426
     37 H          -2.1755   -0.1604    1.4477 H       1  UNL1        0.0332
     38 H          -1.8301   -1.5133   -1.2726 H       1  UNL1        0.0269
     39 H          -3.2121   -0.4455   -0.6415 H       1  UNL1        0.0269
     40 H          -3.8629   -1.9839    0.9118 H       1  UNL1        0.0265
     41 H          -3.0738   -3.2273   -0.2185 H       1  UNL1        0.0265
     42 H          -2.3487   -2.3664    2.5384 H       1  UNL1        0.0265
     43 H          -1.5971   -3.6454    1.5142 H       1  UNL1        0.0265
     44 H          -0.0862   -2.2474    0.5925 H       1  UNL1        0.0269
     45 H          -0.2979   -1.4315    2.2275 H       1  UNL1        0.0269
     46 H          -2.2600    1.6530    2.2324 H       1  UNL1        0.0621
     47 H          -4.0041    3.3181    2.2267 H       1  UNL1        0.0618
     48 H          -4.6241    4.4390    0.1856 H       1  UNL1        0.0618
     49 H          -3.4529    3.8693   -1.9730 H       1  UNL1        0.0618
     50 H          -1.7272    2.2035   -1.9466 H       1  UNL1        0.0621
@<TRIPOS>BOND
     1     1     2    1
     2     2     3    1
     3     3     4    1
     4     4     5    1
     5     5     6    1
     6     6     7    1
     7     7     8    1
     8     8     9    1
     9     9    10    1
    10     2    11    1
    11    11    12    1
    12    12    13    1
    13    13    14    1
    14    14    15    1
    15     2    16    1
    16    16    17   ar
    17    17    18   ar
    18    18    19   ar
    19    19    20   ar
    20    20    21   ar
    21    10     5    1
    22    15    11    1
    23    21    16   ar
    24     1    22    1
    25     3    23    1
    26     3    24    1
    27     4    25    1
    28     4    26    1
    29     6    27    1
    30     6    28    1
    31     7    29    1
    32     7    30    1
    33     8    31    1
    34     8    32    1
    35     9    33    1
    36     9    34    1
    37    10    35    1
    38    10    36    1
    39    11    37    1
    40    12    38    1
    41    12    39    1
    42    13    40    1
    43    13    41    1
    44    14    42    1
    45    14    43    1
    46    15    44    1
    47    15    45    1
    48    17    46    1
    49    18    47    1
    50    19    48    1
    51    20    49    1
    52    21    50    1
