
     RDKit          3D

105113  0  0  0  0  0  0  0  0999 V2000
    5.7174    4.4614    7.3685 N   0  0  0  0  0  0  0  0  0  0  0  0
    4.9901    4.3905    6.1375 C   0  0  0  0  0  0  0  0  0  0  0  0
    4.6394    5.4574    5.4200 N   0  0  0  0  0  0  0  0  0  0  0  0
    3.9468    5.3577    4.2512 C   0  0  0  0  0  0  0  0  0  0  0  0
    3.6055    4.1343    3.8072 N   0  0  0  0  0  0  0  0  0  0  0  0
    3.9161    2.9919    4.4645 C   0  0  0  0  0  0  0  0  0  0  0  0
    4.6233    3.1419    5.6527 C   0  0  0  0  0  0  0  0  0  0  0  0
    4.8168    1.8959    6.1223 N   0  0  0  0  0  0  0  0  0  0  0  0
    4.2683    1.0152    5.2866 C   0  0  0  0  0  0  0  0  0  0  0  0
    3.7079    1.6828    4.2570 N   0  0  0  0  0  0  0  0  0  0  0  0
    3.0095    1.1296    3.1297 C   0  0  2  0  0  0  0  0  0  0  0  0
    3.1832   -0.2511    3.0071 O   0  0  0  0  0  0  0  0  0  0  0  0
    2.7369   -0.5839    1.7521 C   0  0  2  0  0  0  0  0  0  0  0  0
    3.3995   -1.8720    1.2647 C   0  0  0  0  0  0  0  0  0  0  0  0
    2.9170   -2.1703   -0.0093 O   0  0  0  0  0  0  0  0  0  0  0  0
    3.5983   -3.5813   -0.6184 P   0  0  0  0  0  5  0  0  0  0  0  0
    3.8681   -4.4969    0.5752 O   0  0  0  0  0  0  0  0  0  0  0  0
    5.0654   -3.3134   -1.4055 O   0  0  0  0  0  0  0  0  0  0  0  0
    2.4730   -4.3921   -1.5735 O   0  0  0  0  0  0  0  0  0  0  0  0
    1.4555   -3.4826   -1.8955 C   0  0  2  0  0  0  0  0  0  0  0  0
    0.1776   -3.8448   -1.1681 C   0  0  2  0  0  0  0  0  0  0  0  0
    0.2477   -5.1490   -0.6552 O   0  0  0  0  0  0  0  0  0  0  0  0
   -0.8486   -3.8241   -2.2517 C   0  0  1  0  0  0  0  0  0  0  0  0
   -2.0752   -3.0912   -1.7527 C   0  0  0  0  0  0  0  0  0  0  0  0
   -3.0435   -3.0025   -2.7508 O   0  0  0  0  0  0  0  0  0  0  0  0
   -4.5169   -2.4207   -2.2504 P   0  0  0  0  0  5  0  0  0  0  0  0
   -5.5948   -3.4532   -2.5306 O   0  0  0  0  0  0  0  0  0  0  0  0
   -4.8988   -1.0961   -3.2668 O   0  0  0  0  0  0  0  0  0  0  0  0
   -4.5702   -1.8773   -0.6763 O   0  0  0  0  0  0  0  0  0  0  0  0
   -4.1614   -0.5504   -0.5217 C   0  0  2  0  0  0  0  0  0  0  0  0
   -3.1805   -0.4052    0.6176 C   0  0  2  0  0  0  0  0  0  0  0  0
   -2.9356   -1.6169    1.2634 O   0  0  0  0  0  0  0  0  0  0  0  0
   -3.9960    0.4555    1.5803 C   0  0  1  0  0  0  0  0  0  0  0  0
   -3.1227    1.2693    2.4913 C   0  0  0  0  0  0  0  0  0  0  0  0
   -2.3860    0.3990    3.2747 O   0  0  0  0  0  0  0  0  0  0  0  0
   -1.4648    1.2108    4.4350 P   0  0  0  0  0  5  0  0  0  0  0  0
   -0.5970    2.2621    3.7819 O   0  0  0  0  0  0  0  0  0  0  0  0
   -2.4784    2.0214    5.5337 O   0  0  0  0  0  0  0  0  0  0  0  0
   -0.4714    0.1075    5.2295 O   0  0  0  0  0  0  0  0  0  0  0  0
   -4.8001    1.2321    0.7391 O   0  0  0  0  0  0  0  0  0  0  0  0
   -5.3395    0.2549   -0.0933 C   0  0  1  0  0  0  0  0  0  0  0  0
   -6.0225    0.9074   -1.2006 N   0  0  0  0  0  0  0  0  0  0  0  0
   -7.2893    0.6621   -1.5434 C   0  0  0  0  0  0  0  0  0  0  0  0
   -7.6299    1.4367   -2.6149 N   0  0  0  0  0  0  0  0  0  0  0  0
   -6.5631    2.1833   -2.9561 C   0  0  0  0  0  0  0  0  0  0  0  0
   -6.3449    3.1264   -3.9482 C   0  0  0  0  0  0  0  0  0  0  0  0
   -7.4011    3.4518   -4.8471 N   0  0  0  0  0  0  0  0  0  0  0  0
   -5.1214    3.6940   -4.0039 N   0  0  0  0  0  0  0  0  0  0  0  0
   -4.1476    3.3555   -3.1264 C   0  0  0  0  0  0  0  0  0  0  0  0
   -4.3887    2.4376   -2.1751 N   0  0  0  0  0  0  0  0  0  0  0  0
   -5.5659    1.8354   -2.0559 C   0  0  0  0  0  0  0  0  0  0  0  0
   -0.2741   -3.1766   -3.3374 O   0  0  0  0  0  0  0  0  0  0  0  0
    1.0647   -3.5501   -3.3274 C   0  0  1  0  0  0  0  0  0  0  0  0
    1.8318   -2.7471   -4.2338 N   0  0  0  0  0  0  0  0  0  0  0  0
    1.8757   -2.9948   -5.5675 C   0  0  0  0  0  0  0  0  0  0  0  0
    2.6686   -2.0846   -6.1680 N   0  0  0  0  0  0  0  0  0  0  0  0
    3.1502   -1.2394   -5.2572 C   0  0  0  0  0  0  0  0  0  0  0  0
    3.9879   -0.1388   -5.2813 C   0  0  0  0  0  0  0  0  0  0  0  0
    4.5163    0.2740   -6.5396 N   0  0  0  0  0  0  0  0  0  0  0  0
    4.2503    0.4720   -4.1220 N   0  0  0  0  0  0  0  0  0  0  0  0
    3.7341    0.0538   -2.9689 C   0  0  0  0  0  0  0  0  0  0  0  0
    2.9281   -1.0012   -2.9309 N   0  0  0  0  0  0  0  0  0  0  0  0
    2.6157   -1.6681   -4.0469 C   0  0  0  0  0  0  0  0  0  0  0  0
    3.1596    0.5328    0.8643 C   0  0  1  0  0  0  0  0  0  0  0  0
    2.1520    0.9082   -0.0388 O   0  0  0  0  0  0  0  0  0  0  0  0
    3.4951    1.6819    1.7951 C   0  0  1  0  0  0  0  0  0  0  0  0
    2.7782    2.8068    1.4005 O   0  0  0  0  0  0  0  0  0  0  0  0
    6.4162    3.7227    7.5965 H   0  0  0  0  0  0  0  0  0  0  0  0
    5.5095    5.2763    8.0037 H   0  0  0  0  0  0  0  0  0  0  0  0
    3.6704    6.2350    3.6813 H   0  0  0  0  0  0  0  0  0  0  0  0
    4.2424   -0.0622    5.3643 H   0  0  0  0  0  0  0  0  0  0  0  0
    1.9267    1.3741    3.1832 H   0  0  0  0  0  0  0  0  0  0  0  0
    1.6444   -0.7846    1.7229 H   0  0  0  0  0  0  0  0  0  0  0  0
    4.4797   -1.6295    1.1357 H   0  0  0  0  0  0  0  0  0  0  0  0
    3.3116   -2.6943    1.9790 H   0  0  0  0  0  0  0  0  0  0  0  0
    5.7816   -3.3678   -0.7227 H   0  0  0  0  0  0  0  0  0  0  0  0
    1.7127   -2.4562   -1.5242 H   0  0  0  0  0  0  0  0  0  0  0  0
   -0.0469   -3.1146   -0.3498 H   0  0  0  0  0  0  0  0  0  0  0  0
   -0.1059   -5.8231   -1.3179 H   0  0  0  0  0  0  0  0  0  0  0  0
   -1.1753   -4.8509   -2.5572 H   0  0  0  0  0  0  0  0  0  0  0  0
   -1.8219   -2.0365   -1.4797 H   0  0  0  0  0  0  0  0  0  0  0  0
   -2.5233   -3.5586   -0.8738 H   0  0  0  0  0  0  0  0  0  0  0  0
   -5.1037   -1.4429   -4.1881 H   0  0  0  0  0  0  0  0  0  0  0  0
   -3.8090   -0.1439   -1.4815 H   0  0  0  0  0  0  0  0  0  0  0  0
   -2.2400    0.1120    0.3281 H   0  0  0  0  0  0  0  0  0  0  0  0
   -3.7771   -1.8405    1.7771 H   0  0  0  0  0  0  0  0  0  0  0  0
   -4.6637   -0.1675    2.2030 H   0  0  0  0  0  0  0  0  0  0  0  0
   -3.6582    2.0321    3.0529 H   0  0  0  0  0  0  0  0  0  0  0  0
   -2.3650    1.8119    1.8516 H   0  0  0  0  0  0  0  0  0  0  0  0
   -3.2672    1.4714    5.7822 H   0  0  0  0  0  0  0  0  0  0  0  0
   -0.9878   -0.5427    5.7716 H   0  0  0  0  0  0  0  0  0  0  0  0
   -6.0543   -0.3578    0.5087 H   0  0  0  0  0  0  0  0  0  0  0  0
   -8.0104   -0.0225   -1.1034 H   0  0  0  0  0  0  0  0  0  0  0  0
   -7.2071    3.7140   -5.8361 H   0  0  0  0  0  0  0  0  0  0  0  0
   -8.4052    3.4399   -4.5505 H   0  0  0  0  0  0  0  0  0  0  0  0
   -3.1696    3.8476   -3.2157 H   0  0  0  0  0  0  0  0  0  0  0  0
    1.1039   -4.6458   -3.6115 H   0  0  0  0  0  0  0  0  0  0  0  0
    1.3332   -3.8171   -6.0335 H   0  0  0  0  0  0  0  0  0  0  0  0
    4.8694   -0.3971   -7.2636 H   0  0  0  0  0  0  0  0  0  0  0  0
    4.5847    1.2935   -6.8225 H   0  0  0  0  0  0  0  0  0  0  0  0
    3.9815    0.5891   -2.0562 H   0  0  0  0  0  0  0  0  0  0  0  0
    4.0855    0.2288    0.3087 H   0  0  0  0  0  0  0  0  0  0  0  0
    2.4993    1.7045   -0.5278 H   0  0  0  0  0  0  0  0  0  0  0  0
    4.5830    1.8447    1.7953 H   0  0  0  0  0  0  0  0  0  0  0  0
    3.3144    3.4433    0.8631 H   0  0  0  0  0  0  0  0  0  0  0  0
  1  2  1  0
  2  3  2  0
  3  4  1  0
  4  5  2  0
  5  6  1  0
  6  7  2  0
  7  8  1  0
  8  9  2  0
  9 10  1  0
 10 11  1  0
 11 12  1  0
 12 13  1  0
 13 14  1  0
 14 15  1  0
 15 16  1  0
 16 17  2  0
 16 18  1  0
 16 19  1  0
 19 20  1  0
 20 21  1  0
 21 22  1  0
 21 23  1  0
 23 24  1  0
 24 25  1  0
 25 26  1  0
 26 27  2  0
 26 28  1  0
 26 29  1  0
 29 30  1  0
 30 31  1  0
 31 32  1  0
 31 33  1  0
 33 34  1  0
 34 35  1  0
 35 36  1  0
 36 37  2  0
 36 38  1  0
 36 39  1  0
 33 40  1  0
 40 41  1  0
 41 42  1  0
 42 43  1  0
 43 44  2  0
 44 45  1  0
 45 46  2  0
 46 47  1  0
 46 48  1  0
 48 49  2  0
 49 50  1  0
 50 51  2  0
 23 52  1  0
 52 53  1  0
 53 54  1  0
 54 55  1  0
 55 56  2  0
 56 57  1  0
 57 58  2  0
 58 59  1  0
 58 60  1  0
 60 61  2  0
 61 62  1  0
 62 63  2  0
 13 64  1  0
 64 65  1  0
 64 66  1  0
 66 67  1  0
  7  2  1  0
 66 11  1  0
 10  6  1  0
 53 20  1  0
 63 54  1  0
 41 30  1  0
 51 42  1  0
 63 57  1  0
 51 45  1  0
  1 68  1  0
  1 69  1  0
  4 70  1  0
  9 71  1  0
 11 72  1  1
 13 73  1  1
 14 74  1  0
 14 75  1  0
 18 76  1  0
 20 77  1  1
 21 78  1  1
 22 79  1  0
 23 80  1  6
 24 81  1  0
 24 82  1  0
 28 83  1  0
 30 84  1  6
 31 85  1  6
 32 86  1  0
 33 87  1  1
 34 88  1  0
 34 89  1  0
 38 90  1  0
 39 91  1  0
 41 92  1  1
 43 93  1  0
 47 94  1  0
 47 95  1  0
 49 96  1  0
 53 97  1  6
 55 98  1  0
 59 99  1  0
 59100  1  0
 61101  1  0
 64102  1  6
 65103  1  0
 66104  1  1
 67105  1  0
M  END
$$$$
