@<TRIPOS>MOLECULE
*****
 105 113 0 0 0
SMALL
GASTEIGER

@<TRIPOS>ATOM
      1 N           5.7174    4.4614    7.3685 N.pl3   1  UNL1       -0.3413
      2 C           4.9901    4.3905    6.1375 C.ar    1  UNL1        0.1472
      3 N           4.6394    5.4574    5.4200 N.ar    1  UNL1       -0.2188
      4 C           3.9468    5.3577    4.2512 C.ar    1  UNL1        0.1205
      5 N           3.6055    4.1343    3.8072 N.ar    1  UNL1       -0.2159
      6 C           3.9161    2.9919    4.4645 C.ar    1  UNL1        0.1674
      7 C           4.6233    3.1419    5.6527 C.ar    1  UNL1        0.1473
      8 N           4.8168    1.8959    6.1223 N.ar    1  UNL1       -0.2306
      9 C           4.2683    1.0152    5.2866 C.ar    1  UNL1        0.1004
     10 N           3.7079    1.6828    4.2570 N.ar    1  UNL1       -0.2855
     11 C           3.0095    1.1296    3.1297 C.3     1  UNL1        0.1667
     12 O           3.1832   -0.2511    3.0071 O.3     1  UNL1       -0.3456
     13 C           2.7369   -0.5839    1.7521 C.3     1  UNL1        0.1134
     14 C           3.3995   -1.8720    1.2647 C.3     1  UNL1        0.0879
     15 O           2.9170   -2.1703   -0.0093 O.3     1  UNL1       -0.2840
     16 P           3.5983   -3.5813   -0.6184 P.3     1  UNL1        0.4755
     17 O           3.8681   -4.4969    0.5752 O.2     1  UNL1       -0.2273
     18 O           5.0654   -3.3134   -1.4055 O.3     1  UNL1       -0.3025
     19 O           2.4730   -4.3921   -1.5735 O.3     1  UNL1       -0.2761
     20 C           1.4555   -3.4826   -1.8955 C.3     1  UNL1        0.1433
     21 C           0.1776   -3.8448   -1.1681 C.3     1  UNL1        0.1144
     22 O           0.2477   -5.1490   -0.6552 O.3     1  UNL1       -0.3864
     23 C          -0.8486   -3.8241   -2.2517 C.3     1  UNL1        0.1134
     24 C          -2.0752   -3.0912   -1.7527 C.3     1  UNL1        0.0879
     25 O          -3.0435   -3.0025   -2.7508 O.3     1  UNL1       -0.2840
     26 P          -4.5169   -2.4207   -2.2504 P.3     1  UNL1        0.4755
     27 O          -5.5948   -3.4532   -2.5306 O.2     1  UNL1       -0.2273
     28 O          -4.8988   -1.0961   -3.2668 O.3     1  UNL1       -0.3025
     29 O          -4.5702   -1.8773   -0.6763 O.3     1  UNL1       -0.2761
     30 C          -4.1614   -0.5504   -0.5217 C.3     1  UNL1        0.1433
     31 C          -3.1805   -0.4052    0.6176 C.3     1  UNL1        0.1144
     32 O          -2.9356   -1.6169    1.2634 O.3     1  UNL1       -0.3864
     33 C          -3.9960    0.4555    1.5803 C.3     1  UNL1        0.1134
     34 C          -3.1227    1.2693    2.4913 C.3     1  UNL1        0.0878
     35 O          -2.3860    0.3990    3.2747 O.3     1  UNL1       -0.2841
     36 P          -1.4648    1.2108    4.4350 P.3     1  UNL1        0.4724
     37 O          -0.5970    2.2621    3.7819 O.2     1  UNL1       -0.2275
     38 O          -2.4784    2.0214    5.5337 O.3     1  UNL1       -0.3026
     39 O          -0.4714    0.1075    5.2295 O.3     1  UNL1       -0.3026
     40 O          -4.8001    1.2321    0.7391 O.3     1  UNL1       -0.3456
     41 C          -5.3395    0.2549   -0.0933 C.3     1  UNL1        0.1675
     42 N          -6.0225    0.9074   -1.2006 N.ar    1  UNL1       -0.2855
     43 C          -7.2893    0.6621   -1.5434 C.ar    1  UNL1        0.1004
     44 N          -7.6299    1.4367   -2.6149 N.ar    1  UNL1       -0.2306
     45 C          -6.5631    2.1833   -2.9561 C.ar    1  UNL1        0.1473
     46 C          -6.3449    3.1264   -3.9482 C.ar    1  UNL1        0.1472
     47 N          -7.4011    3.4518   -4.8471 N.pl3   1  UNL1       -0.3413
     48 N          -5.1214    3.6940   -4.0039 N.ar    1  UNL1       -0.2188
     49 C          -4.1476    3.3555   -3.1264 C.ar    1  UNL1        0.1205
     50 N          -4.3887    2.4376   -2.1751 N.ar    1  UNL1       -0.2159
     51 C          -5.5659    1.8354   -2.0559 C.ar    1  UNL1        0.1674
     52 O          -0.2741   -3.1766   -3.3374 O.3     1  UNL1       -0.3456
     53 C           1.0647   -3.5501   -3.3274 C.3     1  UNL1        0.1675
     54 N           1.8318   -2.7471   -4.2338 N.ar    1  UNL1       -0.2855
     55 C           1.8757   -2.9948   -5.5675 C.ar    1  UNL1        0.1004
     56 N           2.6686   -2.0846   -6.1680 N.ar    1  UNL1       -0.2306
     57 C           3.1502   -1.2394   -5.2572 C.ar    1  UNL1        0.1473
     58 C           3.9879   -0.1388   -5.2813 C.ar    1  UNL1        0.1472
     59 N           4.5163    0.2740   -6.5396 N.pl3   1  UNL1       -0.3413
     60 N           4.2503    0.4720   -4.1220 N.ar    1  UNL1       -0.2188
     61 C           3.7341    0.0538   -2.9689 C.ar    1  UNL1        0.1205
     62 N           2.9281   -1.0012   -2.9309 N.ar    1  UNL1       -0.2159
     63 C           2.6157   -1.6681   -4.0469 C.ar    1  UNL1        0.1674
     64 C           3.1596    0.5328    0.8643 C.3     1  UNL1        0.1135
     65 O           2.1520    0.9082   -0.0388 O.3     1  UNL1       -0.3864
     66 C           3.4951    1.6819    1.7951 C.3     1  UNL1        0.1285
     67 O           2.7782    2.8068    1.4005 O.3     1  UNL1       -0.3847
     68 H           6.4162    3.7227    7.5965 H       1  UNL1        0.1438
     69 H           5.5095    5.2763    8.0037 H       1  UNL1        0.1438
     70 H           3.6704    6.2350    3.6813 H       1  UNL1        0.1048
     71 H           4.2424   -0.0622    5.3643 H       1  UNL1        0.1030
     72 H           1.9267    1.3741    3.1832 H       1  UNL1        0.0866
     73 H           1.6444   -0.7846    1.7229 H       1  UNL1        0.0647
     74 H           4.4797   -1.6295    1.1357 H       1  UNL1        0.0592
     75 H           3.3116   -2.6943    1.9790 H       1  UNL1        0.0592
     76 H           5.7816   -3.3678   -0.7227 H       1  UNL1        0.2220
     77 H           1.7127   -2.4562   -1.5242 H       1  UNL1        0.0674
     78 H          -0.0469   -3.1146   -0.3498 H       1  UNL1        0.0648
     79 H          -0.1059   -5.8231   -1.3179 H       1  UNL1        0.2100
     80 H          -1.1753   -4.8509   -2.5572 H       1  UNL1        0.0647
     81 H          -1.8219   -2.0365   -1.4797 H       1  UNL1        0.0592
     82 H          -2.5233   -3.5586   -0.8738 H       1  UNL1        0.0592
     83 H          -5.1037   -1.4429   -4.1881 H       1  UNL1        0.2220
     84 H          -3.8090   -0.1439   -1.4815 H       1  UNL1        0.0674
     85 H          -2.2400    0.1120    0.3281 H       1  UNL1        0.0648
     86 H          -3.7771   -1.8405    1.7771 H       1  UNL1        0.2100
     87 H          -4.6637   -0.1675    2.2030 H       1  UNL1        0.0647
     88 H          -3.6582    2.0321    3.0529 H       1  UNL1        0.0592
     89 H          -2.3650    1.8119    1.8516 H       1  UNL1        0.0592
     90 H          -3.2672    1.4714    5.7822 H       1  UNL1        0.2220
     91 H          -0.9878   -0.5427    5.7716 H       1  UNL1        0.2220
     92 H          -6.0543   -0.3578    0.5087 H       1  UNL1        0.0867
     93 H          -8.0104   -0.0225   -1.1034 H       1  UNL1        0.1030
     94 H          -7.2071    3.7140   -5.8361 H       1  UNL1        0.1438
     95 H          -8.4052    3.4399   -4.5505 H       1  UNL1        0.1438
     96 H          -3.1696    3.8476   -3.2157 H       1  UNL1        0.1048
     97 H           1.1039   -4.6458   -3.6115 H       1  UNL1        0.0867
     98 H           1.3332   -3.8171   -6.0335 H       1  UNL1        0.1030
     99 H           4.8694   -0.3971   -7.2636 H       1  UNL1        0.1438
    100 H           4.5847    1.2935   -6.8225 H       1  UNL1        0.1438
    101 H           3.9815    0.5891   -2.0562 H       1  UNL1        0.1048
    102 H           4.0855    0.2288    0.3087 H       1  UNL1        0.0647
    103 H           2.4993    1.7045   -0.5278 H       1  UNL1        0.2100
    104 H           4.5830    1.8447    1.7953 H       1  UNL1        0.0665
    105 H           3.3144    3.4433    0.8631 H       1  UNL1        0.2101
@<TRIPOS>BOND
     1     1     2    1
     2     2     3   ar
     3     3     4   ar
     4     4     5   ar
     5     5     6   ar
     6     6     7   ar
     7     7     8   ar
     8     8     9   ar
     9     9    10   ar
    10    10    11    1
    11    11    12    1
    12    12    13    1
    13    13    14    1
    14    14    15    1
    15    15    16    1
    16    16    17    2
    17    16    18    1
    18    16    19    1
    19    19    20    1
    20    20    21    1
    21    21    22    1
    22    21    23    1
    23    23    24    1
    24    24    25    1
    25    25    26    1
    26    26    27    2
    27    26    28    1
    28    26    29    1
    29    29    30    1
    30    30    31    1
    31    31    32    1
    32    31    33    1
    33    33    34    1
    34    34    35    1
    35    35    36    1
    36    36    37    2
    37    36    38    1
    38    36    39    1
    39    33    40    1
    40    40    41    1
    41    41    42    1
    42    42    43   ar
    43    43    44   ar
    44    44    45   ar
    45    45    46   ar
    46    46    47    1
    47    46    48   ar
    48    48    49   ar
    49    49    50   ar
    50    50    51   ar
    51    23    52    1
    52    52    53    1
    53    53    54    1
    54    54    55   ar
    55    55    56   ar
    56    56    57   ar
    57    57    58   ar
    58    58    59    1
    59    58    60   ar
    60    60    61   ar
    61    61    62   ar
    62    62    63   ar
    63    13    64    1
    64    64    65    1
    65    64    66    1
    66    66    67    1
    67     7     2   ar
    68    66    11    1
    69    10     6   ar
    70    53    20    1
    71    63    54   ar
    72    41    30    1
    73    51    42   ar
    74    63    57   ar
    75    51    45   ar
    76     1    68    1
    77     1    69    1
    78     4    70    1
    79     9    71    1
    80    11    72    1
    81    13    73    1
    82    14    74    1
    83    14    75    1
    84    18    76    1
    85    20    77    1
    86    21    78    1
    87    22    79    1
    88    23    80    1
    89    24    81    1
    90    24    82    1
    91    28    83    1
    92    30    84    1
    93    31    85    1
    94    32    86    1
    95    33    87    1
    96    34    88    1
    97    34    89    1
    98    38    90    1
    99    39    91    1
   100    41    92    1
   101    43    93    1
   102    47    94    1
   103    47    95    1
   104    49    96    1
   105    53    97    1
   106    55    98    1
   107    59    99    1
   108    59   100    1
   109    61   101    1
   110    64   102    1
   111    65   103    1
   112    66   104    1
   113    67   105    1
