
     RDKit          3D

 98102  0  0  0  0  0  0  0  0999 V2000
    0.0000    0.0000    0.0000 I   0  0  0  0  0 15  0  0  0  0  0  0
    0.0000    0.0000    0.0000 I   0  0  0  0  0 15  0  0  0  0  0  0
   -4.0298   -1.7002    0.8265 C   0  0  2  0  0  0  0  0  0  0  0  0
   -3.2568   -2.4001   -0.2571 C   0  0  0  0  0  0  0  0  0  0  0  0
   -1.8458   -1.9593   -0.3679 C   0  0  0  0  0  0  0  0  0  0  0  0
   -0.8850   -2.3314    0.5475 C   0  0  0  0  0  0  0  0  0  0  0  0
    0.4013   -1.8766    0.3784 C   0  0  0  0  0  0  0  0  0  0  0  0
    0.8104   -1.0656   -0.6509 C   0  0  0  0  0  0  0  0  0  0  0  0
    1.9928   -0.5231   -0.9829 O   0  0  0  0  0  0  0  0  0  0  0  0
    3.2853   -0.9373   -0.8811 C   0  0  0  0  0  0  0  0  0  0  0  0
    4.2035   -0.0712   -0.2728 C   0  0  0  0  0  0  0  0  0  0  0  0
    5.5363   -0.4956   -0.1702 C   0  0  0  0  0  0  0  0  0  0  0  0
    6.7111    0.2308    0.4208 C   0  0  0  0  0  0  0  0  0  0  0  0
    6.2439    1.6277    0.6610 C   0  0  0  0  0  0  0  0  0  0  0  0
    4.9248    1.6218    1.2643 N   0  0  0  0  0  4  0  0  0  0  0  0
    4.7089    2.9206    1.8281 C   0  0  0  0  0  0  0  0  0  0  0  0
    4.9217    0.6759    2.3785 C   0  0  0  0  0  0  0  0  0  0  0  0
    3.9019    1.2743    0.2706 C   0  0  2  0  0  0  0  0  0  0  0  0
    2.5958    1.4338    0.9485 C   0  0  0  0  0  0  0  0  0  0  0  0
    1.5289    2.1076    0.1768 C   0  0  0  0  0  0  0  0  0  0  0  0
    0.3054    2.1517    0.8399 C   0  0  0  0  0  0  0  0  0  0  0  0
   -0.7992    2.7402    0.2619 C   0  0  0  0  0  0  0  0  0  0  0  0
   -2.0279    2.8225    0.8465 O   0  0  0  0  0  0  0  0  0  0  0  0
   -3.0927    1.9664    0.6734 C   0  0  0  0  0  0  0  0  0  0  0  0
   -4.3152    2.5415    0.3129 C   0  0  0  0  0  0  0  0  0  0  0  0
   -4.3969    3.9281    0.1484 O   0  0  0  0  0  0  0  0  0  0  0  0
   -5.6497    4.4763   -0.2164 C   0  0  0  0  0  0  0  0  0  0  0  0
   -5.4038    1.7120    0.1313 C   0  0  0  0  0  0  0  0  0  0  0  0
   -5.2891    0.3273    0.3035 C   0  0  0  0  0  0  0  0  0  0  0  0
   -6.5768   -0.3724    0.0648 C   0  0  0  0  0  0  0  0  0  0  0  0
   -6.2693   -1.8479   -0.0734 C   0  0  0  0  0  0  0  0  0  0  0  0
   -5.3595   -2.2377    0.9889 N   0  0  0  0  0  4  0  0  0  0  0  0
   -5.9447   -1.7934    2.2399 C   0  0  0  0  0  0  0  0  0  0  0  0
   -5.3613   -3.6889    1.0000 C   0  0  0  0  0  0  0  0  0  0  0  0
   -4.0790   -0.2339    0.6594 C   0  0  0  0  0  0  0  0  0  0  0  0
   -3.0012    0.6013    0.8377 C   0  0  0  0  0  0  0  0  0  0  0  0
   -0.6948    3.2964   -0.9958 C   0  0  0  0  0  0  0  0  0  0  0  0
   -1.7890    3.8986   -1.6114 O   0  0  0  0  0  0  0  0  0  0  0  0
   -1.7349    4.4735   -2.8845 C   0  0  0  0  0  0  0  0  0  0  0  0
    0.4943    3.2778   -1.6917 C   0  0  0  0  0  0  0  0  0  0  0  0
    1.5543    2.6803   -1.0667 C   0  0  0  0  0  0  0  0  0  0  0  0
    5.9629   -1.7345   -0.6488 C   0  0  0  0  0  0  0  0  0  0  0  0
    5.0424   -2.5965   -1.2555 C   0  0  0  0  0  0  0  0  0  0  0  0
    5.4558   -3.8393   -1.7391 O   0  0  0  0  0  0  0  0  0  0  0  0
    6.7951   -4.2477   -1.6282 C   0  0  0  0  0  0  0  0  0  0  0  0
    3.7393   -2.1530   -1.3426 C   0  0  0  0  0  0  0  0  0  0  0  0
    2.8977   -3.0704   -1.9572 O   0  0  0  0  0  0  0  0  0  0  0  0
    2.2325   -4.1260   -1.2959 C   0  0  0  0  0  0  0  0  0  0  0  0
   -0.1638   -0.6825   -1.5883 C   0  0  0  0  0  0  0  0  0  0  0  0
   -1.4648   -1.1354   -1.4277 C   0  0  0  0  0  0  0  0  0  0  0  0
   -3.4995   -1.9008    1.7871 H   0  0  0  0  0  0  0  0  0  0  0  0
   -3.7977   -2.1598   -1.2207 H   0  0  0  0  0  0  0  0  0  0  0  0
   -3.2875   -3.4857   -0.1876 H   0  0  0  0  0  0  0  0  0  0  0  0
   -1.0920   -2.9559    1.3812 H   0  0  0  0  0  0  0  0  0  0  0  0
    1.2054   -2.1279    1.0563 H   0  0  0  0  0  0  0  0  0  0  0  0
    7.5439    0.2957   -0.3088 H   0  0  0  0  0  0  0  0  0  0  0  0
    7.0626   -0.3243    1.2873 H   0  0  0  0  0  0  0  0  0  0  0  0
    6.2077    2.1677   -0.2971 H   0  0  0  0  0  0  0  0  0  0  0  0
    6.9108    2.1345    1.4179 H   0  0  0  0  0  0  0  0  0  0  0  0
    4.1128    3.5515    1.1332 H   0  0  0  0  0  0  0  0  0  0  0  0
    4.2702    2.8961    2.8470 H   0  0  0  0  0  0  0  0  0  0  0  0
    5.6889    3.4207    1.9509 H   0  0  0  0  0  0  0  0  0  0  0  0
    5.9523    0.5254    2.7849 H   0  0  0  0  0  0  0  0  0  0  0  0
    4.4275   -0.2733    2.0824 H   0  0  0  0  0  0  0  0  0  0  0  0
    4.3554    1.1090    3.2473 H   0  0  0  0  0  0  0  0  0  0  0  0
    4.0907    1.9881   -0.5669 H   0  0  0  0  0  0  0  0  0  0  0  0
    2.1758    0.4733    1.3435 H   0  0  0  0  0  0  0  0  0  0  0  0
    2.6841    2.0476    1.9019 H   0  0  0  0  0  0  0  0  0  0  0  0
    0.1153    1.7378    1.8446 H   0  0  0  0  0  0  0  0  0  0  0  0
   -5.5744    5.5646   -0.4084 H   0  0  0  0  0  0  0  0  0  0  0  0
   -6.0028    4.0201   -1.1838 H   0  0  0  0  0  0  0  0  0  0  0  0
   -6.4416    4.2267    0.5196 H   0  0  0  0  0  0  0  0  0  0  0  0
   -6.3162    2.2285   -0.1472 H   0  0  0  0  0  0  0  0  0  0  0  0
   -7.3154   -0.1572    0.8649 H   0  0  0  0  0  0  0  0  0  0  0  0
   -7.0230    0.0124   -0.8739 H   0  0  0  0  0  0  0  0  0  0  0  0
   -7.1875   -2.4691    0.0251 H   0  0  0  0  0  0  0  0  0  0  0  0
   -5.8139   -1.9671   -1.0749 H   0  0  0  0  0  0  0  0  0  0  0  0
   -5.6404   -2.4917    3.0563 H   0  0  0  0  0  0  0  0  0  0  0  0
   -7.0612   -1.8603    2.2048 H   0  0  0  0  0  0  0  0  0  0  0  0
   -5.5914   -0.7992    2.5052 H   0  0  0  0  0  0  0  0  0  0  0  0
   -5.6191   -4.0890   -0.0137 H   0  0  0  0  0  0  0  0  0  0  0  0
   -6.2039   -4.0100    1.6439 H   0  0  0  0  0  0  0  0  0  0  0  0
   -4.4427   -4.1219    1.4102 H   0  0  0  0  0  0  0  0  0  0  0  0
   -2.0272    0.2306    1.1184 H   0  0  0  0  0  0  0  0  0  0  0  0
   -1.1813    5.4195   -2.9398 H   0  0  0  0  0  0  0  0  0  0  0  0
   -1.3083    3.7821   -3.6456 H   0  0  0  0  0  0  0  0  0  0  0  0
   -2.7873    4.6751   -3.1887 H   0  0  0  0  0  0  0  0  0  0  0  0
    0.6294    3.6949   -2.6696 H   0  0  0  0  0  0  0  0  0  0  0  0
    2.4958    2.6415   -1.5697 H   0  0  0  0  0  0  0  0  0  0  0  0
    6.9925   -2.1228   -0.5961 H   0  0  0  0  0  0  0  0  0  0  0  0
    7.5154   -3.4952   -2.0013 H   0  0  0  0  0  0  0  0  0  0  0  0
    6.9942   -4.3893   -0.5334 H   0  0  0  0  0  0  0  0  0  0  0  0
    6.9866   -5.1616   -2.2193 H   0  0  0  0  0  0  0  0  0  0  0  0
    2.7567   -5.1014   -1.4482 H   0  0  0  0  0  0  0  0  0  0  0  0
    1.1639   -4.2046   -1.5160 H   0  0  0  0  0  0  0  0  0  0  0  0
    2.3374   -3.9440   -0.1918 H   0  0  0  0  0  0  0  0  0  0  0  0
   -0.0237   -0.0440   -2.4690 H   0  0  0  0  0  0  0  0  0  0  0  0
   -2.2524   -0.8538   -2.1459 H   0  0  0  0  0  0  0  0  0  0  0  0
  3  4  1  0
  4  5  1  0
  5  6  2  0
  6  7  1  0
  7  8  2  0
  8  9  1  0
  9 10  1  0
 10 11  2  0
 11 12  1  0
 12 13  1  0
 13 14  1  0
 14 15  1  0
 15 16  1  0
 15 17  1  0
 15 18  1  0
 18 19  1  0
 19 20  1  0
 20 21  2  0
 21 22  1  0
 22 23  1  0
 23 24  1  0
 24 25  2  0
 25 26  1  0
 26 27  1  0
 25 28  1  0
 28 29  2  0
 29 30  1  0
 30 31  1  0
 31 32  1  0
 32 33  1  0
 32 34  1  0
 29 35  1  0
 35 36  2  0
 22 37  2  0
 37 38  1  0
 38 39  1  0
 37 40  1  0
 40 41  2  0
 12 42  2  0
 42 43  1  0
 43 44  1  0
 44 45  1  0
 43 46  2  0
 46 47  1  0
 47 48  1  0
  8 49  1  0
 49 50  2  0
 32  3  1  0
 35  3  1  0
 50  5  1  0
 46 10  1  0
 18 11  1  0
 41 20  1  0
 36 24  1  0
  3 51  1  1
  4 52  1  0
  4 53  1  0
  6 54  1  0
  7 55  1  0
 13 56  1  0
 13 57  1  0
 14 58  1  0
 14 59  1  0
 16 60  1  0
 16 61  1  0
 16 62  1  0
 17 63  1  0
 17 64  1  0
 17 65  1  0
 18 66  1  6
 19 67  1  0
 19 68  1  0
 21 69  1  0
 27 70  1  0
 27 71  1  0
 27 72  1  0
 28 73  1  0
 30 74  1  0
 30 75  1  0
 31 76  1  0
 31 77  1  0
 33 78  1  0
 33 79  1  0
 33 80  1  0
 34 81  1  0
 34 82  1  0
 34 83  1  0
 36 84  1  0
 39 85  1  0
 39 86  1  0
 39 87  1  0
 40 88  1  0
 41 89  1  0
 42 90  1  0
 45 91  1  0
 45 92  1  0
 45 93  1  0
 48 94  1  0
 48 95  1  0
 48 96  1  0
 49 97  1  0
 50 98  1  0
M  CHG  4   1  -1   2  -1  15   1  32   1
M  END
$$$$
