
     RDKit          3D

 43 46  0  0  0  0  0  0  0  0999 V2000
    5.2186    1.3713    2.7959 N   0  0  0  0  0  0  0  0  0  0  0  0
    4.8589    0.9969    1.4830 N   0  0  0  0  0  0  0  0  0  0  0  0
    3.5137    0.5737    1.2597 C   0  0  0  0  0  0  0  0  0  0  0  0
    2.6547    0.5216    2.1693 O   0  0  0  0  0  0  0  0  0  0  0  0
    3.1443    0.1877   -0.1058 C   0  0  0  0  0  0  0  0  0  0  0  0
    3.9268    0.1637   -1.2341 C   0  0  0  0  0  0  0  0  0  0  0  0
    3.2133   -0.2439   -2.2982 N   0  0  0  0  0  0  0  0  0  0  0  0
    1.9587   -0.4826   -1.8383 C   0  0  0  0  0  0  0  0  0  0  0  0
    0.8101   -0.9192   -2.4969 C   0  0  0  0  0  0  0  0  0  0  0  0
   -0.3283   -1.0686   -1.7674 C   0  0  0  0  0  0  0  0  0  0  0  0
   -0.3246   -0.7925   -0.4235 C   0  0  0  0  0  0  0  0  0  0  0  0
   -1.5758   -0.9582    0.3120 C   0  0  0  0  0  0  0  0  0  0  0  0
   -2.4745    0.0824    0.4728 C   0  0  0  0  0  0  0  0  0  0  0  0
   -2.3692    1.4657   -0.0285 C   0  0  0  0  0  0  0  0  0  0  0  0
   -2.3063    2.5322    0.8687 C   0  0  0  0  0  0  0  0  0  0  0  0
   -2.2051    3.8458    0.4638 C   0  0  0  0  0  0  0  0  0  0  0  0
   -2.1638    4.1267   -0.8926 C   0  0  0  0  0  0  0  0  0  0  0  0
   -2.0633    5.4222   -1.3086 F   0  0  0  0  0  0  0  0  0  0  0  0
   -2.2253    3.0780   -1.8071 C   0  0  0  0  0  0  0  0  0  0  0  0
   -2.3264    1.7722   -1.3643 C   0  0  0  0  0  0  0  0  0  0  0  0
   -3.4891   -0.3720    1.1828 N   0  0  0  0  0  0  0  0  0  0  0  0
   -3.2368   -1.6566    1.4597 C   0  0  0  0  0  0  0  0  0  0  0  0
   -2.0626   -2.0356    0.9316 N   0  0  0  0  0  0  0  0  0  0  0  0
   -1.4735   -3.3302    1.0185 C   0  0  0  0  0  0  0  0  0  0  0  0
   -1.8594   -4.3060   -0.0293 C   0  0  0  0  0  0  0  0  0  0  0  0
   -1.5559   -3.9281   -1.3150 F   0  0  0  0  0  0  0  0  0  0  0  0
   -3.1606   -4.7532    0.0819 F   0  0  0  0  0  0  0  0  0  0  0  0
    0.8067   -0.3656    0.2095 N   0  0  0  0  0  0  0  0  0  0  0  0
    1.9131   -0.2246   -0.5212 N   0  0  0  0  0  0  0  0  0  0  0  0
    4.9889    2.4051    2.9058 H   0  0  0  0  0  0  0  0  0  0  0  0
    6.2573    1.2185    2.9144 H   0  0  0  0  0  0  0  0  0  0  0  0
    5.5332    1.0191    0.6817 H   0  0  0  0  0  0  0  0  0  0  0  0
    4.9708    0.4431   -1.2230 H   0  0  0  0  0  0  0  0  0  0  0  0
    0.8712   -1.1248   -3.5761 H   0  0  0  0  0  0  0  0  0  0  0  0
   -1.2359   -1.4020   -2.2310 H   0  0  0  0  0  0  0  0  0  0  0  0
   -2.3383    2.2986    1.9040 H   0  0  0  0  0  0  0  0  0  0  0  0
   -2.1554    4.6852    1.1448 H   0  0  0  0  0  0  0  0  0  0  0  0
   -2.1888    3.3513   -2.8520 H   0  0  0  0  0  0  0  0  0  0  0  0
   -2.3727    0.9758   -2.1029 H   0  0  0  0  0  0  0  0  0  0  0  0
   -3.8893   -2.2920    2.0278 H   0  0  0  0  0  0  0  0  0  0  0  0
   -1.6767   -3.8282    2.0116 H   0  0  0  0  0  0  0  0  0  0  0  0
   -0.3492   -3.2233    0.9611 H   0  0  0  0  0  0  0  0  0  0  0  0
   -1.2332   -5.2298    0.1557 H   0  0  0  0  0  0  0  0  0  0  0  0
  1  2  1  0
  2  3  1  0
  3  4  2  0
  3  5  1  0
  5  6  2  0
  6  7  1  0
  7  8  2  0
  8  9  1  0
  9 10  2  0
 10 11  1  0
 11 12  1  0
 12 13  2  0
 13 14  1  0
 14 15  2  0
 15 16  1  0
 16 17  2  0
 17 18  1  0
 17 19  1  0
 19 20  2  0
 13 21  1  0
 21 22  2  0
 22 23  1  0
 23 24  1  0
 24 25  1  0
 25 26  1  0
 25 27  1  0
 11 28  2  0
 28 29  1  0
 29  5  1  0
 29  8  1  0
 23 12  1  0
 20 14  1  0
  1 30  1  0
  1 31  1  0
  2 32  1  0
  6 33  1  0
  9 34  1  0
 10 35  1  0
 15 36  1  0
 16 37  1  0
 19 38  1  0
 20 39  1  0
 22 40  1  0
 24 41  1  0
 24 42  1  0
 25 43  1  0
M  END
$$$$
