@<TRIPOS>MOLECULE
*****
 43 46 0 0 0
SMALL
GASTEIGER

@<TRIPOS>ATOM
      1 N           5.2186    1.3713    2.7959 N.3     1  UNL1       -0.2541
      2 N           4.8589    0.9969    1.4830 N.am    1  UNL1       -0.2483
      3 C           3.5137    0.5737    1.2597 C.2     1  UNL1        0.2773
      4 O           2.6547    0.5216    2.1693 O.2     1  UNL1       -0.2672
      5 C           3.1443    0.1877   -0.1058 C.ar    1  UNL1        0.1484
      6 C           3.9268    0.1637   -1.2341 C.ar    1  UNL1        0.0606
      7 N           3.2133   -0.2439   -2.2982 N.ar    1  UNL1       -0.2339
      8 C           1.9587   -0.4826   -1.8383 C.ar    1  UNL1        0.1549
      9 C           0.8101   -0.9192   -2.4969 C.ar    1  UNL1       -0.0153
     10 C          -0.3283   -1.0686   -1.7674 C.ar    1  UNL1       -0.0290
     11 C          -0.3246   -0.7925   -0.4235 C.ar    1  UNL1        0.1103
     12 C          -1.5758   -0.9582    0.3120 C.ar    1  UNL1        0.0968
     13 C          -2.4745    0.0824    0.4728 C.ar    1  UNL1        0.0982
     14 C          -2.3692    1.4657   -0.0285 C.ar    1  UNL1        0.0027
     15 C          -2.3063    2.5322    0.8687 C.ar    1  UNL1       -0.0498
     16 C          -2.2051    3.8458    0.4638 C.ar    1  UNL1       -0.0258
     17 C          -2.1638    4.1267   -0.8926 C.ar    1  UNL1        0.1234
     18 F          -2.0633    5.4222   -1.3086 F       1  UNL1       -0.2055
     19 C          -2.2253    3.0780   -1.8071 C.ar    1  UNL1       -0.0258
     20 C          -2.3264    1.7722   -1.3643 C.ar    1  UNL1       -0.0498
     21 N          -3.4891   -0.3720    1.1828 N.ar    1  UNL1       -0.2351
     22 C          -3.2368   -1.6566    1.4597 C.ar    1  UNL1        0.0973
     23 N          -2.0626   -2.0356    0.9316 N.ar    1  UNL1       -0.3229
     24 C          -1.4735   -3.3302    1.0185 C.3     1  UNL1        0.0852
     25 C          -1.8594   -4.3060   -0.0293 C.3     1  UNL1        0.2569
     26 F          -1.5559   -3.9281   -1.3150 F       1  UNL1       -0.2073
     27 F          -3.1606   -4.7532    0.0819 F       1  UNL1       -0.2073
     28 N           0.8067   -0.3656    0.2095 N.ar    1  UNL1       -0.1628
     29 N           1.9131   -0.2246   -0.5212 N.ar    1  UNL1       -0.2075
     30 H           4.9889    2.4051    2.9058 H       1  UNL1        0.1405
     31 H           6.2573    1.2185    2.9144 H       1  UNL1        0.1405
     32 H           5.5332    1.0191    0.6817 H       1  UNL1        0.1691
     33 H           4.9708    0.4431   -1.2230 H       1  UNL1        0.0854
     34 H           0.8712   -1.1248   -3.5761 H       1  UNL1        0.0655
     35 H          -1.2359   -1.4020   -2.2310 H       1  UNL1        0.0641
     36 H          -2.3383    2.2986    1.9040 H       1  UNL1        0.0625
     37 H          -2.1554    4.6852    1.1448 H       1  UNL1        0.0646
     38 H          -2.1888    3.3513   -2.8520 H       1  UNL1        0.0646
     39 H          -2.3727    0.9758   -2.1029 H       1  UNL1        0.0625
     40 H          -3.8893   -2.2920    2.0278 H       1  UNL1        0.1029
     41 H          -1.6767   -3.8282    2.0116 H       1  UNL1        0.0548
     42 H          -0.3492   -3.2233    0.9611 H       1  UNL1        0.0548
     43 H          -1.2332   -5.2298    0.1557 H       1  UNL1        0.1037
@<TRIPOS>BOND
     1     1     2    1
     2     2     3   am
     3     3     4    2
     4     3     5    1
     5     5     6   ar
     6     6     7   ar
     7     7     8   ar
     8     8     9   ar
     9     9    10   ar
    10    10    11   ar
    11    11    12    1
    12    12    13   ar
    13    13    14    1
    14    14    15   ar
    15    15    16   ar
    16    16    17   ar
    17    17    18    1
    18    17    19   ar
    19    19    20   ar
    20    13    21   ar
    21    21    22   ar
    22    22    23   ar
    23    23    24    1
    24    24    25    1
    25    25    26    1
    26    25    27    1
    27    11    28   ar
    28    28    29   ar
    29    29     5   ar
    30    29     8   ar
    31    23    12   ar
    32    20    14   ar
    33     1    30    1
    34     1    31    1
    35     2    32    1
    36     6    33    1
    37     9    34    1
    38    10    35    1
    39    15    36    1
    40    16    37    1
    41    19    38    1
    42    20    39    1
    43    22    40    1
    44    24    41    1
    45    24    42    1
    46    25    43    1
