
     RDKit          3D

 26 25  0  0  0  0  0  0  0  0999 V2000
    2.9539    1.0377    0.5394 C   0  0  0  0  0  0  0  0  0  0  0  0
    1.4303    0.9479    0.2289 C   0  0  0  0  0  0  0  0  0  0  0  0
    1.1045   -0.4031   -0.2872 C   0  0  0  0  0  0  0  0  0  0  0  0
   -0.2845   -0.7076   -0.6962 C   0  0  0  0  0  0  0  0  0  0  0  0
   -1.3883   -0.6293    0.2625 C   0  0  0  0  0  0  0  0  0  0  0  0
   -1.7375    0.6264    0.9428 C   0  0  0  0  0  0  0  0  0  0  0  0
   -2.0780    1.7564   -0.0036 C   0  0  0  0  0  0  0  0  0  0  0  0
   -0.2394   -2.1688   -1.1453 C   0  0  0  0  0  0  0  0  0  0  0  0
    0.1566   -3.1099   -0.2082 O   0  0  0  0  0  0  0  0  0  0  0  0
   -0.5382   -2.5860   -2.3152 O   0  0  0  0  0  0  0  0  0  0  0  0
    3.1811    0.2727    1.2972 H   0  0  0  0  0  0  0  0  0  0  0  0
    3.0669    2.0290    1.0282 H   0  0  0  0  0  0  0  0  0  0  0  0
    3.5279    0.9490   -0.3920 H   0  0  0  0  0  0  0  0  0  0  0  0
    0.9952    1.1048    1.2440 H   0  0  0  0  0  0  0  0  0  0  0  0
    1.2366    1.7377   -0.4923 H   0  0  0  0  0  0  0  0  0  0  0  0
    1.4882   -1.2184    0.3875 H   0  0  0  0  0  0  0  0  0  0  0  0
    1.7431   -0.5460   -1.2203 H   0  0  0  0  0  0  0  0  0  0  0  0
   -0.5123   -0.0969   -1.6343 H   0  0  0  0  0  0  0  0  0  0  0  0
   -1.2880   -1.4619    1.0157 H   0  0  0  0  0  0  0  0  0  0  0  0
   -2.3234   -0.9555   -0.3087 H   0  0  0  0  0  0  0  0  0  0  0  0
   -1.1553    0.9911    1.7663 H   0  0  0  0  0  0  0  0  0  0  0  0
   -2.7647    0.4054    1.4395 H   0  0  0  0  0  0  0  0  0  0  0  0
   -1.1585    2.0089   -0.5596 H   0  0  0  0  0  0  0  0  0  0  0  0
   -2.8980    1.4602   -0.6861 H   0  0  0  0  0  0  0  0  0  0  0  0
   -2.3686    2.6295    0.6306 H   0  0  0  0  0  0  0  0  0  0  0  0
   -0.1498   -4.0735   -0.2282 H   0  0  0  0  0  0  0  0  0  0  0  0
  1  2  1  0
  2  3  1  0
  3  4  1  0
  4  5  1  0
  5  6  1  0
  6  7  1  0
  4  8  1  0
  8  9  1  0
  8 10  2  0
  1 11  1  0
  1 12  1  0
  1 13  1  0
  2 14  1  0
  2 15  1  0
  3 16  1  0
  3 17  1  0
  4 18  1  0
  5 19  1  0
  5 20  1  0
  6 21  1  0
  6 22  1  0
  7 23  1  0
  7 24  1  0
  7 25  1  0
  9 26  1  0
M  END
$$$$
