@<TRIPOS>MOLECULE
*****
 75 79 0 0 0
SMALL
GASTEIGER

@<TRIPOS>ATOM
      1 C          -0.3764   -2.5998   -2.1448 C.3     1  UNL1        0.0789
      2 O           0.4034   -1.7898   -1.2830 O.3     1  UNL1       -0.4932
      3 C           1.0639   -1.1142   -0.5574 C.ar    1  UNL1        0.1429
      4 C           2.2733   -1.5436    0.0840 C.ar    1  UNL1        0.0029
      5 C           3.0082   -0.7586    0.9102 C.ar    1  UNL1        0.0334
      6 N           4.1795   -1.3265    1.5221 N.pl3   1  UNL1       -0.3274
      7 C           4.8502   -0.7177    2.6445 C.3     1  UNL1        0.0250
      8 C           6.2639   -0.4353    2.2285 C.3     1  UNL1        0.0148
      9 N           6.8655   -1.5594    1.5976 N.3     1  UNL1       -0.2969
     10 C           7.3240   -1.2959    0.2536 C.3     1  UNL1        0.0248
     11 C           8.4571   -0.3274    0.3582 C.3     1  UNL1        0.0651
     12 C           9.0640   -0.0178   -1.0054 C.3     1  UNL1       -0.0377
     13 O           9.4624   -0.8946    1.1437 O.3     1  UNL1       -0.3908
     14 C           6.0951   -2.7760    1.6351 C.3     1  UNL1        0.0148
     15 C           4.7014   -2.5613    1.0125 C.3     1  UNL1        0.0250
     16 C           2.5923    0.5074    1.1471 C.ar    1  UNL1       -0.0387
     17 C           1.4103    0.9849    0.5482 C.ar    1  UNL1       -0.0351
     18 C           0.6402    0.2604   -0.2687 C.ar    1  UNL1        0.0759
     19 N          -0.5925    0.6246   -0.8508 N.pl3   1  UNL1       -0.2795
     20 C          -1.4610    1.6299   -0.3402 C.ar    1  UNL1        0.2377
     21 N          -1.2022    2.5038    0.6307 N.ar    1  UNL1       -0.2194
     22 C          -2.1264    3.3190    1.1863 C.ar    1  UNL1        0.0566
     23 C          -3.4326    3.2167    0.6860 C.ar    1  UNL1        0.0843
     24 C          -4.5999    3.8431    1.0754 C.ar    1  UNL1       -0.0327
     25 C          -5.5965    3.2855    0.2501 C.ar    1  UNL1       -0.0336
     26 C          -5.0889    2.3972   -0.5771 C.ar    1  UNL1        0.0752
     27 C          -5.5444    1.4602   -1.6045 C.ar    1  UNL1        0.0230
     28 C          -5.4052    1.8093   -2.9550 C.ar    1  UNL1       -0.0507
     29 C          -5.6008    0.8544   -3.9746 C.ar    1  UNL1       -0.0610
     30 C          -5.9272   -0.4166   -3.6288 C.ar    1  UNL1       -0.0599
     31 C          -6.0717   -0.7837   -2.3315 C.ar    1  UNL1       -0.0385
     32 C          -5.8785    0.1802   -1.3000 C.ar    1  UNL1        0.0597
     33 N          -6.1603   -0.2986   -0.0051 N.pl3   1  UNL1       -0.2100
     34 C          -5.1044   -0.8390    0.8161 C.3     1  UNL1        0.0232
     35 S          -7.7969   -0.2405    0.4903 S.O2    1  UNL1        0.0424
     36 C          -8.4752    1.3618    0.5393 C.3     1  UNL1        0.0738
     37 O          -8.6318   -1.0525   -0.4922 O.2     1  UNL1       -0.1553
     38 O          -7.8912   -0.8491    1.8698 O.2     1  UNL1       -0.1553
     39 N          -3.7173    2.3657   -0.2784 N.ar    1  UNL1       -0.2274
     40 N          -2.7679    1.5967   -0.7778 N.ar    1  UNL1       -0.1295
     41 H           0.3071   -3.2984   -2.6955 H       1  UNL1        0.0660
     42 H          -1.0725   -3.2407   -1.5911 H       1  UNL1        0.0660
     43 H          -0.8984   -1.9655   -2.8933 H       1  UNL1        0.0660
     44 H           2.5609   -2.5887   -0.1387 H       1  UNL1        0.0673
     45 H           4.8826   -1.4681    3.4755 H       1  UNL1        0.0476
     46 H           4.2913    0.1426    3.0683 H       1  UNL1        0.0476
     47 H           6.2004    0.3788    1.4421 H       1  UNL1        0.0442
     48 H           6.8769   -0.0004    3.0562 H       1  UNL1        0.0442
     49 H           6.4474   -0.8558   -0.2916 H       1  UNL1        0.0452
     50 H           7.6180   -2.2026   -0.2631 H       1  UNL1        0.0452
     51 H           8.0682    0.6358    0.7556 H       1  UNL1        0.0603
     52 H           8.2589    0.3352   -1.6782 H       1  UNL1        0.0255
     53 H           9.8505    0.7298   -0.8344 H       1  UNL1        0.0255
     54 H           9.4549   -0.9820   -1.4265 H       1  UNL1        0.0255
     55 H           9.7556   -0.3131    1.8817 H       1  UNL1        0.2098
     56 H           6.0074   -3.2418    2.6328 H       1  UNL1        0.0442
     57 H           6.5709   -3.5190    0.9780 H       1  UNL1        0.0442
     58 H           4.1141   -3.4422    1.3289 H       1  UNL1        0.0476
     59 H           4.8622   -2.5593   -0.0897 H       1  UNL1        0.0476
     60 H           3.1447    1.1755    1.7557 H       1  UNL1        0.0637
     61 H           1.1089    2.0274    0.7546 H       1  UNL1        0.0638
     62 H          -0.8967    0.1192   -1.7335 H       1  UNL1        0.1552
     63 H          -1.9033    4.0225    1.9614 H       1  UNL1        0.0852
     64 H          -4.7240    4.5835    1.8419 H       1  UNL1        0.0640
     65 H          -6.6199    3.6073    0.3247 H       1  UNL1        0.0640
     66 H          -5.1393    2.8317   -3.1826 H       1  UNL1        0.0625
     67 H          -5.5091    1.1380   -4.9931 H       1  UNL1        0.0618
     68 H          -6.0833   -1.1958   -4.4057 H       1  UNL1        0.0618
     69 H          -6.3429   -1.7945   -2.0440 H       1  UNL1        0.0637
     70 H          -4.6964   -0.1448    1.5611 H       1  UNL1        0.0446
     71 H          -5.4516   -1.7884    1.3038 H       1  UNL1        0.0446
     72 H          -4.2465   -1.1718    0.1628 H       1  UNL1        0.0446
     73 H          -8.1469    1.9725   -0.3047 H       1  UNL1        0.0482
     74 H          -9.6094    1.2918    0.5329 H       1  UNL1        0.0482
     75 H          -8.2459    1.8812    1.4933 H       1  UNL1        0.0482
@<TRIPOS>BOND
     1     1     2    1
     2     2     3    1
     3     3     4   ar
     4     4     5   ar
     5     5     6    1
     6     6     7    1
     7     7     8    1
     8     8     9    1
     9     9    10    1
    10    10    11    1
    11    11    12    1
    12    11    13    1
    13     9    14    1
    14    14    15    1
    15     5    16   ar
    16    16    17   ar
    17    17    18   ar
    18    18    19    1
    19    19    20    1
    20    20    21   ar
    21    21    22   ar
    22    22    23   ar
    23    23    24   ar
    24    24    25   ar
    25    25    26   ar
    26    26    27    1
    27    27    28   ar
    28    28    29   ar
    29    29    30   ar
    30    30    31   ar
    31    31    32   ar
    32    32    33    1
    33    33    34    1
    34    33    35    1
    35    35    36    1
    36    35    37    2
    37    35    38    2
    38    26    39   ar
    39    39    40   ar
    40    18     3   ar
    41    40    20   ar
    42    15     6    1
    43    39    23   ar
    44    32    27   ar
    45     1    41    1
    46     1    42    1
    47     1    43    1
    48     4    44    1
    49     7    45    1
    50     7    46    1
    51     8    47    1
    52     8    48    1
    53    10    49    1
    54    10    50    1
    55    11    51    1
    56    12    52    1
    57    12    53    1
    58    12    54    1
    59    13    55    1
    60    14    56    1
    61    14    57    1
    62    15    58    1
    63    15    59    1
    64    16    60    1
    65    17    61    1
    66    19    62    1
    67    22    63    1
    68    24    64    1
    69    25    65    1
    70    28    66    1
    71    29    67    1
    72    30    68    1
    73    31    69    1
    74    34    70    1
    75    34    71    1
    76    34    72    1
    77    36    73    1
    78    36    74    1
    79    36    75    1
