@<TRIPOS>MOLECULE
*****
 66 69 0 0 0
SMALL
GASTEIGER

@<TRIPOS>ATOM
      1 C          -0.1060    1.6045   -2.4571 C.3     1  UNL1       -0.0421
      2 C           0.1823    0.2017   -1.9011 C.3     1  UNL1        0.0515
      3 C           1.5874    0.0848   -1.4725 C.ar    1  UNL1       -0.0271
      4 C           2.5734    1.0116   -1.7574 C.ar    1  UNL1       -0.0562
      5 C           3.8738    0.8839   -1.3477 C.ar    1  UNL1       -0.0537
      6 C           4.2537   -0.2240   -0.6051 C.ar    1  UNL1       -0.0177
      7 C           5.6401   -0.3590   -0.1679 C.ar    1  UNL1       -0.0114
      8 C           6.6645    0.1463   -0.9443 C.ar    1  UNL1       -0.0374
      9 C           7.9874    0.0191   -0.5293 C.ar    1  UNL1        0.0137
     10 N           8.2934   -0.5910    0.6221 N.ar    1  UNL1       -0.2583
     11 C           9.7099   -0.6906    0.9999 C.3     1  UNL1        0.3223
     12 F           9.8246   -1.2095    2.2779 F       1  UNL1       -0.1846
     13 F          10.2086    0.6082    0.9406 F       1  UNL1       -0.1846
     14 C           7.3204   -1.0847    1.3844 C.ar    1  UNL1        0.2560
     15 O           7.6254   -1.6591    2.4710 O.2     1  UNL1       -0.2675
     16 C           6.0128   -0.9746    1.0028 C.ar    1  UNL1        0.0108
     17 C           3.2929   -1.1680   -0.3039 C.ar    1  UNL1       -0.0537
     18 C           1.9878   -1.0096   -0.7327 C.ar    1  UNL1       -0.0562
     19 N          -0.7467   -0.1160   -0.8321 N.am    1  UNL1       -0.2605
     20 C          -1.6665   -1.2018   -1.0341 C.3     1  UNL1        0.0224
     21 C          -2.5945   -1.4437    0.1191 C.3     1  UNL1        0.0076
     22 C          -3.0194   -0.1927    0.8249 C.3     1  UNL1        0.1440
     23 C          -3.7784   -0.3222    2.0692 C.3     1  UNL1        0.0199
     24 C          -5.0740   -0.9769    2.1627 C.3     1  UNL1        0.0645
     25 C          -5.0390   -2.4229    1.7344 C.3     1  UNL1       -0.0362
     26 C          -5.4401   -1.0126    3.6754 C.3     1  UNL1       -0.0362
     27 O          -6.1707   -0.3719    1.5873 O.3     1  UNL1       -0.3890
     28 C          -3.6653    0.6687   -0.1989 C.ar    1  UNL1       -0.0040
     29 C          -3.2642    1.9623   -0.4873 C.ar    1  UNL1       -0.0548
     30 C          -3.8628    2.7380   -1.4570 C.ar    1  UNL1       -0.0614
     31 C          -4.9129    2.2275   -2.1898 C.ar    1  UNL1       -0.0617
     32 C          -5.3309    0.9616   -1.9320 C.ar    1  UNL1       -0.0614
     33 C          -4.7161    0.1855   -0.9473 C.ar    1  UNL1       -0.0548
     34 O          -1.8348    0.5709    1.2065 O.3     1  UNL1       -0.4387
     35 C          -0.7435    0.6148    0.3563 C.2     1  UNL1        0.4042
     36 O           0.2359    1.3353    0.7035 O.2     1  UNL1       -0.2262
     37 H          -1.1929    1.7201   -2.6446 H       1  UNL1        0.0251
     38 H           0.1391    2.3400   -1.6445 H       1  UNL1        0.0251
     39 H           0.4291    1.7859   -3.3858 H       1  UNL1        0.0251
     40 H           0.0487   -0.4751   -2.7750 H       1  UNL1        0.0549
     41 H           2.2989    1.8842   -2.3357 H       1  UNL1        0.0621
     42 H           4.6460    1.6134   -1.5730 H       1  UNL1        0.0624
     43 H           6.4467    0.6431   -1.8775 H       1  UNL1        0.0638
     44 H           8.7579    0.4389   -1.1852 H       1  UNL1        0.0812
     45 H          10.2692   -1.2810    0.2577 H       1  UNL1        0.1281
     46 H           5.1951   -1.3755    1.6181 H       1  UNL1        0.0678
     47 H           3.5374   -2.0485    0.2714 H       1  UNL1        0.0624
     48 H           1.2316   -1.7658   -0.4879 H       1  UNL1        0.0621
     49 H          -2.1978   -1.0090   -1.9900 H       1  UNL1        0.0467
     50 H          -1.0603   -2.1176   -1.2016 H       1  UNL1        0.0467
     51 H          -3.4993   -1.9102   -0.3139 H       1  UNL1        0.0322
     52 H          -2.0492   -2.0732    0.8463 H       1  UNL1        0.0322
     53 H          -3.1467   -0.7751    2.9084 H       1  UNL1        0.0335
     54 H          -3.8982    0.7400    2.4769 H       1  UNL1        0.0335
     55 H          -5.6909   -3.0564    2.4143 H       1  UNL1        0.0257
     56 H          -5.5292   -2.5680    0.7316 H       1  UNL1        0.0257
     57 H          -4.0499   -2.8990    1.8036 H       1  UNL1        0.0257
     58 H          -4.7996   -1.7753    4.1893 H       1  UNL1        0.0257
     59 H          -5.3000   -0.0172    4.0986 H       1  UNL1        0.0257
     60 H          -6.5188   -1.2618    3.7475 H       1  UNL1        0.0257
     61 H          -6.7535   -1.0123    1.0900 H       1  UNL1        0.2101
     62 H          -2.4266    2.3926    0.0856 H       1  UNL1        0.0622
     63 H          -3.4967    3.7439   -1.6296 H       1  UNL1        0.0618
     64 H          -5.4105    2.8242   -2.9706 H       1  UNL1        0.0618
     65 H          -6.1646    0.5691   -2.5204 H       1  UNL1        0.0618
     66 H          -5.1234   -0.7976   -0.8444 H       1  UNL1        0.0622
@<TRIPOS>BOND
     1     1     2    1
     2     2     3    1
     3     3     4   ar
     4     4     5   ar
     5     5     6   ar
     6     6     7    1
     7     7     8   ar
     8     8     9   ar
     9     9    10   ar
    10    10    11    1
    11    11    12    1
    12    11    13    1
    13    10    14   ar
    14    14    15    2
    15    14    16   ar
    16     6    17   ar
    17    17    18   ar
    18     2    19    1
    19    19    20    1
    20    20    21    1
    21    21    22    1
    22    22    23    1
    23    23    24    1
    24    24    25    1
    25    24    26    1
    26    24    27    1
    27    22    28    1
    28    28    29   ar
    29    29    30   ar
    30    30    31   ar
    31    31    32   ar
    32    32    33   ar
    33    22    34    1
    34    34    35    1
    35    35    36    2
    36    18     3   ar
    37    35    19   am
    38    16     7   ar
    39    33    28   ar
    40     1    37    1
    41     1    38    1
    42     1    39    1
    43     2    40    1
    44     4    41    1
    45     5    42    1
    46     8    43    1
    47     9    44    1
    48    11    45    1
    49    16    46    1
    50    17    47    1
    51    18    48    1
    52    20    49    1
    53    20    50    1
    54    21    51    1
    55    21    52    1
    56    23    53    1
    57    23    54    1
    58    25    55    1
    59    25    56    1
    60    25    57    1
    61    26    58    1
    62    26    59    1
    63    26    60    1
    64    27    61    1
    65    29    62    1
    66    30    63    1
    67    31    64    1
    68    32    65    1
    69    33    66    1
