@<TRIPOS>MOLECULE
*****
 49 51 0 0 0
SMALL
GASTEIGER

@<TRIPOS>ATOM
      1 C           7.1856   -0.7910    4.9996 C.3     1  UNL1        0.0788
      2 O           5.8286   -1.0921    5.1852 O.3     1  UNL1       -0.4951
      3 C           4.8231   -0.5987    4.3584 C.ar    1  UNL1        0.1201
      4 C           3.4952   -0.9099    4.5615 C.ar    1  UNL1       -0.0196
      5 C           2.4942   -0.4412    3.7687 C.ar    1  UNL1       -0.0519
      6 C           2.8161    0.3929    2.6991 C.ar    1  UNL1       -0.0102
      7 C           1.7455    0.9071    1.8319 C.3     1  UNL1        0.1148
      8 O           1.4812    0.0482    0.7367 O.3     1  UNL1       -0.4837
      9 C           0.4933    0.3541   -0.1935 C.ar    1  UNL1        0.1624
     10 C          -0.2720    1.4965   -0.0937 C.ar    1  UNL1       -0.0160
     11 C          -1.2507    1.7991   -1.0137 C.ar    1  UNL1       -0.0546
     12 C          -1.5122    0.9529   -2.0982 C.ar    1  UNL1       -0.0392
     13 C          -2.5504    1.2955   -3.0661 C.3     1  UNL1        0.0024
     14 C          -3.9274    0.9077   -2.6788 C.ar    1  UNL1        0.0146
     15 C          -4.8015    1.8637   -2.1971 C.ar    1  UNL1        0.0379
     16 N          -6.0574    1.5544   -1.8297 N.ar    1  UNL1       -0.2227
     17 C          -6.5276    0.2992   -1.9117 C.ar    1  UNL1        0.2142
     18 N          -7.8748   -0.0232   -1.5155 N.pl3   1  UNL1       -0.3274
     19 N          -5.6989   -0.6537   -2.3774 N.ar    1  UNL1       -0.1999
     20 C          -4.4229   -0.3728   -2.7572 C.ar    1  UNL1        0.1247
     21 N          -3.6215   -1.4254   -3.2376 N.pl3   1  UNL1       -0.3428
     22 C          -0.7424   -0.1825   -2.1870 C.ar    1  UNL1       -0.0128
     23 C           0.2538   -0.4963   -1.2555 C.ar    1  UNL1        0.1618
     24 O           0.9901   -1.6626   -1.4131 O.3     1  UNL1       -0.4914
     25 C           0.7353   -2.5082   -2.4934 C.3     1  UNL1        0.0790
     26 C           4.1228    0.7136    2.4799 C.ar    1  UNL1       -0.0519
     27 C           5.1348    0.2286    3.2965 C.ar    1  UNL1       -0.0196
     28 H           7.4992   -1.0213    3.9593 H       1  UNL1        0.0660
     29 H           7.4666    0.2359    5.2492 H       1  UNL1        0.0660
     30 H           7.7545   -1.4480    5.7158 H       1  UNL1        0.0660
     31 H           3.2663   -1.5617    5.3998 H       1  UNL1        0.0654
     32 H           1.4542   -0.6840    3.9263 H       1  UNL1        0.0622
     33 H           0.8370    1.1360    2.4162 H       1  UNL1        0.0748
     34 H           2.1362    1.8612    1.3691 H       1  UNL1        0.0748
     35 H          -0.0669    2.1641    0.7608 H       1  UNL1        0.0655
     36 H          -1.8298    2.6971   -0.9080 H       1  UNL1        0.0622
     37 H          -2.2928    0.8184   -4.0566 H       1  UNL1        0.0363
     38 H          -2.4949    2.3993   -3.2994 H       1  UNL1        0.0363
     39 H          -4.4544    2.9049   -2.1140 H       1  UNL1        0.0834
     40 H          -8.6483    0.0195   -2.2068 H       1  UNL1        0.1452
     41 H          -8.0432   -0.2917   -0.5463 H       1  UNL1        0.1452
     42 H          -3.4618   -2.2554   -2.6481 H       1  UNL1        0.1437
     43 H          -3.1932   -1.3724   -4.1735 H       1  UNL1        0.1437
     44 H          -0.9359   -0.8430   -3.0310 H       1  UNL1        0.0658
     45 H           0.7290   -1.9177   -3.4461 H       1  UNL1        0.0660
     46 H           1.5407   -3.2707   -2.5969 H       1  UNL1        0.0660
     47 H          -0.2081   -3.0733   -2.3517 H       1  UNL1        0.0660
     48 H           4.4418    1.3622    1.6594 H       1  UNL1        0.0622
     49 H           6.1638    0.4844    3.1202 H       1  UNL1        0.0654
@<TRIPOS>BOND
     1     1     2    1
     2     2     3    1
     3     3     4   ar
     4     4     5   ar
     5     5     6   ar
     6     6     7    1
     7     7     8    1
     8     8     9    1
     9     9    10   ar
    10    10    11   ar
    11    11    12   ar
    12    12    13    1
    13    13    14    1
    14    14    15   ar
    15    15    16   ar
    16    16    17   ar
    17    17    18    1
    18    17    19   ar
    19    19    20   ar
    20    20    21    1
    21    12    22   ar
    22    22    23   ar
    23    23    24    1
    24    24    25    1
    25     6    26   ar
    26    26    27   ar
    27    27     3   ar
    28    23     9   ar
    29    20    14   ar
    30     1    28    1
    31     1    29    1
    32     1    30    1
    33     4    31    1
    34     5    32    1
    35     7    33    1
    36     7    34    1
    37    10    35    1
    38    11    36    1
    39    13    37    1
    40    13    38    1
    41    15    39    1
    42    18    40    1
    43    18    41    1
    44    21    42    1
    45    21    43    1
    46    22    44    1
    47    25    45    1
    48    25    46    1
    49    25    47    1
    50    26    48    1
    51    27    49    1
