
     RDKit          3D

 49 51  0  0  0  0  0  0  0  0999 V2000
    7.1856   -0.7910    4.9996 C   0  0  0  0  0  0  0  0  0  0  0  0
    5.8286   -1.0921    5.1852 O   0  0  0  0  0  0  0  0  0  0  0  0
    4.8231   -0.5987    4.3584 C   0  0  0  0  0  0  0  0  0  0  0  0
    3.4952   -0.9099    4.5615 C   0  0  0  0  0  0  0  0  0  0  0  0
    2.4942   -0.4412    3.7687 C   0  0  0  0  0  0  0  0  0  0  0  0
    2.8161    0.3929    2.6991 C   0  0  0  0  0  0  0  0  0  0  0  0
    1.7455    0.9071    1.8319 C   0  0  0  0  0  0  0  0  0  0  0  0
    1.4812    0.0482    0.7367 O   0  0  0  0  0  0  0  0  0  0  0  0
    0.4933    0.3541   -0.1935 C   0  0  0  0  0  0  0  0  0  0  0  0
   -0.2720    1.4965   -0.0937 C   0  0  0  0  0  0  0  0  0  0  0  0
   -1.2507    1.7991   -1.0137 C   0  0  0  0  0  0  0  0  0  0  0  0
   -1.5122    0.9529   -2.0982 C   0  0  0  0  0  0  0  0  0  0  0  0
   -2.5504    1.2955   -3.0661 C   0  0  0  0  0  0  0  0  0  0  0  0
   -3.9274    0.9077   -2.6788 C   0  0  0  0  0  0  0  0  0  0  0  0
   -4.8015    1.8637   -2.1971 C   0  0  0  0  0  0  0  0  0  0  0  0
   -6.0574    1.5544   -1.8297 N   0  0  0  0  0  0  0  0  0  0  0  0
   -6.5276    0.2992   -1.9117 C   0  0  0  0  0  0  0  0  0  0  0  0
   -7.8748   -0.0232   -1.5155 N   0  0  0  0  0  0  0  0  0  0  0  0
   -5.6989   -0.6537   -2.3774 N   0  0  0  0  0  0  0  0  0  0  0  0
   -4.4229   -0.3728   -2.7572 C   0  0  0  0  0  0  0  0  0  0  0  0
   -3.6215   -1.4254   -3.2376 N   0  0  0  0  0  0  0  0  0  0  0  0
   -0.7424   -0.1825   -2.1870 C   0  0  0  0  0  0  0  0  0  0  0  0
    0.2538   -0.4963   -1.2555 C   0  0  0  0  0  0  0  0  0  0  0  0
    0.9901   -1.6626   -1.4131 O   0  0  0  0  0  0  0  0  0  0  0  0
    0.7353   -2.5082   -2.4934 C   0  0  0  0  0  0  0  0  0  0  0  0
    4.1228    0.7136    2.4799 C   0  0  0  0  0  0  0  0  0  0  0  0
    5.1348    0.2286    3.2965 C   0  0  0  0  0  0  0  0  0  0  0  0
    7.4992   -1.0213    3.9593 H   0  0  0  0  0  0  0  0  0  0  0  0
    7.4666    0.2359    5.2492 H   0  0  0  0  0  0  0  0  0  0  0  0
    7.7545   -1.4480    5.7158 H   0  0  0  0  0  0  0  0  0  0  0  0
    3.2663   -1.5617    5.3998 H   0  0  0  0  0  0  0  0  0  0  0  0
    1.4542   -0.6840    3.9263 H   0  0  0  0  0  0  0  0  0  0  0  0
    0.8370    1.1360    2.4162 H   0  0  0  0  0  0  0  0  0  0  0  0
    2.1362    1.8612    1.3691 H   0  0  0  0  0  0  0  0  0  0  0  0
   -0.0669    2.1641    0.7608 H   0  0  0  0  0  0  0  0  0  0  0  0
   -1.8298    2.6971   -0.9080 H   0  0  0  0  0  0  0  0  0  0  0  0
   -2.2928    0.8184   -4.0566 H   0  0  0  0  0  0  0  0  0  0  0  0
   -2.4949    2.3993   -3.2994 H   0  0  0  0  0  0  0  0  0  0  0  0
   -4.4544    2.9049   -2.1140 H   0  0  0  0  0  0  0  0  0  0  0  0
   -8.6483    0.0195   -2.2068 H   0  0  0  0  0  0  0  0  0  0  0  0
   -8.0432   -0.2917   -0.5463 H   0  0  0  0  0  0  0  0  0  0  0  0
   -3.4618   -2.2554   -2.6481 H   0  0  0  0  0  0  0  0  0  0  0  0
   -3.1932   -1.3724   -4.1735 H   0  0  0  0  0  0  0  0  0  0  0  0
   -0.9359   -0.8430   -3.0310 H   0  0  0  0  0  0  0  0  0  0  0  0
    0.7290   -1.9177   -3.4461 H   0  0  0  0  0  0  0  0  0  0  0  0
    1.5407   -3.2707   -2.5969 H   0  0  0  0  0  0  0  0  0  0  0  0
   -0.2081   -3.0733   -2.3517 H   0  0  0  0  0  0  0  0  0  0  0  0
    4.4418    1.3622    1.6594 H   0  0  0  0  0  0  0  0  0  0  0  0
    6.1638    0.4844    3.1202 H   0  0  0  0  0  0  0  0  0  0  0  0
  1  2  1  0
  2  3  1  0
  3  4  2  0
  4  5  1  0
  5  6  2  0
  6  7  1  0
  7  8  1  0
  8  9  1  0
  9 10  2  0
 10 11  1  0
 11 12  2  0
 12 13  1  0
 13 14  1  0
 14 15  2  0
 15 16  1  0
 16 17  2  0
 17 18  1  0
 17 19  1  0
 19 20  2  0
 20 21  1  0
 12 22  1  0
 22 23  2  0
 23 24  1  0
 24 25  1  0
  6 26  1  0
 26 27  2  0
 27  3  1  0
 23  9  1  0
 20 14  1  0
  1 28  1  0
  1 29  1  0
  1 30  1  0
  4 31  1  0
  5 32  1  0
  7 33  1  0
  7 34  1  0
 10 35  1  0
 11 36  1  0
 13 37  1  0
 13 38  1  0
 15 39  1  0
 18 40  1  0
 18 41  1  0
 21 42  1  0
 21 43  1  0
 22 44  1  0
 25 45  1  0
 25 46  1  0
 25 47  1  0
 26 48  1  0
 27 49  1  0
M  END
$$$$
