@<TRIPOS>MOLECULE
*****
 55 59 0 0 0
SMALL
GASTEIGER

@<TRIPOS>ATOM
      1 C          -2.7385   -2.7461    0.3417 C.3     1  UNL1       -0.0372
      2 C          -1.3565   -2.6304    0.9498 C.3     1  UNL1        0.0717
      3 C          -0.9541   -1.2609    1.3358 C.3     1  UNL1        0.0414
      4 N          -0.5143   -0.5247    0.1046 N.am    1  UNL1       -0.2895
      5 C          -1.2079    0.6641   -0.1527 C.2     1  UNL1        0.2492
      6 O          -1.0400    1.4439   -1.1224 O.2     1  UNL1       -0.2699
      7 C          -2.2620    1.0778    0.8138 C.ar    1  UNL1        0.0653
      8 C          -1.8264    1.7635    1.9423 C.ar    1  UNL1       -0.0292
      9 C          -2.7446    2.1622    2.9078 C.ar    1  UNL1        0.0418
     10 CL         -2.1806    3.0294    4.3312 Cl      1  UNL1       -0.0835
     11 C          -4.0674    1.8573    2.7042 C.ar    1  UNL1       -0.0413
     12 C          -4.4757    1.1794    1.5817 C.ar    1  UNL1       -0.0324
     13 C          -3.5631    0.7729    0.6025 C.ar    1  UNL1        0.0983
     14 N          -3.9579    0.0977   -0.5743 N.ar    1  UNL1       -0.1496
     15 N          -3.2839    0.1211   -1.7101 N.ar    1  UNL1       -0.1556
     16 C          -3.8902   -0.6010   -2.6498 C.ar    1  UNL1        0.0697
     17 C          -5.0270   -1.1110   -2.0505 C.ar    1  UNL1        0.0697
     18 N          -5.0255   -0.6577   -0.7848 N.ar    1  UNL1       -0.1556
     19 C           0.5338   -1.1862   -0.5698 C.3     1  UNL1        0.0537
     20 C           1.3233   -0.6860   -1.6657 C.3     1  UNL1       -0.0068
     21 C           2.1722    0.4934   -1.5299 C.ar    1  UNL1       -0.0435
     22 C           1.9349    1.7338   -2.0113 C.ar    1  UNL1       -0.0584
     23 C           2.8267    2.7504   -1.7601 C.ar    1  UNL1       -0.0594
     24 C           3.9711    2.5327   -1.0215 C.ar    1  UNL1       -0.0345
     25 C           4.2493    1.2741   -0.5124 C.ar    1  UNL1        0.0864
     26 N           5.4365    1.0510    0.2525 N.ar    1  UNL1       -0.1503
     27 N           6.4143    0.2054    0.0279 N.ar    1  UNL1       -0.1556
     28 C           7.3446    0.3184    0.9989 C.ar    1  UNL1        0.0697
     29 C           6.9036    1.2946    1.8683 C.ar    1  UNL1        0.0697
     30 N           5.7279    1.7102    1.3623 N.ar    1  UNL1       -0.1556
     31 C           3.3480    0.2751   -0.7733 C.ar    1  UNL1       -0.0313
     32 C          -0.0873   -2.5558   -0.9861 C.3     1  UNL1        0.0669
     33 O          -0.3943   -3.2491    0.1812 O.3     1  UNL1       -0.3734
     34 H          -3.5025   -2.2320    0.9587 H       1  UNL1        0.0255
     35 H          -2.8078   -2.4504   -0.7022 H       1  UNL1        0.0255
     36 H          -3.0141   -3.8402    0.3927 H       1  UNL1        0.0255
     37 H          -1.4357   -3.2241    1.9145 H       1  UNL1        0.0609
     38 H           0.0074   -1.3576    1.9210 H       1  UNL1        0.0490
     39 H          -1.6985   -0.6912    1.8879 H       1  UNL1        0.0490
     40 H          -0.7931    2.0064    2.1098 H       1  UNL1        0.0640
     41 H          -4.8037    2.1475    3.4258 H       1  UNL1        0.0633
     42 H          -5.5179    0.9211    1.3887 H       1  UNL1        0.0640
     43 H          -3.5311   -0.7315   -3.6550 H       1  UNL1        0.0864
     44 H          -5.7349   -1.7457   -2.5645 H       1  UNL1        0.0864
     45 H           1.2621   -1.5565    0.2849 H       1  UNL1        0.0526
     46 H           2.0376   -1.5148   -2.0022 H       1  UNL1        0.0332
     47 H           0.6605   -0.6023   -2.5975 H       1  UNL1        0.0332
     48 H           1.0403    1.8915   -2.6163 H       1  UNL1        0.0620
     49 H           2.6070    3.7215   -2.1560 H       1  UNL1        0.0618
     50 H           4.6766    3.3443   -0.8248 H       1  UNL1        0.0639
     51 H           8.2718   -0.2381    1.1027 H       1  UNL1        0.0864
     52 H           7.4019    1.6444    2.7621 H       1  UNL1        0.0864
     53 H           3.5783   -0.7040   -0.3691 H       1  UNL1        0.0642
     54 H          -0.9810   -2.2977   -1.5629 H       1  UNL1        0.0578
     55 H           0.6876   -3.0899   -1.5302 H       1  UNL1        0.0578
@<TRIPOS>BOND
     1     1     2    1
     2     2     3    1
     3     3     4    1
     4     4     5   am
     5     5     6    2
     6     5     7    1
     7     7     8   ar
     8     8     9   ar
     9     9    10    1
    10     9    11   ar
    11    11    12   ar
    12    12    13   ar
    13    13    14    1
    14    14    15   ar
    15    15    16   ar
    16    16    17   ar
    17    17    18   ar
    18     4    19    1
    19    19    20    1
    20    20    21    1
    21    21    22   ar
    22    22    23   ar
    23    23    24   ar
    24    24    25   ar
    25    25    26    1
    26    26    27   ar
    27    27    28   ar
    28    28    29   ar
    29    29    30   ar
    30    25    31   ar
    31    19    32    1
    32    32    33    1
    33    33     2    1
    34    13     7   ar
    35    18    14   ar
    36    31    21   ar
    37    30    26   ar
    38     1    34    1
    39     1    35    1
    40     1    36    1
    41     2    37    1
    42     3    38    1
    43     3    39    1
    44     8    40    1
    45    11    41    1
    46    12    42    1
    47    16    43    1
    48    17    44    1
    49    19    45    1
    50    20    46    1
    51    20    47    1
    52    22    48    1
    53    23    49    1
    54    24    50    1
    55    28    51    1
    56    29    52    1
    57    31    53    1
    58    32    54    1
    59    32    55    1
