@<TRIPOS>MOLECULE
*****
 40 43 0 0 0
SMALL
GASTEIGER

@<TRIPOS>ATOM
      1 C          -1.2208   -3.3587    0.5651 C.3     1  UNL1       -0.0393
      2 C          -0.6368   -2.3259   -0.3858 C.3     1  UNL1        0.0834
      3 C           0.8248   -2.2401   -0.1565 C.ar    1  UNL1        0.1542
      4 N           1.7661   -3.1249    0.2578 N.ar    1  UNL1       -0.1320
      5 N           2.9473   -2.5364    0.2929 N.ar    1  UNL1       -0.1269
      6 C           2.8193   -1.2754   -0.0878 C.ar    1  UNL1        0.1910
      7 C           3.8588   -0.2111   -0.2100 C.ar    1  UNL1        0.1655
      8 N           4.6824    0.3330    0.4497 N.ar    1  UNL1       -0.2116
      9 C           5.5183    1.2628    0.1622 C.ar    1  UNL1        0.2429
     10 C           6.5532    1.9403    1.0256 C.3     1  UNL1        0.4529
     11 F           7.5878    1.0725    1.1870 F       1  UNL1       -0.1631
     12 F           6.8848    3.1607    0.5119 F       1  UNL1       -0.1631
     13 F           5.9069    2.1644    2.2493 F       1  UNL1       -0.1631
     14 N           5.3902    1.6835   -1.2227 N.ar    1  UNL1       -0.1848
     15 S           4.0239    0.5825   -1.8150 S.2     1  UNL1        0.0372
     16 N           1.4912   -1.1006   -0.3657 N.ar    1  UNL1       -0.3062
     17 C           0.7497    0.0584   -0.8183 C.3     1  UNL1        0.0423
     18 C          -0.5374    0.1162    0.0160 C.3     1  UNL1        0.0338
     19 N          -1.3107   -1.0604   -0.2734 N.am    1  UNL1       -0.2860
     20 C          -2.7017   -0.9609   -0.4412 C.2     1  UNL1        0.2472
     21 O          -3.3490   -2.0286   -0.6959 O.2     1  UNL1       -0.2700
     22 C          -3.4267    0.3146   -0.3337 C.ar    1  UNL1        0.0371
     23 C          -4.2913    0.7064   -1.3356 C.ar    1  UNL1       -0.0469
     24 C          -4.9938    1.8907   -1.2941 C.ar    1  UNL1       -0.0257
     25 C          -4.8495    2.7469   -0.2170 C.ar    1  UNL1        0.1234
     26 F          -5.5442    3.9116   -0.1817 F       1  UNL1       -0.2055
     27 C          -3.9865    2.3644    0.7934 C.ar    1  UNL1       -0.0257
     28 C          -3.2858    1.1702    0.7397 C.ar    1  UNL1       -0.0469
     29 H          -1.5571   -2.8642    1.5026 H       1  UNL1        0.0252
     30 H          -2.0315   -3.8749    0.0298 H       1  UNL1        0.0252
     31 H          -0.4216   -4.0791    0.7812 H       1  UNL1        0.0252
     32 H          -0.8268   -2.7127   -1.4314 H       1  UNL1        0.0579
     33 H           0.4906   -0.1125   -1.8781 H       1  UNL1        0.0508
     34 H           1.3340    0.9842   -0.6403 H       1  UNL1        0.0508
     35 H          -0.2543    0.1930    1.0916 H       1  UNL1        0.0482
     36 H          -1.0264    1.0556   -0.2805 H       1  UNL1        0.0482
     37 H          -4.4362    0.0573   -2.2072 H       1  UNL1        0.0626
     38 H          -5.6783    2.2108   -2.0798 H       1  UNL1        0.0646
     39 H          -3.8668    3.0383    1.6559 H       1  UNL1        0.0646
     40 H          -2.5960    0.8483    1.5252 H       1  UNL1        0.0626
@<TRIPOS>BOND
     1     1     2    1
     2     2     3    1
     3     3     4   ar
     4     4     5   ar
     5     5     6   ar
     6     6     7    1
     7     7     8   ar
     8     8     9   ar
     9     9    10    1
    10    10    11    1
    11    10    12    1
    12    10    13    1
    13     9    14   ar
    14    14    15   ar
    15     6    16   ar
    16    16    17    1
    17    17    18    1
    18    18    19    1
    19    19    20   am
    20    20    21    2
    21    20    22    1
    22    22    23   ar
    23    23    24   ar
    24    24    25   ar
    25    25    26    1
    26    25    27   ar
    27    27    28   ar
    28    19     2    1
    29    28    22   ar
    30    16     3   ar
    31    15     7   ar
    32     1    29    1
    33     1    30    1
    34     1    31    1
    35     2    32    1
    36    17    33    1
    37    17    34    1
    38    18    35    1
    39    18    36    1
    40    23    37    1
    41    24    38    1
    42    27    39    1
    43    28    40    1
