@<TRIPOS>MOLECULE
*****
 73 79 0 0 0
SMALL
GASTEIGER

@<TRIPOS>ATOM
      1 C          -3.2768    7.3291    2.1100 C.3     1  UNL1        0.0804
      2 O          -2.7696    6.0343    1.9811 O.3     1  UNL1       -0.4795
      3 C          -2.1309    5.5409    0.8591 C.ar    1  UNL1        0.2191
      4 C          -1.6639    4.2532    0.8229 C.ar    1  UNL1        0.0404
      5 C          -1.0131    3.7232   -0.2966 C.ar    1  UNL1        0.1364
      6 N          -0.5541    2.3854   -0.2613 N.am    1  UNL1       -0.2240
      7 C           0.7550    1.9980    0.2135 C.2     1  UNL1        0.3219
      8 O           1.4599    2.5954    1.0698 O.2     1  UNL1       -0.2512
      9 N           1.1192    0.7829   -0.4797 N.am    1  UNL1       -0.1920
     10 C           2.3164    0.0369   -0.3263 C.ar    1  UNL1        0.0455
     11 C           2.4430   -0.9825    0.5984 C.ar    1  UNL1       -0.0392
     12 C           3.6019   -1.6834    0.7395 C.ar    1  UNL1       -0.0523
     13 C           4.6908   -1.3900   -0.0460 C.ar    1  UNL1       -0.0177
     14 C           5.9540   -2.1104    0.0767 C.ar    1  UNL1       -0.0172
     15 C           5.9894   -3.4400    0.4396 C.ar    1  UNL1       -0.0520
     16 C           7.2257   -4.0492    0.5440 C.ar    1  UNL1       -0.0357
     17 C           8.4072   -3.3849    0.3018 C.ar    1  UNL1        0.0658
     18 N           9.7211   -3.6809    0.3176 N.ar    1  UNL1       -0.2770
     19 N          10.4404   -2.6155   -0.0100 N.ar    1  UNL1       -0.1812
     20 C           9.6229   -1.5790   -0.2538 C.ar    1  UNL1        0.0569
     21 C           8.3433   -2.0438   -0.0630 C.ar    1  UNL1        0.0200
     22 C           7.1337   -1.4296   -0.1702 C.ar    1  UNL1       -0.0434
     23 C           4.5757   -0.3752   -0.9723 C.ar    1  UNL1       -0.0523
     24 C           3.3889    0.3531   -1.1270 C.ar    1  UNL1       -0.0392
     25 C           0.0082    0.4932   -1.3461 C.2     1  UNL1        0.2516
     26 O           0.0656   -0.1398   -2.4062 O.2     1  UNL1       -0.2724
     27 C          -1.1575    1.1377   -0.6386 C.3     1  UNL1        0.1240
     28 C          -2.3903    1.2080   -1.4438 C.3     1  UNL1       -0.0095
     29 C          -3.4730    0.2707   -0.9566 C.3     1  UNL1        0.0017
     30 N          -3.0211   -1.0058   -0.5870 N.3     1  UNL1       -0.2965
     31 C          -3.6532   -2.1468   -1.1149 C.3     1  UNL1        0.0415
     32 C          -5.0981   -2.2568   -0.7313 C.ar    1  UNL1        0.0581
     33 N          -6.0875   -1.9560   -1.5878 N.ar    1  UNL1       -0.2583
     34 C          -7.3816   -2.0365   -1.2878 C.ar    1  UNL1        0.0279
     35 C          -7.7801   -2.4481   -0.0370 C.ar    1  UNL1       -0.0433
     36 C          -6.8145   -2.7679    0.8770 C.ar    1  UNL1       -0.0557
     37 C          -5.4792   -2.6754    0.5395 C.ar    1  UNL1       -0.0279
     38 C          -4.4704   -3.0265    1.5392 C.3     1  UNL1       -0.0380
     39 C          -1.7379   -1.1314   -0.0154 C.3     1  UNL1        0.0017
     40 C          -1.3898    0.2401    0.5850 C.3     1  UNL1       -0.0095
     41 N          -0.8756    4.5589   -1.3349 N.ar    1  UNL1       -0.2200
     42 C          -1.3378    5.8310   -1.2976 C.ar    1  UNL1        0.1219
     43 N          -1.9678    6.3399   -0.2098 N.ar    1  UNL1       -0.2013
     44 H          -4.3532    7.2913    2.2869 H       1  UNL1        0.0660
     45 H          -2.7650    7.7825    3.0060 H       1  UNL1        0.0660
     46 H          -3.0585    7.9359    1.1977 H       1  UNL1        0.0660
     47 H          -1.8019    3.6218    1.6919 H       1  UNL1        0.0705
     48 H           1.5685   -1.2156    1.2278 H       1  UNL1        0.0636
     49 H           3.6842   -2.4722    1.4621 H       1  UNL1        0.0624
     50 H           5.0775   -3.9882    0.6360 H       1  UNL1        0.0624
     51 H           7.2861   -5.0999    0.8294 H       1  UNL1        0.0639
     52 H          10.1267   -4.5957    0.5492 H       1  UNL1        0.1889
     53 H           9.8938   -0.5784   -0.5410 H       1  UNL1        0.0854
     54 H           7.0810   -0.3959   -0.4518 H       1  UNL1        0.0631
     55 H           5.4081   -0.1030   -1.6200 H       1  UNL1        0.0624
     56 H           3.3579    1.1352   -1.8680 H       1  UNL1        0.0636
     57 H          -2.1880    0.9778   -2.5291 H       1  UNL1        0.0303
     58 H          -2.8027    2.2400   -1.4039 H       1  UNL1        0.0303
     59 H          -3.9526    0.7666   -0.0729 H       1  UNL1        0.0427
     60 H          -4.2449    0.2517   -1.7619 H       1  UNL1        0.0427
     61 H          -3.1543   -3.0649   -0.7257 H       1  UNL1        0.0491
     62 H          -3.5919   -2.2369   -2.2266 H       1  UNL1        0.0491
     63 H          -8.1748   -1.7870   -1.9964 H       1  UNL1        0.0829
     64 H          -8.8452   -2.5183    0.2206 H       1  UNL1        0.0633
     65 H          -7.1125   -3.0970    1.8760 H       1  UNL1        0.0621
     66 H          -4.9277   -3.5598    2.3965 H       1  UNL1        0.0278
     67 H          -3.7874   -3.7915    1.0672 H       1  UNL1        0.0278
     68 H          -3.8933   -2.1922    1.9498 H       1  UNL1        0.0278
     69 H          -1.0006   -1.4020   -0.7741 H       1  UNL1        0.0427
     70 H          -1.6562   -1.8926    0.7851 H       1  UNL1        0.0427
     71 H          -2.2376    0.6398    1.1650 H       1  UNL1        0.0303
     72 H          -0.4627    0.1068    1.1525 H       1  UNL1        0.0303
     73 H          -1.2108    6.4854   -2.1572 H       1  UNL1        0.1049
@<TRIPOS>BOND
     1     1     2    1
     2     2     3    1
     3     3     4   ar
     4     4     5   ar
     5     5     6    1
     6     6     7   am
     7     7     8    2
     8     7     9   am
     9     9    10    1
    10    10    11   ar
    11    11    12   ar
    12    12    13   ar
    13    13    14    1
    14    14    15   ar
    15    15    16   ar
    16    16    17   ar
    17    17    18   ar
    18    18    19   ar
    19    19    20   ar
    20    20    21   ar
    21    21    22   ar
    22    13    23   ar
    23    23    24   ar
    24     9    25   am
    25    25    26    2
    26    25    27    1
    27    27    28    1
    28    28    29    1
    29    29    30    1
    30    30    31    1
    31    31    32    1
    32    32    33   ar
    33    33    34   ar
    34    34    35   ar
    35    35    36   ar
    36    36    37   ar
    37    37    38    1
    38    30    39    1
    39    39    40    1
    40     5    41   ar
    41    41    42   ar
    42    42    43   ar
    43    43     3   ar
    44    27     6    1
    45    37    32   ar
    46    24    10   ar
    47    40    27    1
    48    22    14   ar
    49    21    17   ar
    50     1    44    1
    51     1    45    1
    52     1    46    1
    53     4    47    1
    54    11    48    1
    55    12    49    1
    56    15    50    1
    57    16    51    1
    58    18    52    1
    59    20    53    1
    60    22    54    1
    61    23    55    1
    62    24    56    1
    63    28    57    1
    64    28    58    1
    65    29    59    1
    66    29    60    1
    67    31    61    1
    68    31    62    1
    69    34    63    1
    70    35    64    1
    71    36    65    1
    72    38    66    1
    73    38    67    1
    74    38    68    1
    75    39    69    1
    76    39    70    1
    77    40    71    1
    78    40    72    1
    79    42    73    1
