
     RDKit          3D

 65 69  0  0  0  0  0  0  0  0999 V2000
    8.7426    1.7222   -0.7983 C   0  0  0  0  0  0  0  0  0  0  0  0
    8.4817    0.3308   -0.7922 O   0  0  0  0  0  0  0  0  0  0  0  0
    7.1942   -0.0960   -1.0869 C   0  0  0  0  0  0  0  0  0  0  0  0
    6.1456    0.7489   -1.3876 C   0  0  0  0  0  0  0  0  0  0  0  0
    4.9004    0.2250   -1.6666 C   0  0  0  0  0  0  0  0  0  0  0  0
    4.6423   -1.1380   -1.6603 C   0  0  0  0  0  0  0  0  0  0  0  0
    3.2651   -1.6657   -1.9676 C   0  0  0  0  0  0  0  0  0  0  0  0
    2.4515   -1.7852   -0.7156 C   0  0  0  0  0  0  0  0  0  0  0  0
    2.3112   -0.5289   -0.0872 N   0  0  0  0  0  0  0  0  0  0  0  0
    1.5303    0.4661   -0.7053 C   0  0  0  0  0  0  0  0  0  0  0  0
    0.0887    0.5473   -0.2649 C   0  0  0  0  0  0  0  0  0  0  0  0
   -0.0739    0.5098    1.2136 C   0  0  0  0  0  0  0  0  0  0  0  0
    0.8339   -0.4968    1.8820 C   0  0  0  0  0  0  0  0  0  0  0  0
    2.2135   -0.4995    1.3209 C   0  0  0  0  0  0  0  0  0  0  0  0
   -1.4367    0.1629    1.5530 N   0  0  0  0  0  0  0  0  0  0  0  0
   -2.5049    0.9836    1.1238 C   0  0  0  0  0  0  0  0  0  0  0  0
   -2.3531    2.0957    0.3939 N   0  0  0  0  0  0  0  0  0  0  0  0
   -3.5427    2.6742    0.1394 C   0  0  0  0  0  0  0  0  0  0  0  0
   -3.8601    3.8173   -0.5636 C   0  0  0  0  0  0  0  0  0  0  0  0
   -5.1853    4.1880   -0.6707 C   0  0  0  0  0  0  0  0  0  0  0  0
   -6.1444    3.4069   -0.0741 C   0  0  0  0  0  0  0  0  0  0  0  0
   -5.7841    2.2818    0.6132 C   0  0  0  0  0  0  0  0  0  0  0  0
   -4.4592    1.8535    0.7573 C   0  0  0  0  0  0  0  0  0  0  0  0
   -3.8206    0.8285    1.3532 N   0  0  0  0  0  0  0  0  0  0  0  0
   -4.4710   -0.2084    2.0893 C   0  0  0  0  0  0  0  0  0  0  0  0
   -4.8807   -1.3804    1.2951 C   0  0  0  0  0  0  0  0  0  0  0  0
   -4.0718   -2.4723    1.1070 C   0  0  0  0  0  0  0  0  0  0  0  0
   -4.4540   -3.5727    0.3635 C   0  0  0  0  0  0  0  0  0  0  0  0
   -5.6966   -3.6172   -0.2343 C   0  0  0  0  0  0  0  0  0  0  0  0
   -6.1013   -4.6806   -0.9688 F   0  0  0  0  0  0  0  0  0  0  0  0
   -6.5546   -2.5261   -0.0693 C   0  0  0  0  0  0  0  0  0  0  0  0
   -6.1019   -1.4559    0.6913 C   0  0  0  0  0  0  0  0  0  0  0  0
    5.7153   -1.9666   -1.3545 C   0  0  0  0  0  0  0  0  0  0  0  0
    6.9644   -1.4583   -1.0738 C   0  0  0  0  0  0  0  0  0  0  0  0
    8.5939    2.0484   -1.8488 H   0  0  0  0  0  0  0  0  0  0  0  0
    7.9547    2.2111   -0.1915 H   0  0  0  0  0  0  0  0  0  0  0  0
    9.7505    1.9612   -0.4182 H   0  0  0  0  0  0  0  0  0  0  0  0
    6.3466    1.8221   -1.3933 H   0  0  0  0  0  0  0  0  0  0  0  0
    4.1326    0.9393   -1.8912 H   0  0  0  0  0  0  0  0  0  0  0  0
    2.7730   -0.9654   -2.6537 H   0  0  0  0  0  0  0  0  0  0  0  0
    3.3659   -2.6273   -2.5306 H   0  0  0  0  0  0  0  0  0  0  0  0
    1.4937   -2.2705   -1.0020 H   0  0  0  0  0  0  0  0  0  0  0  0
    2.9256   -2.4828    0.0066 H   0  0  0  0  0  0  0  0  0  0  0  0
    2.0252    1.4586   -0.4907 H   0  0  0  0  0  0  0  0  0  0  0  0
    1.5085    0.3722   -1.8131 H   0  0  0  0  0  0  0  0  0  0  0  0
   -0.5258   -0.1732   -0.8213 H   0  0  0  0  0  0  0  0  0  0  0  0
   -0.2667    1.5607   -0.6166 H   0  0  0  0  0  0  0  0  0  0  0  0
    0.1124    1.5328    1.6554 H   0  0  0  0  0  0  0  0  0  0  0  0
    0.9115   -0.2039    2.9520 H   0  0  0  0  0  0  0  0  0  0  0  0
    0.3988   -1.5169    1.8597 H   0  0  0  0  0  0  0  0  0  0  0  0
    2.7591    0.4214    1.6780 H   0  0  0  0  0  0  0  0  0  0  0  0
    2.7262   -1.4013    1.7261 H   0  0  0  0  0  0  0  0  0  0  0  0
   -1.6723   -0.6856    2.1143 H   0  0  0  0  0  0  0  0  0  0  0  0
   -3.0586    4.3984   -1.0165 H   0  0  0  0  0  0  0  0  0  0  0  0
   -5.4197    5.0827   -1.2228 H   0  0  0  0  0  0  0  0  0  0  0  0
   -7.1658    3.7233   -0.1759 H   0  0  0  0  0  0  0  0  0  0  0  0
   -6.5596    1.6853    1.0740 H   0  0  0  0  0  0  0  0  0  0  0  0
   -5.3417    0.2469    2.6188 H   0  0  0  0  0  0  0  0  0  0  0  0
   -3.7813   -0.6114    2.8848 H   0  0  0  0  0  0  0  0  0  0  0  0
   -3.0895   -2.5232    1.5357 H   0  0  0  0  0  0  0  0  0  0  0  0
   -3.8453   -4.4460    0.1952 H   0  0  0  0  0  0  0  0  0  0  0  0
   -7.5142   -2.5853   -0.5432 H   0  0  0  0  0  0  0  0  0  0  0  0
   -6.8300   -0.6747    0.7572 H   0  0  0  0  0  0  0  0  0  0  0  0
    5.5429   -3.0419   -1.3428 H   0  0  0  0  0  0  0  0  0  0  0  0
    7.7651   -2.1694   -0.8406 H   0  0  0  0  0  0  0  0  0  0  0  0
  1  2  1  0
  2  3  1  0
  3  4  2  0
  4  5  1  0
  5  6  2  0
  6  7  1  0
  7  8  1  0
  8  9  1  0
  9 10  1  0
 10 11  1  0
 11 12  1  0
 12 13  1  0
 13 14  1  0
 12 15  1  0
 15 16  1  0
 16 17  2  0
 17 18  1  0
 18 19  2  0
 19 20  1  0
 20 21  2  0
 21 22  1  0
 22 23  2  0
 23 24  1  0
 24 25  1  0
 25 26  1  0
 26 27  2  0
 27 28  1  0
 28 29  2  0
 29 30  1  0
 29 31  1  0
 31 32  2  0
  6 33  1  0
 33 34  2  0
 34  3  1  0
 14  9  1  0
 24 16  1  0
 32 26  1  0
 23 18  1  0
  1 35  1  0
  1 36  1  0
  1 37  1  0
  4 38  1  0
  5 39  1  0
  7 40  1  0
  7 41  1  0
  8 42  1  0
  8 43  1  0
 10 44  1  0
 10 45  1  0
 11 46  1  0
 11 47  1  0
 12 48  1  0
 13 49  1  0
 13 50  1  0
 14 51  1  0
 14 52  1  0
 15 53  1  0
 19 54  1  0
 20 55  1  0
 21 56  1  0
 22 57  1  0
 25 58  1  0
 25 59  1  0
 27 60  1  0
 28 61  1  0
 31 62  1  0
 32 63  1  0
 33 64  1  0
 34 65  1  0
M  END
$$$$
