@<TRIPOS>MOLECULE
*****
 53 55 0 0 0
SMALL
GASTEIGER

@<TRIPOS>ATOM
      1 C          -3.6227   -0.7415   -2.9778 C.3     1  UNL1       -0.0558
      2 C          -3.8407   -0.4928   -1.5010 C.3     1  UNL1       -0.0096
      3 C          -4.4934   -1.7236   -0.9272 C.3     1  UNL1       -0.0558
      4 C          -4.6709    0.7429   -1.3460 C.3     1  UNL1       -0.0431
      5 C          -4.9149    1.1419    0.0633 C.3     1  UNL1       -0.0431
      6 C          -3.8742    0.7234    1.0365 C.3     1  UNL1       -0.0095
      7 C          -4.4090   -0.3268    2.0031 C.3     1  UNL1       -0.0558
      8 C          -3.5812    1.9513    1.9109 C.3     1  UNL1       -0.0558
      9 C          -2.5874    0.3529    0.4374 C.ar    1  UNL1       -0.0374
     10 C          -1.3738    0.5873    1.0921 C.ar    1  UNL1       -0.0470
     11 C          -0.1668    0.2386    0.5272 C.ar    1  UNL1        0.0219
     12 C          -0.2517   -0.3485   -0.7115 C.ar    1  UNL1       -0.0506
     13 C          -1.3855   -0.6196   -1.4322 C.ar    1  UNL1       -0.0571
     14 C          -2.5519   -0.2423   -0.8019 C.ar    1  UNL1       -0.0380
     15 C           1.0184    0.5307    1.2981 C.2     1  UNL1        0.1861
     16 O           0.7514    1.0886    2.4283 O.2     1  UNL1       -0.2873
     17 C           2.4434    0.3834    1.1833 C.2     1  UNL1       -0.0138
     18 C           3.2877   -0.0873    0.3136 C.2     1  UNL1       -0.0510
     19 C           4.7394   -0.1665    0.3445 C.ar    1  UNL1       -0.0249
     20 C           5.4203   -0.7192   -0.7186 C.ar    1  UNL1       -0.0538
     21 C           6.7774   -0.8153   -0.7357 C.ar    1  UNL1       -0.0472
     22 C           7.5353   -0.3586    0.3214 C.ar    1  UNL1        0.0589
     23 C           6.8960    0.2007    1.4040 C.ar    1  UNL1       -0.0472
     24 C           5.5169    0.2764    1.3756 C.ar    1  UNL1       -0.0538
     25 C           8.9840   -0.4663    0.2924 C.2     1  UNL1        0.3368
     26 O           9.7447   -0.0105    1.3480 O.3     1  UNL1       -0.4771
     27 O           9.5542   -0.9816   -0.7073 O.2     1  UNL1       -0.2451
     28 H          -3.0538    0.0490   -3.4644 H       1  UNL1        0.0238
     29 H          -4.6310   -0.7565   -3.4505 H       1  UNL1        0.0238
     30 H          -3.2008   -1.7534   -3.1061 H       1  UNL1        0.0238
     31 H          -4.7579   -2.4742   -1.7279 H       1  UNL1        0.0238
     32 H          -5.4603   -1.4870   -0.4372 H       1  UNL1        0.0238
     33 H          -3.8039   -2.2929   -0.2597 H       1  UNL1        0.0238
     34 H          -5.6435    0.6275   -1.8926 H       1  UNL1        0.0274
     35 H          -4.1366    1.5566   -1.8985 H       1  UNL1        0.0274
     36 H          -5.8964    0.6802    0.3672 H       1  UNL1        0.0274
     37 H          -5.1347    2.2436    0.0771 H       1  UNL1        0.0274
     38 H          -4.3592   -0.0335    3.0509 H       1  UNL1        0.0238
     39 H          -5.4796   -0.5184    1.7582 H       1  UNL1        0.0238
     40 H          -3.7976   -1.2693    1.9102 H       1  UNL1        0.0238
     41 H          -3.2524    1.6414    2.9194 H       1  UNL1        0.0238
     42 H          -2.8952    2.6323    1.3915 H       1  UNL1        0.0238
     43 H          -4.5554    2.4601    2.0606 H       1  UNL1        0.0238
     44 H          -1.5004    1.0527    2.0478 H       1  UNL1        0.0628
     45 H           0.6555   -0.6422   -1.2023 H       1  UNL1        0.0625
     46 H          -1.3599   -1.0868   -2.4052 H       1  UNL1        0.0621
     47 H           3.0850    0.7361    2.0073 H       1  UNL1        0.0656
     48 H           2.8005   -0.4772   -0.5673 H       1  UNL1        0.0625
     49 H           4.8646   -1.0927   -1.5743 H       1  UNL1        0.0624
     50 H           7.2601   -1.2632   -1.6066 H       1  UNL1        0.0626
     51 H           7.4771    0.5583    2.2301 H       1  UNL1        0.0626
     52 H           5.0819    0.7187    2.2411 H       1  UNL1        0.0624
     53 H          10.7488    0.0730    1.3364 H       1  UNL1        0.2954
@<TRIPOS>BOND
     1     1     2    1
     2     2     3    1
     3     2     4    1
     4     4     5    1
     5     5     6    1
     6     6     7    1
     7     6     8    1
     8     6     9    1
     9     9    10   ar
    10    10    11   ar
    11    11    12   ar
    12    12    13   ar
    13    13    14   ar
    14    11    15    1
    15    15    16    2
    16    15    17    1
    17    17    18    2
    18    18    19    1
    19    19    20   ar
    20    20    21   ar
    21    21    22   ar
    22    22    23   ar
    23    23    24   ar
    24    22    25    1
    25    25    26    1
    26    25    27    2
    27    14     2    1
    28    24    19   ar
    29    14     9   ar
    30     1    28    1
    31     1    29    1
    32     1    30    1
    33     3    31    1
    34     3    32    1
    35     3    33    1
    36     4    34    1
    37     4    35    1
    38     5    36    1
    39     5    37    1
    40     7    38    1
    41     7    39    1
    42     7    40    1
    43     8    41    1
    44     8    42    1
    45     8    43    1
    46    10    44    1
    47    12    45    1
    48    13    46    1
    49    17    47    1
    50    18    48    1
    51    20    49    1
    52    21    50    1
    53    23    51    1
    54    24    52    1
    55    26    53    1
