
     RDKit          3D

 39 42  0  0  0  0  0  0  0  0999 V2000
   -2.0293    0.7239    4.2950 N   0  0  0  0  0  0  0  0  0  0  0  0
   -2.3545    0.0932    3.3775 C   0  0  0  0  0  0  0  0  0  0  0  0
   -2.7438   -0.6586    2.2429 C   0  0  0  0  0  0  0  0  0  0  0  0
   -3.7902   -1.5443    2.1005 C   0  0  0  0  0  0  0  0  0  0  0  0
   -3.7649   -2.0139    0.8426 N   0  0  0  0  0  0  0  0  0  0  0  0
   -2.7400   -1.4599    0.1763 C   0  0  0  0  0  0  0  0  0  0  0  0
   -2.3165   -1.6280   -1.1218 C   0  0  0  0  0  0  0  0  0  0  0  0
   -1.2165   -0.9134   -1.5305 C   0  0  0  0  0  0  0  0  0  0  0  0
   -0.5617   -0.0573   -0.6652 C   0  0  0  0  0  0  0  0  0  0  0  0
    0.5919    0.6750   -1.1460 C   0  0  0  0  0  0  0  0  0  0  0  0
    1.8718    0.5163   -0.6797 C   0  0  0  0  0  0  0  0  0  0  0  0
    2.3083   -0.3994    0.3574 C   0  0  0  0  0  0  0  0  0  0  0  0
    2.1929   -1.7688    0.1942 C   0  0  0  0  0  0  0  0  0  0  0  0
    2.6077   -2.6389    1.1800 C   0  0  0  0  0  0  0  0  0  0  0  0
    2.4590   -4.3741    0.9646 Cl  0  0  0  0  0  0  0  0  0  0  0  0
    3.1547   -2.1965    2.3709 C   0  0  0  0  0  0  0  0  0  0  0  0
    3.2713   -0.8310    2.5372 C   0  0  0  0  0  0  0  0  0  0  0  0
    2.8554    0.0344    1.5490 C   0  0  0  0  0  0  0  0  0  0  0  0
    2.9702    1.3762    1.7119 F   0  0  0  0  0  0  0  0  0  0  0  0
    2.6563    1.3830   -1.3809 N   0  0  0  0  0  0  0  0  0  0  0  0
    1.8888    2.0553   -2.2512 C   0  0  0  0  0  0  0  0  0  0  0  0
    0.6249    1.6241   -2.1097 N   0  0  0  0  0  0  0  0  0  0  0  0
   -0.5370    2.0797   -2.8495 C   0  0  0  0  0  0  0  0  0  0  0  0
   -1.1814    3.2593   -2.1185 C   0  0  0  0  0  0  0  0  0  0  0  0
   -0.2676    4.2764   -2.0227 F   0  0  0  0  0  0  0  0  0  0  0  0
   -1.5828    2.8486   -0.8756 F   0  0  0  0  0  0  0  0  0  0  0  0
   -1.0435    0.0592    0.6189 C   0  0  0  0  0  0  0  0  0  0  0  0
   -2.1165   -0.6298    1.0381 N   0  0  0  0  0  0  0  0  0  0  0  0
   -4.5034   -1.8146    2.8609 H   0  0  0  0  0  0  0  0  0  0  0  0
   -2.7914   -2.2802   -1.8296 H   0  0  0  0  0  0  0  0  0  0  0  0
   -0.8716   -1.0353   -2.5472 H   0  0  0  0  0  0  0  0  0  0  0  0
    1.7620   -2.1170   -0.7441 H   0  0  0  0  0  0  0  0  0  0  0  0
    3.4734   -2.8974    3.1312 H   0  0  0  0  0  0  0  0  0  0  0  0
    3.7073   -0.4768    3.4846 H   0  0  0  0  0  0  0  0  0  0  0  0
    2.2340    2.8011   -2.9329 H   0  0  0  0  0  0  0  0  0  0  0  0
   -0.3173    2.3300   -3.8927 H   0  0  0  0  0  0  0  0  0  0  0  0
   -1.3384    1.2918   -2.8678 H   0  0  0  0  0  0  0  0  0  0  0  0
   -2.0412    3.5774   -2.7450 H   0  0  0  0  0  0  0  0  0  0  0  0
   -0.5202    0.7304    1.2769 H   0  0  0  0  0  0  0  0  0  0  0  0
  1  2  3  0
  2  3  1  0
  3  4  2  0
  4  5  1  0
  5  6  2  0
  6  7  1  0
  7  8  2  0
  8  9  1  0
  9 10  1  0
 10 11  2  0
 11 12  1  0
 12 13  2  0
 13 14  1  0
 14 15  1  0
 14 16  2  0
 16 17  1  0
 17 18  2  0
 18 19  1  0
 11 20  1  0
 20 21  2  0
 21 22  1  0
 22 23  1  0
 23 24  1  0
 24 25  1  0
 24 26  1  0
  9 27  2  0
 27 28  1  0
 28  3  1  0
 28  6  1  0
 22 10  1  0
 18 12  1  0
  4 29  1  0
  7 30  1  0
  8 31  1  0
 13 32  1  0
 16 33  1  0
 17 34  1  0
 21 35  1  0
 23 36  1  0
 23 37  1  0
 24 38  1  0
 27 39  1  0
M  END
$$$$
