@<TRIPOS>MOLECULE
*****
 39 42 0 0 0
SMALL
GASTEIGER

@<TRIPOS>ATOM
      1 N          -2.0293    0.7239    4.2950 N.1     1  UNL1       -0.1893
      2 C          -2.3545    0.0932    3.3775 C.1     1  UNL1        0.1192
      3 C          -2.7438   -0.6586    2.2429 C.ar    1  UNL1        0.1438
      4 C          -3.7902   -1.5443    2.1005 C.ar    1  UNL1        0.0643
      5 N          -3.7649   -2.0139    0.8426 N.ar    1  UNL1       -0.2348
      6 C          -2.7400   -1.4599    0.1763 C.ar    1  UNL1        0.1385
      7 C          -2.3165   -1.6280   -1.1218 C.ar    1  UNL1       -0.0181
      8 C          -1.2165   -0.9134   -1.5305 C.ar    1  UNL1       -0.0477
      9 C          -0.5617   -0.0573   -0.6652 C.ar    1  UNL1        0.0173
     10 C           0.5919    0.6750   -1.1460 C.ar    1  UNL1        0.0781
     11 C           1.8718    0.5163   -0.6797 C.ar    1  UNL1        0.0995
     12 C           2.3083   -0.3994    0.3574 C.ar    1  UNL1        0.0390
     13 C           2.1929   -1.7688    0.1942 C.ar    1  UNL1       -0.0314
     14 C           2.6077   -2.6389    1.1800 C.ar    1  UNL1        0.0418
     15 CL          2.4590   -4.3741    0.9646 Cl      1  UNL1       -0.0835
     16 C           3.1547   -2.1965    2.3709 C.ar    1  UNL1       -0.0406
     17 C           3.2713   -0.8310    2.5372 C.ar    1  UNL1       -0.0244
     18 C           2.8554    0.0344    1.5490 C.ar    1  UNL1        0.1327
     19 F           2.9702    1.3762    1.7119 F       1  UNL1       -0.2048
     20 N           2.6563    1.3830   -1.3809 N.ar    1  UNL1       -0.2350
     21 C           1.8888    2.0553   -2.2512 C.ar    1  UNL1        0.0972
     22 N           0.6249    1.6241   -2.1097 N.ar    1  UNL1       -0.3241
     23 C          -0.5370    2.0797   -2.8495 C.3     1  UNL1        0.0852
     24 C          -1.1814    3.2593   -2.1185 C.3     1  UNL1        0.2569
     25 F          -0.2676    4.2764   -2.0227 F       1  UNL1       -0.2073
     26 F          -1.5828    2.8486   -0.8756 F       1  UNL1       -0.2073
     27 C          -1.0435    0.0592    0.6189 C.ar    1  UNL1        0.0216
     28 N          -2.1165   -0.6298    1.0381 N.ar    1  UNL1       -0.2906
     29 H          -4.5034   -1.8146    2.8609 H       1  UNL1        0.0859
     30 H          -2.7914   -2.2802   -1.8296 H       1  UNL1        0.0654
     31 H          -0.8716   -1.0353   -2.5472 H       1  UNL1        0.0626
     32 H           1.7620   -2.1170   -0.7441 H       1  UNL1        0.0639
     33 H           3.4734   -2.8974    3.1312 H       1  UNL1        0.0633
     34 H           3.7073   -0.4768    3.4846 H       1  UNL1        0.0647
     35 H           2.2340    2.8011   -2.9329 H       1  UNL1        0.1029
     36 H          -0.3173    2.3300   -3.8927 H       1  UNL1        0.0548
     37 H          -1.3384    1.2918   -2.8678 H       1  UNL1        0.0548
     38 H          -2.0412    3.5774   -2.7450 H       1  UNL1        0.1037
     39 H          -0.5202    0.7304    1.2769 H       1  UNL1        0.0820
@<TRIPOS>BOND
     1     1     2    3
     2     2     3    1
     3     3     4   ar
     4     4     5   ar
     5     5     6   ar
     6     6     7   ar
     7     7     8   ar
     8     8     9   ar
     9     9    10    1
    10    10    11   ar
    11    11    12    1
    12    12    13   ar
    13    13    14   ar
    14    14    15    1
    15    14    16   ar
    16    16    17   ar
    17    17    18   ar
    18    18    19    1
    19    11    20   ar
    20    20    21   ar
    21    21    22   ar
    22    22    23    1
    23    23    24    1
    24    24    25    1
    25    24    26    1
    26     9    27   ar
    27    27    28   ar
    28    28     3   ar
    29    28     6   ar
    30    22    10   ar
    31    18    12   ar
    32     4    29    1
    33     7    30    1
    34     8    31    1
    35    13    32    1
    36    16    33    1
    37    17    34    1
    38    21    35    1
    39    23    36    1
    40    23    37    1
    41    24    38    1
    42    27    39    1
