
     RDKit          3D

 46 49  0  0  0  0  0  0  0  0999 V2000
    6.8819   -1.8130   -0.5383 N   0  0  0  0  0  0  0  0  0  0  0  0
    5.3838   -2.6342   -0.2327 S   0  0  0  0  0  6  0  0  0  0  0  0
    5.1224   -3.5404   -1.3996 O   0  0  0  0  0  0  0  0  0  0  0  0
    5.4472   -3.4520    1.0252 O   0  0  0  0  0  0  0  0  0  0  0  0
    4.1348   -1.4237   -0.1742 C   0  0  0  0  0  0  0  0  0  0  0  0
    3.4882   -1.0944   -1.3470 C   0  0  0  0  0  0  0  0  0  0  0  0
    2.4938   -0.1383   -1.3358 C   0  0  0  0  0  0  0  0  0  0  0  0
    2.1378    0.4929   -0.1661 C   0  0  0  0  0  0  0  0  0  0  0  0
    1.0525    1.5139   -0.2468 C   0  0  0  0  0  0  0  0  0  0  0  0
   -0.2729    0.9301   -0.0642 C   0  0  0  0  0  0  0  0  0  0  0  0
   -0.5860   -0.4144    0.0780 C   0  0  0  0  0  0  0  0  0  0  0  0
   -1.9050   -0.5543    0.2277 N   0  0  0  0  0  0  0  0  0  0  0  0
   -2.6471   -1.8091    0.4072 C   0  0  0  0  0  0  0  0  0  0  0  0
   -3.5891   -2.3814    0.0235 N   0  0  0  0  0  0  0  0  0  0  0  0
   -4.0414   -3.5619    0.3802 C   0  0  0  0  0  0  0  0  0  0  0  0
   -5.2654   -4.1532   -0.2084 C   0  0  0  0  0  0  0  0  0  0  0  0
   -5.9583   -3.5800   -1.0837 O   0  0  0  0  0  0  0  0  0  0  0  0
   -5.7169   -5.4014    0.1893 O   0  0  0  0  0  0  0  0  0  0  0  0
   -3.3061   -4.1934    1.3234 C   0  0  0  0  0  0  0  0  0  0  0  0
   -1.9554   -3.0010    1.6517 S   0  0  0  0  0  0  0  0  0  0  0  0
   -2.4204    0.6325    0.1851 N   0  0  0  0  0  0  0  0  0  0  0  0
   -1.4637    1.6000    0.0061 C   0  0  0  0  0  0  0  0  0  0  0  0
   -1.7283    3.0436   -0.0703 C   0  0  0  0  0  0  0  0  0  0  0  0
   -2.5630    3.5735    0.8939 C   0  0  0  0  0  0  0  0  0  0  0  0
   -2.8586    4.9077    0.8784 C   0  0  0  0  0  0  0  0  0  0  0  0
   -2.3450    5.7573   -0.0808 C   0  0  0  0  0  0  0  0  0  0  0  0
   -2.6832    7.0622   -0.0277 F   0  0  0  0  0  0  0  0  0  0  0  0
   -1.5073    5.2328   -1.0510 C   0  0  0  0  0  0  0  0  0  0  0  0
   -1.0032    6.0575   -1.9898 F   0  0  0  0  0  0  0  0  0  0  0  0
   -1.2172    3.8751   -1.0210 C   0  0  0  0  0  0  0  0  0  0  0  0
    2.7807    0.1649    0.9972 C   0  0  0  0  0  0  0  0  0  0  0  0
    3.7810   -0.7902    1.0129 C   0  0  0  0  0  0  0  0  0  0  0  0
    7.6266   -2.1129    0.1328 H   0  0  0  0  0  0  0  0  0  0  0  0
    6.7841   -0.7702   -0.4164 H   0  0  0  0  0  0  0  0  0  0  0  0
    3.7352   -1.5677   -2.2978 H   0  0  0  0  0  0  0  0  0  0  0  0
    2.0031    0.0949   -2.2898 H   0  0  0  0  0  0  0  0  0  0  0  0
    1.1504    1.9860   -1.2437 H   0  0  0  0  0  0  0  0  0  0  0  0
    1.2573    2.2621    0.5528 H   0  0  0  0  0  0  0  0  0  0  0  0
    0.1219   -1.2423    0.0707 H   0  0  0  0  0  0  0  0  0  0  0  0
   -6.6719   -5.6911    0.0447 H   0  0  0  0  0  0  0  0  0  0  0  0
   -3.3925   -5.1909    1.8529 H   0  0  0  0  0  0  0  0  0  0  0  0
   -2.9700    2.9224    1.6474 H   0  0  0  0  0  0  0  0  0  0  0  0
   -3.5212    5.2845    1.6566 H   0  0  0  0  0  0  0  0  0  0  0  0
   -0.5698    3.4950   -1.7888 H   0  0  0  0  0  0  0  0  0  0  0  0
    2.4872    0.6727    1.9122 H   0  0  0  0  0  0  0  0  0  0  0  0
    4.2889   -1.0499    1.9239 H   0  0  0  0  0  0  0  0  0  0  0  0
  1  2  1  0
  2  3  2  0
  2  4  2  0
  2  5  1  0
  5  6  2  0
  6  7  1  0
  7  8  2  0
  8  9  1  0
  9 10  1  0
 10 11  2  0
 11 12  1  0
 12 13  1  0
 13 14  2  0
 14 15  1  0
 15 16  1  0
 16 17  2  0
 16 18  1  0
 15 19  2  0
 19 20  1  0
 12 21  1  0
 21 22  2  0
 22 23  1  0
 23 24  2  0
 24 25  1  0
 25 26  2  0
 26 27  1  0
 26 28  1  0
 28 29  1  0
 28 30  2  0
  8 31  1  0
 31 32  2  0
 32  5  1  0
 22 10  1  0
 30 23  1  0
 20 13  1  0
  1 33  1  0
  1 34  1  0
  6 35  1  0
  7 36  1  0
  9 37  1  0
  9 38  1  0
 11 39  1  0
 18 40  1  0
 19 41  1  0
 24 42  1  0
 25 43  1  0
 30 44  1  0
 31 45  1  0
 32 46  1  0
M  END
$$$$
