@<TRIPOS>MOLECULE
*****
 46 49 0 0 0
SMALL
GASTEIGER

@<TRIPOS>ATOM
      1 N1          6.8819   -1.8130   -0.5383 N.3     1  <1>        -0.2035
      2 S1          5.3838   -2.6342   -0.2327 S.O2    1  <1>         0.0559
      3 O1          5.1224   -3.5404   -1.3996 O.2     1  <1>        -0.1533
      4 O2          5.4472   -3.4520    1.0252 O.2     1  <1>        -0.1533
      5 C1          4.1348   -1.4237   -0.1742 C.ar    1  <1>         0.1050
      6 C2          3.4882   -1.0944   -1.3470 C.ar    1  <1>        -0.0351
      7 C3          2.4938   -0.1383   -1.3358 C.ar    1  <1>        -0.0564
      8 C4          2.1378    0.4929   -0.1661 C.ar    1  <1>        -0.0428
      9 C5          1.0525    1.5139   -0.2468 C.3     1  <1>         0.0011
     10 C6         -0.2729    0.9301   -0.0642 C.ar    1  <1>         0.0027
     11 C7         -0.5860   -0.4144    0.0780 C.ar    1  <1>         0.0375
     12 N2         -1.9050   -0.5543    0.2277 N.ar    1  <1>        -0.2149
     13 C8         -2.6471   -1.8091    0.4072 C.ar    1  <1>         0.1944
     14 N3         -3.5891   -2.3814    0.0235 N.ar    1  <1>        -0.2145
     15 C9         -4.0414   -3.5619    0.3802 C.ar    1  <1>         0.1568
     16 C10        -5.2654   -4.1532   -0.2084 C.2     1  <1>         0.3559
     17 O3         -5.9583   -3.5800   -1.0837 O.2     1  <1>        -0.2434
     18 O4         -5.7169   -5.4014    0.1893 O.3     1  <1>        -0.4761
     19 C11        -3.3061   -4.1934    1.3234 C.ar    1  <1>         0.0116
     20 S2         -1.9554   -3.0010    1.6517 S.2     1  <1>        -0.0555
     21 N4         -2.4204    0.6325    0.1851 N.ar    1  <1>        -0.1643
     22 C12        -1.4637    1.6000    0.0061 C.ar    1  <1>         0.0967
     23 C13        -1.7283    3.0436   -0.0703 C.ar    1  <1>         0.0053
     24 C14        -2.5630    3.5735    0.8939 C.ar    1  <1>        -0.0496
     25 C15        -2.8586    4.9077    0.8784 C.ar    1  <1>        -0.0230
     26 C16        -2.3450    5.7573   -0.0808 C.ar    1  <1>         0.1584
     27 F1         -2.6832    7.0622   -0.0277 F       1  <1>        -0.2025
     28 C17        -1.5073    5.2328   -1.0510 C.ar    1  <1>         0.1590
     29 F2         -1.0032    6.0575   -1.9898 F       1  <1>        -0.2025
     30 C18        -1.2172    3.8751   -1.0210 C.ar    1  <1>        -0.0143
     31 C19         2.7807    0.1649    0.9972 C.ar    1  <1>        -0.0564
     32 C20         3.7810   -0.7902    1.0129 C.ar    1  <1>        -0.0351
     33 H1          7.6266   -2.1129    0.1328 H       1  <1>         0.1442
     34 H2          6.7841   -0.7702   -0.4164 H       1  <1>         0.1442
     35 H3          3.7352   -1.5677   -2.2978 H       1  <1>         0.0637
     36 H4          2.0031    0.0949   -2.2898 H       1  <1>         0.0621
     37 H5          1.1504    1.9860   -1.2437 H       1  <1>         0.0363
     38 H6          1.2573    2.2621    0.5528 H       1  <1>         0.0363
     39 H7          0.1219   -1.2423    0.0707 H       1  <1>         0.0834
     40 H8         -6.6719   -5.6911    0.0447 H       1  <1>         0.2955
     41 H9         -3.3925   -5.1909    1.8529 H       1  <1>         0.0718
     42 H10        -2.9700    2.9224    1.6474 H       1  <1>         0.0625
     43 H11        -3.5212    5.2845    1.6566 H       1  <1>         0.0647
     44 H12        -0.5698    3.4950   -1.7888 H       1  <1>         0.0654
     45 H13         2.4872    0.6727    1.9122 H       1  <1>         0.0621
     46 H14         4.2889   -1.0499    1.9239 H       1  <1>         0.0637
@<TRIPOS>BOND
     1     1     2    1
     2     2     3    2
     3     2     4    2
     4     2     5    1
     5     5     6   ar
     6     6     7   ar
     7     7     8   ar
     8     8     9    1
     9     9    10    1
    10    10    11   ar
    11    11    12   ar
    12    12    13    1
    13    13    14   ar
    14    14    15   ar
    15    15    16    1
    16    16    17    2
    17    16    18    1
    18    15    19   ar
    19    19    20   ar
    20    12    21   ar
    21    21    22   ar
    22    22    23    1
    23    23    24   ar
    24    24    25   ar
    25    25    26   ar
    26    26    27    1
    27    26    28   ar
    28    28    29    1
    29    28    30   ar
    30     8    31   ar
    31    31    32   ar
    32    32     5   ar
    33    22    10   ar
    34    30    23   ar
    35    20    13   ar
    36     1    33    1
    37     1    34    1
    38     6    35    1
    39     7    36    1
    40     9    37    1
    41     9    38    1
    42    11    39    1
    43    18    40    1
    44    19    41    1
    45    24    42    1
    46    25    43    1
    47    30    44    1
    48    31    45    1
    49    32    46    1
