@<TRIPOS>MOLECULE
*****
 62 66 0 0 0
SMALL
GASTEIGER

@<TRIPOS>ATOM
      1 C          -2.9055   -1.1797    0.4476 C.3     1  UNL1        0.1412
      2 O          -3.0459   -1.9668   -0.7022 O.3     1  UNL1       -0.4817
      3 C          -4.0409   -2.8592   -0.9900 C.ar    1  UNL1        0.1350
      4 C          -5.2866   -2.3714   -0.6466 C.ar    1  UNL1        0.0537
      5 S          -5.6100   -0.7696    0.0853 S.3     1  UNL1       -0.1094
      6 C          -3.9927   -0.1930    0.7010 C.3     1  UNL1        0.0760
      7 C          -3.7110    1.1842    0.2110 C.ar    1  UNL1       -0.0301
      8 C          -3.5956    1.6238   -1.0904 C.ar    1  UNL1       -0.0539
      9 C          -3.3298    2.9416   -1.3921 C.ar    1  UNL1       -0.0199
     10 C          -3.1633    3.8991   -0.4152 C.ar    1  UNL1        0.1169
     11 O          -2.8964    5.2200   -0.7259 O.3     1  UNL1       -0.5068
     12 C          -3.2670    3.5223    0.9064 C.ar    1  UNL1       -0.0199
     13 C          -3.5337    2.1949    1.1648 C.ar    1  UNL1       -0.0539
     14 C          -6.4529   -3.1060   -0.8471 C.ar    1  UNL1       -0.0032
     15 C          -6.3773   -4.3760   -1.4116 C.ar    1  UNL1        0.1181
     16 O          -7.5282   -5.1368   -1.6251 O.3     1  UNL1       -0.5067
     17 C          -5.1333   -4.8611   -1.7537 C.ar    1  UNL1       -0.0167
     18 C          -3.9794   -4.1370   -1.5565 C.ar    1  UNL1       -0.0154
     19 C          -1.5372   -0.5933    0.4071 C.ar    1  UNL1       -0.0057
     20 C          -0.8886   -0.0984   -0.7035 C.ar    1  UNL1       -0.0516
     21 C           0.3798    0.4367   -0.6502 C.ar    1  UNL1       -0.0196
     22 C           1.0172    0.4730    0.5703 C.ar    1  UNL1        0.1206
     23 O           2.3113    1.0224    0.6066 O.3     1  UNL1       -0.4907
     24 C           2.9173    1.5138   -0.5872 C.3     1  UNL1        0.1022
     25 C           4.3015    2.0538   -0.3035 C.3     1  UNL1        0.0331
     26 N           5.1740    1.0355    0.2443 N.3     1  UNL1       -0.2991
     27 C           6.4584    1.6188    0.4758 C.3     1  UNL1       -0.0010
     28 C           7.4624    0.6642    1.0731 C.3     1  UNL1       -0.0402
     29 C           7.5130   -0.5728    0.2077 C.3     1  UNL1       -0.0507
     30 C           6.0968   -1.1543    0.2031 C.3     1  UNL1       -0.0402
     31 C           5.1667   -0.1758   -0.5083 C.3     1  UNL1       -0.0010
     32 C           0.4586    0.0071    1.7287 C.ar    1  UNL1       -0.0196
     33 C          -0.8067   -0.5113    1.5979 C.ar    1  UNL1       -0.0516
     34 H          -2.9014   -1.9350    1.3019 H       1  UNL1        0.0799
     35 H          -4.1352   -0.1803    1.8277 H       1  UNL1        0.0504
     36 H          -3.7355    0.8277   -1.8378 H       1  UNL1        0.0622
     37 H          -3.2524    3.2169   -2.4455 H       1  UNL1        0.0654
     38 H          -3.3881    5.9506   -0.2191 H       1  UNL1        0.2921
     39 H          -3.1494    4.2141    1.7274 H       1  UNL1        0.0654
     40 H          -3.6131    1.9144    2.2272 H       1  UNL1        0.0622
     41 H          -7.4545   -2.7822   -0.6008 H       1  UNL1        0.0666
     42 H          -8.2937   -4.9480   -0.9593 H       1  UNL1        0.2921
     43 H          -5.0014   -5.8508   -2.2016 H       1  UNL1        0.0655
     44 H          -2.9699   -4.4343   -1.7925 H       1  UNL1        0.0656
     45 H          -1.4055   -0.1464   -1.6309 H       1  UNL1        0.0623
     46 H           0.8348    0.8095   -1.5598 H       1  UNL1        0.0654
     47 H           2.2924    2.3766   -0.9060 H       1  UNL1        0.0709
     48 H           2.9067    0.7823   -1.4119 H       1  UNL1        0.0709
     49 H           4.7108    2.4510   -1.2543 H       1  UNL1        0.0460
     50 H           4.1694    2.9053    0.3831 H       1  UNL1        0.0460
     51 H           6.9076    2.0573   -0.4425 H       1  UNL1        0.0427
     52 H           6.3260    2.4404    1.2120 H       1  UNL1        0.0427
     53 H           8.4541    1.1763    1.0496 H       1  UNL1        0.0278
     54 H           7.2070    0.3950    2.1285 H       1  UNL1        0.0278
     55 H           8.1737   -1.3148    0.6671 H       1  UNL1        0.0266
     56 H           7.8433   -0.2870   -0.8042 H       1  UNL1        0.0266
     57 H           6.1692   -2.0983   -0.3583 H       1  UNL1        0.0278
     58 H           5.8202   -1.2966    1.2639 H       1  UNL1        0.0278
     59 H           4.1493   -0.6199   -0.4190 H       1  UNL1        0.0427
     60 H           5.5080   -0.1025   -1.5485 H       1  UNL1        0.0427
     61 H           0.9438    0.0272    2.6940 H       1  UNL1        0.0654
     62 H          -1.2911   -0.8971    2.5088 H       1  UNL1        0.0623
@<TRIPOS>BOND
     1     1     2    1
     2     2     3    1
     3     3     4   ar
     4     4     5    1
     5     5     6    1
     6     6     7    1
     7     7     8   ar
     8     8     9   ar
     9     9    10   ar
    10    10    11    1
    11    10    12   ar
    12    12    13   ar
    13     4    14   ar
    14    14    15   ar
    15    15    16    1
    16    15    17   ar
    17    17    18   ar
    18     1    19    1
    19    19    20   ar
    20    20    21   ar
    21    21    22   ar
    22    22    23    1
    23    23    24    1
    24    24    25    1
    25    25    26    1
    26    26    27    1
    27    27    28    1
    28    28    29    1
    29    29    30    1
    30    30    31    1
    31    22    32   ar
    32    32    33   ar
    33     6     1    1
    34    13     7   ar
    35    33    19   ar
    36    18     3   ar
    37    31    26    1
    38     1    34    1
    39     6    35    1
    40     8    36    1
    41     9    37    1
    42    11    38    1
    43    12    39    1
    44    13    40    1
    45    14    41    1
    46    16    42    1
    47    17    43    1
    48    18    44    1
    49    20    45    1
    50    21    46    1
    51    24    47    1
    52    24    48    1
    53    25    49    1
    54    25    50    1
    55    27    51    1
    56    27    52    1
    57    28    53    1
    58    28    54    1
    59    29    55    1
    60    29    56    1
    61    30    57    1
    62    30    58    1
    63    31    59    1
    64    31    60    1
    65    32    61    1
    66    33    62    1
