
     RDKit          3D

 62 66  0  0  0  0  0  0  0  0999 V2000
   -2.9055   -1.1797    0.4476 C   0  0  2  0  0  0  0  0  0  0  0  0
   -3.0459   -1.9668   -0.7022 O   0  0  0  0  0  0  0  0  0  0  0  0
   -4.0409   -2.8592   -0.9900 C   0  0  0  0  0  0  0  0  0  0  0  0
   -5.2866   -2.3714   -0.6466 C   0  0  0  0  0  0  0  0  0  0  0  0
   -5.6100   -0.7696    0.0853 S   0  0  0  0  0  0  0  0  0  0  0  0
   -3.9927   -0.1930    0.7010 C   0  0  2  0  0  0  0  0  0  0  0  0
   -3.7110    1.1842    0.2110 C   0  0  0  0  0  0  0  0  0  0  0  0
   -3.5956    1.6238   -1.0904 C   0  0  0  0  0  0  0  0  0  0  0  0
   -3.3298    2.9416   -1.3921 C   0  0  0  0  0  0  0  0  0  0  0  0
   -3.1633    3.8991   -0.4152 C   0  0  0  0  0  0  0  0  0  0  0  0
   -2.8964    5.2200   -0.7259 O   0  0  0  0  0  0  0  0  0  0  0  0
   -3.2670    3.5223    0.9064 C   0  0  0  0  0  0  0  0  0  0  0  0
   -3.5337    2.1949    1.1648 C   0  0  0  0  0  0  0  0  0  0  0  0
   -6.4529   -3.1060   -0.8471 C   0  0  0  0  0  0  0  0  0  0  0  0
   -6.3773   -4.3760   -1.4116 C   0  0  0  0  0  0  0  0  0  0  0  0
   -7.5282   -5.1368   -1.6251 O   0  0  0  0  0  0  0  0  0  0  0  0
   -5.1333   -4.8611   -1.7537 C   0  0  0  0  0  0  0  0  0  0  0  0
   -3.9794   -4.1370   -1.5565 C   0  0  0  0  0  0  0  0  0  0  0  0
   -1.5372   -0.5933    0.4071 C   0  0  0  0  0  0  0  0  0  0  0  0
   -0.8886   -0.0984   -0.7035 C   0  0  0  0  0  0  0  0  0  0  0  0
    0.3798    0.4367   -0.6502 C   0  0  0  0  0  0  0  0  0  0  0  0
    1.0172    0.4730    0.5703 C   0  0  0  0  0  0  0  0  0  0  0  0
    2.3113    1.0224    0.6066 O   0  0  0  0  0  0  0  0  0  0  0  0
    2.9173    1.5138   -0.5872 C   0  0  0  0  0  0  0  0  0  0  0  0
    4.3015    2.0538   -0.3035 C   0  0  0  0  0  0  0  0  0  0  0  0
    5.1740    1.0355    0.2443 N   0  0  0  0  0  0  0  0  0  0  0  0
    6.4584    1.6188    0.4758 C   0  0  0  0  0  0  0  0  0  0  0  0
    7.4624    0.6642    1.0731 C   0  0  0  0  0  0  0  0  0  0  0  0
    7.5130   -0.5728    0.2077 C   0  0  0  0  0  0  0  0  0  0  0  0
    6.0968   -1.1543    0.2031 C   0  0  0  0  0  0  0  0  0  0  0  0
    5.1667   -0.1758   -0.5083 C   0  0  0  0  0  0  0  0  0  0  0  0
    0.4586    0.0071    1.7287 C   0  0  0  0  0  0  0  0  0  0  0  0
   -0.8067   -0.5113    1.5979 C   0  0  0  0  0  0  0  0  0  0  0  0
   -2.9014   -1.9350    1.3019 H   0  0  0  0  0  0  0  0  0  0  0  0
   -4.1352   -0.1803    1.8277 H   0  0  0  0  0  0  0  0  0  0  0  0
   -3.7355    0.8277   -1.8378 H   0  0  0  0  0  0  0  0  0  0  0  0
   -3.2524    3.2169   -2.4455 H   0  0  0  0  0  0  0  0  0  0  0  0
   -3.3881    5.9506   -0.2191 H   0  0  0  0  0  0  0  0  0  0  0  0
   -3.1494    4.2141    1.7274 H   0  0  0  0  0  0  0  0  0  0  0  0
   -3.6131    1.9144    2.2272 H   0  0  0  0  0  0  0  0  0  0  0  0
   -7.4545   -2.7822   -0.6008 H   0  0  0  0  0  0  0  0  0  0  0  0
   -8.2937   -4.9480   -0.9593 H   0  0  0  0  0  0  0  0  0  0  0  0
   -5.0014   -5.8508   -2.2016 H   0  0  0  0  0  0  0  0  0  0  0  0
   -2.9699   -4.4343   -1.7925 H   0  0  0  0  0  0  0  0  0  0  0  0
   -1.4055   -0.1464   -1.6309 H   0  0  0  0  0  0  0  0  0  0  0  0
    0.8348    0.8095   -1.5598 H   0  0  0  0  0  0  0  0  0  0  0  0
    2.2924    2.3766   -0.9060 H   0  0  0  0  0  0  0  0  0  0  0  0
    2.9067    0.7823   -1.4119 H   0  0  0  0  0  0  0  0  0  0  0  0
    4.7108    2.4510   -1.2543 H   0  0  0  0  0  0  0  0  0  0  0  0
    4.1694    2.9053    0.3831 H   0  0  0  0  0  0  0  0  0  0  0  0
    6.9076    2.0573   -0.4425 H   0  0  0  0  0  0  0  0  0  0  0  0
    6.3260    2.4404    1.2120 H   0  0  0  0  0  0  0  0  0  0  0  0
    8.4541    1.1763    1.0496 H   0  0  0  0  0  0  0  0  0  0  0  0
    7.2070    0.3950    2.1285 H   0  0  0  0  0  0  0  0  0  0  0  0
    8.1737   -1.3148    0.6671 H   0  0  0  0  0  0  0  0  0  0  0  0
    7.8433   -0.2870   -0.8042 H   0  0  0  0  0  0  0  0  0  0  0  0
    6.1692   -2.0983   -0.3583 H   0  0  0  0  0  0  0  0  0  0  0  0
    5.8202   -1.2966    1.2639 H   0  0  0  0  0  0  0  0  0  0  0  0
    4.1493   -0.6199   -0.4190 H   0  0  0  0  0  0  0  0  0  0  0  0
    5.5080   -0.1025   -1.5485 H   0  0  0  0  0  0  0  0  0  0  0  0
    0.9438    0.0272    2.6940 H   0  0  0  0  0  0  0  0  0  0  0  0
   -1.2911   -0.8971    2.5088 H   0  0  0  0  0  0  0  0  0  0  0  0
  1  2  1  0
  2  3  1  0
  3  4  2  0
  4  5  1  0
  5  6  1  0
  6  7  1  0
  7  8  2  0
  8  9  1  0
  9 10  2  0
 10 11  1  0
 10 12  1  0
 12 13  2  0
  4 14  1  0
 14 15  2  0
 15 16  1  0
 15 17  1  0
 17 18  2  0
  1 19  1  0
 19 20  2  0
 20 21  1  0
 21 22  2  0
 22 23  1  0
 23 24  1  0
 24 25  1  0
 25 26  1  0
 26 27  1  0
 27 28  1  0
 28 29  1  0
 29 30  1  0
 30 31  1  0
 22 32  1  0
 32 33  2  0
  6  1  1  0
 13  7  1  0
 33 19  1  0
 18  3  1  0
 31 26  1  0
  1 34  1  1
  6 35  1  1
  8 36  1  0
  9 37  1  0
 11 38  1  0
 12 39  1  0
 13 40  1  0
 14 41  1  0
 16 42  1  0
 17 43  1  0
 18 44  1  0
 20 45  1  0
 21 46  1  0
 24 47  1  0
 24 48  1  0
 25 49  1  0
 25 50  1  0
 27 51  1  0
 27 52  1  0
 28 53  1  0
 28 54  1  0
 29 55  1  0
 29 56  1  0
 30 57  1  0
 30 58  1  0
 31 59  1  0
 31 60  1  0
 32 61  1  0
 33 62  1  0
M  END
$$$$
