@<TRIPOS>MOLECULE
*****
 30 31 0 0 0
SMALL
GASTEIGER

@<TRIPOS>ATOM
      1 C           2.8037   -1.1782    1.8120 C.3     1  UNL1       -0.0188
      2 C           2.7561   -0.2293    0.6702 C.ar    1  UNL1        0.0797
      3 C           1.7341   -0.0694   -0.2793 C.ar    1  UNL1        0.1415
      4 O           0.7420   -0.9447   -0.0002 O.3     1  UNL1       -0.4886
      5 C          -0.4665   -1.1971   -0.6029 C.3     1  UNL1        0.1049
      6 C          -1.4571   -0.0786   -0.6671 C.3     1  UNL1        0.0419
      7 C          -2.0011    0.3151    0.6831 C.3     1  UNL1       -0.0332
      8 C          -3.5135    0.2828    0.5810 C.3     1  UNL1       -0.0389
      9 C          -3.7502    0.1609   -0.9081 C.3     1  UNL1       -0.0037
     10 N          -2.6327   -0.6422   -1.3538 N.3     1  UNL1       -0.3102
     11 C           1.9360    0.8915   -1.2489 C.ar    1  UNL1       -0.0167
     12 C           3.0843    1.6541   -1.2803 C.ar    1  UNL1       -0.0401
     13 C           4.0479    1.4638   -0.3389 C.ar    1  UNL1        0.0281
     14 N           3.8931    0.5322    0.6315 N.ar    1  UNL1       -0.2565
     15 H           2.7515   -0.6924    2.8007 H       1  UNL1        0.0294
     16 H           2.0374   -1.9978    1.6815 H       1  UNL1        0.0294
     17 H           3.7710   -1.7226    1.7761 H       1  UNL1        0.0294
     18 H          -1.0211   -2.0627   -0.1427 H       1  UNL1        0.0712
     19 H          -0.2648   -1.4585   -1.6849 H       1  UNL1        0.0712
     20 H          -1.1512    0.7791   -1.2594 H       1  UNL1        0.0494
     21 H          -1.6274   -0.2992    1.5186 H       1  UNL1        0.0282
     22 H          -1.7130    1.3872    0.8487 H       1  UNL1        0.0282
     23 H          -3.9704    1.2221    0.9294 H       1  UNL1        0.0278
     24 H          -3.9256   -0.6305    1.0720 H       1  UNL1        0.0278
     25 H          -4.6818   -0.4052   -1.1421 H       1  UNL1        0.0424
     26 H          -3.6958    1.1193   -1.4280 H       1  UNL1        0.0424
     27 H          -2.7880   -1.5991   -0.9144 H       1  UNL1        0.1223
     28 H           1.1160    0.9409   -1.9247 H       1  UNL1        0.0655
     29 H           3.0709    2.3574   -2.1102 H       1  UNL1        0.0634
     30 H           4.9163    2.1010   -0.4332 H       1  UNL1        0.0829
@<TRIPOS>BOND
     1     1     2    1
     2     2     3   ar
     3     3     4    1
     4     4     5    1
     5     5     6    1
     6     6     7    1
     7     7     8    1
     8     8     9    1
     9     9    10    1
    10     3    11   ar
    11    11    12   ar
    12    12    13   ar
    13    13    14   ar
    14    14     2   ar
    15    10     6    1
    16     1    15    1
    17     1    16    1
    18     1    17    1
    19     5    18    1
    20     5    19    1
    21     6    20    1
    22     7    21    1
    23     7    22    1
    24     8    23    1
    25     8    24    1
    26     9    25    1
    27     9    26    1
    28    10    27    1
    29    11    28    1
    30    12    29    1
    31    13    30    1
