
     RDKit          3D

 43 46  0  0  0  0  0  0  0  0999 V2000
   -3.9533   -0.5398    0.9912 C   0  0  0  0  0  0  0  0  0  0  0  0
   -4.1621    0.5905   -0.0115 C   0  0  0  0  0  0  0  0  0  0  0  0
   -2.9437    1.4692    0.0938 C   0  0  0  0  0  0  0  0  0  0  0  0
   -1.7862    0.7574   -0.3097 N   0  0  0  0  0  0  0  0  0  0  0  0
   -0.6038    1.5538   -0.4369 C   0  0  0  0  0  0  0  0  0  0  0  0
    0.4629    0.7919   -1.1779 C   0  0  2  0  0  0  0  0  0  0  0  0
   -0.1267   -0.5044   -1.6994 C   0  0  0  0  0  0  0  0  0  0  0  0
   -0.5387   -1.3014   -0.4627 C   0  0  1  0  0  0  0  0  0  0  0  0
    0.7244   -1.6144    0.2886 C   0  0  0  0  0  0  0  0  0  0  0  0
    1.8815   -0.9034   -0.2572 N   0  0  0  0  0  0  0  0  0  0  0  0
    3.0146   -1.2832    0.5402 C   0  0  0  0  0  0  0  0  0  0  0  0
    4.2082   -0.3942    0.3774 C   0  0  0  0  0  0  0  0  0  0  0  0
    3.7947    1.0630    0.5420 C   0  0  0  0  0  0  0  0  0  0  0  0
    2.7802    1.3210   -0.5667 C   0  0  0  0  0  0  0  0  0  0  0  0
    1.5645    0.4961   -0.1985 C   0  0  1  0  0  0  0  0  0  0  0  0
   -1.5211   -0.4807    0.3487 C   0  0  2  0  0  0  0  0  0  0  0  0
   -2.7591   -1.3123    0.5136 C   0  0  0  0  0  0  0  0  0  0  0  0
   -4.8092   -1.2154    1.0325 H   0  0  0  0  0  0  0  0  0  0  0  0
   -3.7002   -0.0648    1.9555 H   0  0  0  0  0  0  0  0  0  0  0  0
   -5.0775    1.1622    0.1969 H   0  0  0  0  0  0  0  0  0  0  0  0
   -4.1741    0.1170   -1.0103 H   0  0  0  0  0  0  0  0  0  0  0  0
   -2.8409    1.9216    1.0930 H   0  0  0  0  0  0  0  0  0  0  0  0
   -3.0925    2.2913   -0.6482 H   0  0  0  0  0  0  0  0  0  0  0  0
   -0.2361    1.9230    0.5616 H   0  0  0  0  0  0  0  0  0  0  0  0
   -0.8803    2.4608   -1.0388 H   0  0  0  0  0  0  0  0  0  0  0  0
    0.8302    1.3833   -2.0370 H   0  0  0  0  0  0  0  0  0  0  0  0
   -1.1033   -0.2115   -2.1792 H   0  0  0  0  0  0  0  0  0  0  0  0
    0.5358   -1.0722   -2.3427 H   0  0  0  0  0  0  0  0  0  0  0  0
   -0.9745   -2.2468   -0.8274 H   0  0  0  0  0  0  0  0  0  0  0  0
    0.9664   -2.7062    0.2243 H   0  0  0  0  0  0  0  0  0  0  0  0
    0.6209   -1.4064    1.3768 H   0  0  0  0  0  0  0  0  0  0  0  0
    3.3136   -2.3088    0.1999 H   0  0  0  0  0  0  0  0  0  0  0  0
    2.7480   -1.3310    1.6065 H   0  0  0  0  0  0  0  0  0  0  0  0
    4.6699   -0.4750   -0.6200 H   0  0  0  0  0  0  0  0  0  0  0  0
    4.9277   -0.6381    1.1861 H   0  0  0  0  0  0  0  0  0  0  0  0
    3.2186    1.1470    1.4946 H   0  0  0  0  0  0  0  0  0  0  0  0
    4.6575    1.7374    0.4909 H   0  0  0  0  0  0  0  0  0  0  0  0
    3.1955    0.8920   -1.5120 H   0  0  0  0  0  0  0  0  0  0  0  0
    2.5451    2.3850   -0.6845 H   0  0  0  0  0  0  0  0  0  0  0  0
    1.2931    0.7764    0.8516 H   0  0  0  0  0  0  0  0  0  0  0  0
   -1.0590   -0.3508    1.3636 H   0  0  0  0  0  0  0  0  0  0  0  0
   -3.0180   -1.7159   -0.4993 H   0  0  0  0  0  0  0  0  0  0  0  0
   -2.5925   -2.1632    1.1907 H   0  0  0  0  0  0  0  0  0  0  0  0
  1  2  1  0
  2  3  1  0
  3  4  1  0
  4  5  1  0
  5  6  1  0
  6  7  1  0
  7  8  1  0
  8  9  1  0
  9 10  1  0
 10 11  1  0
 11 12  1  0
 12 13  1  0
 13 14  1  0
 14 15  1  0
  8 16  1  0
 16 17  1  0
 17  1  1  0
 16  4  1  0
 15  6  1  0
 15 10  1  0
  1 18  1  0
  1 19  1  0
  2 20  1  0
  2 21  1  0
  3 22  1  0
  3 23  1  0
  5 24  1  0
  5 25  1  0
  6 26  1  6
  7 27  1  0
  7 28  1  0
  8 29  1  6
  9 30  1  0
  9 31  1  0
 11 32  1  0
 11 33  1  0
 12 34  1  0
 12 35  1  0
 13 36  1  0
 13 37  1  0
 14 38  1  0
 14 39  1  0
 15 40  1  1
 16 41  1  1
 17 42  1  0
 17 43  1  0
M  END
$$$$
