@<TRIPOS>MOLECULE
*****
 43 46 0 0 0
SMALL
GASTEIGER

@<TRIPOS>ATOM
      1 C          -3.9533   -0.5398    0.9912 C.3     1  UNL1       -0.0505
      2 C          -4.1621    0.5905   -0.0115 C.3     1  UNL1       -0.0401
      3 C          -2.9437    1.4692    0.0938 C.3     1  UNL1       -0.0008
      4 N          -1.7862    0.7574   -0.3097 N.3     1  UNL1       -0.2988
      5 C          -0.6038    1.5538   -0.4369 C.3     1  UNL1        0.0034
      6 C           0.4629    0.7919   -1.1779 C.3     1  UNL1       -0.0123
      7 C          -0.1267   -0.5044   -1.6994 C.3     1  UNL1       -0.0422
      8 C          -0.5387   -1.3014   -0.4627 C.3     1  UNL1       -0.0123
      9 C           0.7244   -1.6144    0.2886 C.3     1  UNL1        0.0034
     10 N           1.8815   -0.9034   -0.2572 N.3     1  UNL1       -0.2988
     11 C           3.0146   -1.2832    0.5402 C.3     1  UNL1       -0.0008
     12 C           4.2082   -0.3942    0.3774 C.3     1  UNL1       -0.0401
     13 C           3.7947    1.0630    0.5420 C.3     1  UNL1       -0.0505
     14 C           2.7802    1.3210   -0.5667 C.3     1  UNL1       -0.0370
     15 C           1.5645    0.4961   -0.1985 C.3     1  UNL1        0.0144
     16 C          -1.5211   -0.4807    0.3487 C.3     1  UNL1        0.0144
     17 C          -2.7591   -1.3123    0.5136 C.3     1  UNL1       -0.0370
     18 H          -4.8092   -1.2154    1.0325 H       1  UNL1        0.0266
     19 H          -3.7002   -0.0648    1.9555 H       1  UNL1        0.0266
     20 H          -5.0775    1.1622    0.1969 H       1  UNL1        0.0278
     21 H          -4.1741    0.1170   -1.0103 H       1  UNL1        0.0278
     22 H          -2.8409    1.9216    1.0930 H       1  UNL1        0.0427
     23 H          -3.0925    2.2913   -0.6482 H       1  UNL1        0.0427
     24 H          -0.2361    1.9230    0.5616 H       1  UNL1        0.0430
     25 H          -0.8803    2.4608   -1.0388 H       1  UNL1        0.0430
     26 H           0.8302    1.3833   -2.0370 H       1  UNL1        0.0328
     27 H          -1.1033   -0.2115   -2.1792 H       1  UNL1        0.0272
     28 H           0.5358   -1.0722   -2.3427 H       1  UNL1        0.0272
     29 H          -0.9745   -2.2468   -0.8274 H       1  UNL1        0.0328
     30 H           0.9664   -2.7062    0.2243 H       1  UNL1        0.0430
     31 H           0.6209   -1.4064    1.3768 H       1  UNL1        0.0430
     32 H           3.3136   -2.3088    0.1999 H       1  UNL1        0.0427
     33 H           2.7480   -1.3310    1.6065 H       1  UNL1        0.0427
     34 H           4.6699   -0.4750   -0.6200 H       1  UNL1        0.0278
     35 H           4.9277   -0.6381    1.1861 H       1  UNL1        0.0278
     36 H           3.2186    1.1470    1.4946 H       1  UNL1        0.0266
     37 H           4.6575    1.7374    0.4909 H       1  UNL1        0.0266
     38 H           3.1955    0.8920   -1.5120 H       1  UNL1        0.0280
     39 H           2.5451    2.3850   -0.6845 H       1  UNL1        0.0280
     40 H           1.2931    0.7764    0.8516 H       1  UNL1        0.0466
     41 H          -1.0590   -0.3508    1.3636 H       1  UNL1        0.0466
     42 H          -3.0180   -1.7159   -0.4993 H       1  UNL1        0.0280
     43 H          -2.5925   -2.1632    1.1907 H       1  UNL1        0.0280
@<TRIPOS>BOND
     1     1     2    1
     2     2     3    1
     3     3     4    1
     4     4     5    1
     5     5     6    1
     6     6     7    1
     7     7     8    1
     8     8     9    1
     9     9    10    1
    10    10    11    1
    11    11    12    1
    12    12    13    1
    13    13    14    1
    14    14    15    1
    15     8    16    1
    16    16    17    1
    17    17     1    1
    18    16     4    1
    19    15     6    1
    20    15    10    1
    21     1    18    1
    22     1    19    1
    23     2    20    1
    24     2    21    1
    25     3    22    1
    26     3    23    1
    27     5    24    1
    28     5    25    1
    29     6    26    1
    30     7    27    1
    31     7    28    1
    32     8    29    1
    33     9    30    1
    34     9    31    1
    35    11    32    1
    36    11    33    1
    37    12    34    1
    38    12    35    1
    39    13    36    1
    40    13    37    1
    41    14    38    1
    42    14    39    1
    43    15    40    1
    44    16    41    1
    45    17    42    1
    46    17    43    1
