@<TRIPOS>MOLECULE
*****
 85 90 0 0 0
SMALL
GASTEIGER

@<TRIPOS>ATOM
      1 C           1.7711   -0.5299   -0.7682 C.3     1  UNL1       -0.0056
      2 C           0.8086   -0.0974   -1.8340 C.3     1  UNL1       -0.0446
      3 C          -0.5362    0.0881   -1.1780 C.3     1  UNL1       -0.0229
      4 C          -0.7590   -1.2352   -0.4880 C.3     1  UNL1        0.0788
      5 O          -0.2017   -2.2857   -1.2542 O.3     1  UNL1       -0.3878
      6 C          -2.2216   -1.4954   -0.4236 C.3     1  UNL1        0.0032
      7 C          -2.8107   -0.4034    0.4283 C.3     1  UNL1        0.0668
      8 C          -2.3163   -0.7161    1.8086 C.3     1  UNL1        0.0004
      9 C          -0.8364   -0.4669    1.8366 C.3     1  UNL1        0.0683
     10 O          -0.4638   -0.5939    3.1476 O.3     1  UNL1       -0.3910
     11 C          -0.0286   -1.2433    0.8409 C.3     1  UNL1        0.0540
     12 C           0.0949   -2.6964    1.1726 C.3     1  UNL1        0.0552
     13 O           0.7184   -3.0235    2.3328 O.3     1  UNL1       -0.3943
     14 C           1.2600   -0.5224    0.6279 C.3     1  UNL1        0.0032
     15 C           2.4062   -1.0331    1.4899 C.3     1  UNL1        0.0598
     16 O           2.1300   -0.8774    2.8629 O.3     1  UNL1       -0.3915
     17 C           3.6156   -0.1905    1.3287 C.3     1  UNL1       -0.0180
     18 C           4.1290    0.0398   -0.0370 C.3     1  UNL1        0.0059
     19 C           4.9516   -1.1239   -0.5467 C.3     1  UNL1       -0.0563
     20 C           4.9024    1.3435   -0.0059 C.3     1  UNL1       -0.0080
     21 C           4.2656    2.2141   -1.0736 C.3     1  UNL1       -0.0432
     22 C           2.7979    1.7781   -0.8833 C.3     1  UNL1       -0.0226
     23 C           2.9808    0.3065   -0.9680 C.3     1  UNL1        0.0752
     24 O           3.4785    0.0383   -2.2685 O.3     1  UNL1       -0.3877
     25 C           6.3486    1.2078   -0.1308 C.2     1  UNL1       -0.0222
     26 C           6.9294    1.8250   -1.1454 C.2     1  UNL1        0.0252
     27 C           8.3385    1.4928   -0.9805 C.2     1  UNL1        0.3323
     28 O           9.3610    1.8082   -1.6593 O.2     1  UNL1       -0.2456
     29 O           8.5401    0.6895    0.1275 O.3     1  UNL1       -0.4571
     30 C           7.3039    0.4810    0.7354 C.3     1  UNL1        0.1147
     31 O          -4.1507   -0.1899    0.3087 O.3     1  UNL1       -0.3452
     32 C          -4.5310    1.0380   -0.1555 C.3     1  UNL1        0.1881
     33 O          -5.3924    1.6138    0.7836 O.3     1  UNL1       -0.3431
     34 C          -6.2815    0.6132    1.1906 C.3     1  UNL1        0.0873
     35 C          -7.0872    1.0519    2.3976 C.3     1  UNL1       -0.0361
     36 C          -7.2340    0.3057    0.0363 C.3     1  UNL1        0.1095
     37 O          -7.1659   -1.0531   -0.2518 O.3     1  UNL1       -0.3866
     38 C          -6.8119    1.0770   -1.1868 C.3     1  UNL1        0.1140
     39 O          -7.0322    2.4387   -1.0456 O.3     1  UNL1       -0.3864
     40 C          -5.3298    0.8183   -1.4230 C.3     1  UNL1        0.1341
     41 O          -4.8687    1.5736   -2.4917 O.3     1  UNL1       -0.3841
     42 H           2.0963   -1.5925   -0.9747 H       1  UNL1        0.0332
     43 H           1.1017    0.7615   -2.4298 H       1  UNL1        0.0270
     44 H           0.6566   -0.9359   -2.5758 H       1  UNL1        0.0270
     45 H          -0.3907    0.9371   -0.4571 H       1  UNL1        0.0293
     46 H          -1.2839    0.2818   -1.9520 H       1  UNL1        0.0293
     47 H          -0.8823   -2.6336   -1.8839 H       1  UNL1        0.2102
     48 H          -2.6229   -1.4015   -1.4286 H       1  UNL1        0.0318
     49 H          -2.4104   -2.5064   -0.0636 H       1  UNL1        0.0318
     50 H          -2.3105    0.5341    0.0990 H       1  UNL1        0.0599
     51 H          -2.7697   -0.0560    2.5488 H       1  UNL1        0.0315
     52 H          -2.5134   -1.7785    2.0834 H       1  UNL1        0.0315
     53 H          -0.7061    0.6164    1.5570 H       1  UNL1        0.0601
     54 H          -0.9976   -1.1988    3.6946 H       1  UNL1        0.2098
     55 H          -0.9120   -3.1406    1.1911 H       1  UNL1        0.0564
     56 H           0.6115   -3.1760    0.3097 H       1  UNL1        0.0564
     57 H           1.2838   -3.8331    2.2969 H       1  UNL1        0.2094
     58 H           1.1550    0.5608    0.9234 H       1  UNL1        0.0337
     59 H           2.6077   -2.1087    1.2804 H       1  UNL1        0.0596
     60 H           2.9210   -1.2578    3.3215 H       1  UNL1        0.2098
     61 H           4.4287   -0.6554    1.9420 H       1  UNL1        0.0296
     62 H           3.4213    0.8008    1.8346 H       1  UNL1        0.0296
     63 H           5.8008   -0.7285   -1.1064 H       1  UNL1        0.0236
     64 H           4.3126   -1.6553   -1.3129 H       1  UNL1        0.0236
     65 H           5.1755   -1.8590    0.2363 H       1  UNL1        0.0236
     66 H           4.7260    1.9226    0.9490 H       1  UNL1        0.0353
     67 H           4.5436    1.8943   -2.0869 H       1  UNL1        0.0272
     68 H           4.3927    3.2979   -0.8823 H       1  UNL1        0.0272
     69 H           2.4817    2.1384    0.1159 H       1  UNL1        0.0293
     70 H           2.2528    2.2643   -1.6871 H       1  UNL1        0.0293
     71 H           3.0374   -0.7421   -2.6742 H       1  UNL1        0.2102
     72 H           6.5754    2.4397   -1.9494 H       1  UNL1        0.0689
     73 H           7.3421    1.0262    1.7225 H       1  UNL1        0.0746
     74 H           7.0604   -0.5770    0.9077 H       1  UNL1        0.0746
     75 H          -3.6980    1.7244   -0.3842 H       1  UNL1        0.0937
     76 H          -5.7302   -0.3140    1.4914 H       1  UNL1        0.0621
     77 H          -8.0231    1.5758    2.0760 H       1  UNL1        0.0255
     78 H          -6.4430    1.7031    3.0231 H       1  UNL1        0.0255
     79 H          -7.3428    0.1529    2.9961 H       1  UNL1        0.0255
     80 H          -8.2613    0.5899    0.3317 H       1  UNL1        0.0646
     81 H          -7.0023   -1.5357    0.5939 H       1  UNL1        0.2100
     82 H          -7.3460    0.6883   -2.0771 H       1  UNL1        0.0648
     83 H          -7.1123    2.8539   -1.9606 H       1  UNL1        0.2100
     84 H          -5.2860   -0.2562   -1.7656 H       1  UNL1        0.0671
     85 H          -5.0119    1.1128   -3.3561 H       1  UNL1        0.2101
@<TRIPOS>BOND
     1     1     2    1
     2     2     3    1
     3     3     4    1
     4     4     5    1
     5     4     6    1
     6     6     7    1
     7     7     8    1
     8     8     9    1
     9     9    10    1
    10     9    11    1
    11    11    12    1
    12    12    13    1
    13    11    14    1
    14    14    15    1
    15    15    16    1
    16    15    17    1
    17    17    18    1
    18    18    19    1
    19    18    20    1
    20    20    21    1
    21    21    22    1
    22    22    23    1
    23    23    24    1
    24    20    25    1
    25    25    26    2
    26    26    27    1
    27    27    28    2
    28    27    29    1
    29    29    30    1
    30     7    31    1
    31    31    32    1
    32    32    33    1
    33    33    34    1
    34    34    35    1
    35    34    36    1
    36    36    37    1
    37    36    38    1
    38    38    39    1
    39    38    40    1
    40    40    41    1
    41    14     1    1
    42    23    18    1
    43    30    25    1
    44    40    32    1
    45    23     1    1
    46    11     4    1
    47     1    42    1
    48     2    43    1
    49     2    44    1
    50     3    45    1
    51     3    46    1
    52     5    47    1
    53     6    48    1
    54     6    49    1
    55     7    50    1
    56     8    51    1
    57     8    52    1
    58     9    53    1
    59    10    54    1
    60    12    55    1
    61    12    56    1
    62    13    57    1
    63    14    58    1
    64    15    59    1
    65    16    60    1
    66    17    61    1
    67    17    62    1
    68    19    63    1
    69    19    64    1
    70    19    65    1
    71    20    66    1
    72    21    67    1
    73    21    68    1
    74    22    69    1
    75    22    70    1
    76    24    71    1
    77    26    72    1
    78    30    73    1
    79    30    74    1
    80    32    75    1
    81    34    76    1
    82    35    77    1
    83    35    78    1
    84    35    79    1
    85    36    80    1
    86    37    81    1
    87    38    82    1
    88    39    83    1
    89    40    84    1
    90    41    85    1
