@<TRIPOS>MOLECULE
*****
 22 22 0 0 0
SMALL
GASTEIGER

@<TRIPOS>ATOM
      1 C          -2.8109    0.3787    0.0765 C.3     1  UNL1       -0.0612
      2 C          -1.6427   -0.2127    0.8622 C.3     1  UNL1       -0.0071
      3 C          -0.4414   -0.0965   -0.0341 C.3     1  UNL1        0.1876
      4 C          -0.7320   -0.8874   -1.3072 C.3     1  UNL1       -0.0160
      5 O          -0.1946    1.2596   -0.2828 O.3     1  UNL1       -0.4342
      6 C           1.1956    1.4710   -0.3557 C.2     1  UNL1        0.4101
      7 O           1.8171    2.4877   -0.8135 O.2     1  UNL1       -0.2258
      8 N           1.8380    0.3140    0.1891 N.am    1  UNL1       -0.2073
      9 C           3.2668    0.0547    0.3339 C.3     1  UNL1        0.0142
     10 C           0.8063   -0.6061    0.5952 C.2     1  UNL1        0.2678
     11 O           0.9793   -1.6223    1.3355 O.2     1  UNL1       -0.2707
     12 H          -3.1408   -0.4267   -0.6372 H       1  UNL1        0.0231
     13 H          -2.4152    1.2038   -0.5541 H       1  UNL1        0.0231
     14 H          -3.6127    0.6783    0.7687 H       1  UNL1        0.0231
     15 H          -1.4934    0.4524    1.7612 H       1  UNL1        0.0306
     16 H          -1.9194   -1.2309    1.1459 H       1  UNL1        0.0306
     17 H          -1.3985   -1.7313   -1.0442 H       1  UNL1        0.0273
     18 H          -1.2261   -0.2338   -2.0710 H       1  UNL1        0.0273
     19 H           0.2392   -1.2752   -1.6565 H       1  UNL1        0.0273
     20 H           3.4766   -0.0142    1.4043 H       1  UNL1        0.0434
     21 H           3.5930   -0.8649   -0.1889 H       1  UNL1        0.0434
     22 H           3.8157    0.9016   -0.1317 H       1  UNL1        0.0434
@<TRIPOS>BOND
     1     1     2    1
     2     2     3    1
     3     3     4    1
     4     3     5    1
     5     5     6    1
     6     6     7    2
     7     6     8   am
     8     8     9    1
     9     8    10   am
    10    10    11    2
    11    10     3    1
    12     1    12    1
    13     1    13    1
    14     1    14    1
    15     2    15    1
    16     2    16    1
    17     4    17    1
    18     4    18    1
    19     4    19    1
    20     9    20    1
    21     9    21    1
    22     9    22    1
