@<TRIPOS>MOLECULE
*****
 59 63 0 0 0
SMALL
GASTEIGER

@<TRIPOS>ATOM
      1 C           8.3214    2.6263    0.7040 C.3     1  UNL1        0.0788
      2 O           7.6885    1.6500   -0.0747 O.3     1  UNL1       -0.4951
      3 C           6.3259    1.3698    0.0691 C.ar    1  UNL1        0.1207
      4 C           5.6063    2.0893    1.0122 C.ar    1  UNL1       -0.0194
      5 C           4.2774    1.8660    1.2024 C.ar    1  UNL1       -0.0506
      6 C           3.6272    0.9131    0.4523 C.ar    1  UNL1       -0.0170
      7 C           2.2735    0.6630    0.6235 C.ar    1  UNL1       -0.0448
      8 C           1.5930   -0.2883   -0.1155 C.ar    1  UNL1        0.0012
      9 C           0.1749   -0.5183    0.0965 C.ar    1  UNL1        0.0767
     10 C          -0.4590   -1.6669    0.5043 C.ar    1  UNL1        0.0974
     11 C           0.2732   -2.8970    0.7963 C.ar    1  UNL1        0.0053
     12 C           1.1896   -2.9210    1.8237 C.ar    1  UNL1       -0.0343
     13 C           1.8749   -4.0926    2.0877 C.ar    1  UNL1        0.0282
     14 N           1.6643   -5.2187    1.3571 N.ar    1  UNL1       -0.2632
     15 C           0.7796   -5.2209    0.3542 C.ar    1  UNL1        0.0282
     16 C           0.0971   -4.0660    0.0859 C.ar    1  UNL1       -0.0343
     17 N          -1.7370   -1.3868    0.5520 N.ar    1  UNL1       -0.2269
     18 C          -1.9902   -0.0848    0.1898 C.ar    1  UNL1        0.1419
     19 C          -3.3323    0.4925    0.1373 C.ar    1  UNL1        0.0204
     20 C          -3.6061    1.8141   -0.0488 C.ar    1  UNL1       -0.0497
     21 C          -4.9006    2.3247   -0.1163 C.ar    1  UNL1       -0.0453
     22 C          -5.9622    1.4598    0.0107 C.ar    1  UNL1        0.0388
     23 S          -7.6204    2.0507   -0.0672 S.O     1  UNL1        0.0507
     24 C          -8.2196    2.0214   -1.7610 C.3     1  UNL1        0.0163
     25 O          -8.5650    1.1860    0.7628 O.2     1  UNL1       -0.2524
     26 C          -5.6974    0.1272    0.1990 C.ar    1  UNL1       -0.0424
     27 C          -4.4284   -0.3716    0.2647 C.ar    1  UNL1       -0.0387
     28 C          -4.2525   -1.8143    0.4666 C.3     1  UNL1       -0.0390
     29 N          -0.8061    0.4351   -0.0878 N.ar    1  UNL1       -0.3262
     30 C          -0.5005    1.7829   -0.5433 C.3     1  UNL1        0.0138
     31 C           2.3384   -0.9817   -1.0406 C.ar    1  UNL1       -0.0520
     32 C           3.6841   -0.7671   -1.2448 C.ar    1  UNL1       -0.0533
     33 C           4.3522    0.1989   -0.4872 C.ar    1  UNL1       -0.0144
     34 C           5.6951    0.4135   -0.6906 C.ar    1  UNL1       -0.0122
     35 H           8.1652    2.4654    1.7927 H       1  UNL1        0.0660
     36 H           8.0631    3.6581    0.3924 H       1  UNL1        0.0660
     37 H           9.4264    2.5178    0.5219 H       1  UNL1        0.0660
     38 H           6.0981    2.8528    1.6225 H       1  UNL1        0.0654
     39 H           3.6923    2.4281    1.9463 H       1  UNL1        0.0625
     40 H           1.7743    1.2690    1.3846 H       1  UNL1        0.0630
     41 H           1.4037   -2.0601    2.4425 H       1  UNL1        0.0639
     42 H           2.6054   -4.1768    2.8784 H       1  UNL1        0.0830
     43 H           0.6374   -6.1321   -0.2049 H       1  UNL1        0.0830
     44 H          -0.6218   -4.0826   -0.7354 H       1  UNL1        0.0639
     45 H          -2.8436    2.5564   -0.1410 H       1  UNL1        0.0625
     46 H          -5.0812    3.3798   -0.2654 H       1  UNL1        0.0629
     47 H          -7.7396    2.8642   -2.3136 H       1  UNL1        0.0368
     48 H          -7.9590    1.0782   -2.2777 H       1  UNL1        0.0368
     49 H          -9.3117    2.1619   -1.7394 H       1  UNL1        0.0368
     50 H          -6.5672   -0.5257    0.2954 H       1  UNL1        0.0632
     51 H          -3.6946   -2.3292   -0.3452 H       1  UNL1        0.0278
     52 H          -5.2583   -2.3233    0.4819 H       1  UNL1        0.0278
     53 H          -3.8162   -2.0034    1.4706 H       1  UNL1        0.0278
     54 H          -0.6043    2.5580    0.2078 H       1  UNL1        0.0456
     55 H           0.5709    1.7821   -0.9568 H       1  UNL1        0.0456
     56 H          -1.0893    2.0463   -1.4437 H       1  UNL1        0.0456
     57 H           1.8586   -1.7242   -1.6332 H       1  UNL1        0.0624
     58 H           4.2558   -1.3187   -1.9738 H       1  UNL1        0.0624
     59 H           6.2766   -0.1304   -1.4153 H       1  UNL1        0.0660
@<TRIPOS>BOND
     1     1     2    1
     2     2     3    1
     3     3     4   ar
     4     4     5   ar
     5     5     6   ar
     6     6     7   ar
     7     7     8   ar
     8     8     9    1
     9     9    10   ar
    10    10    11    1
    11    11    12   ar
    12    12    13   ar
    13    13    14   ar
    14    14    15   ar
    15    15    16   ar
    16    10    17   ar
    17    17    18   ar
    18    18    19    1
    19    19    20   ar
    20    20    21   ar
    21    21    22   ar
    22    22    23    1
    23    23    24    1
    24    23    25    2
    25    22    26   ar
    26    26    27   ar
    27    27    28    1
    28    18    29   ar
    29    29    30    1
    30     8    31   ar
    31    31    32   ar
    32    32    33   ar
    33    33    34   ar
    34    34     3   ar
    35    33     6   ar
    36    29     9   ar
    37    16    11   ar
    38    27    19   ar
    39     1    35    1
    40     1    36    1
    41     1    37    1
    42     4    38    1
    43     5    39    1
    44     7    40    1
    45    12    41    1
    46    13    42    1
    47    15    43    1
    48    16    44    1
    49    20    45    1
    50    21    46    1
    51    24    47    1
    52    24    48    1
    53    24    49    1
    54    26    50    1
    55    28    51    1
    56    28    52    1
    57    28    53    1
    58    30    54    1
    59    30    55    1
    60    30    56    1
    61    31    57    1
    62    32    58    1
    63    34    59    1
