@<TRIPOS>MOLECULE
*****
 99 103 0 0 0
SMALL
GASTEIGER

@<TRIPOS>ATOM
      1 C          -3.4709    3.4542   -1.7053 C.3     1  UNL1       -0.0442
      2 C          -2.0980    2.8001   -1.6134 C.3     1  UNL1        0.0262
      3 C          -1.2222    3.6575   -0.7655 C.3     1  UNL1       -0.0442
      4 C          -1.5917    2.6688   -3.0229 C.3     1  UNL1       -0.0442
      5 N          -2.2740    1.4761   -0.9982 N.am    1  UNL1       -0.3093
      6 C          -3.0972    0.5133   -1.5934 C.2     1  UNL1        0.2307
      7 O          -3.6656    0.8428   -2.6769 O.2     1  UNL1       -0.2741
      8 C          -3.3807   -0.8520   -1.0884 C.3     1  UNL1        0.0876
      9 C          -4.8598   -0.7542   -0.6697 C.3     1  UNL1       -0.0257
     10 C          -5.2813   -1.9322    0.1324 C.3     1  UNL1       -0.0352
     11 C          -6.7668   -1.9121    0.3624 C.3     1  UNL1       -0.0499
     12 C          -7.2029   -1.2605    1.6313 C.3     1  UNL1       -0.0528
     13 C          -6.5421   -2.0932    2.7451 C.3     1  UNL1       -0.0527
     14 C          -5.0902   -1.7815    2.6620 C.3     1  UNL1       -0.0488
     15 C          -4.4312   -2.0048    1.3466 C.3     1  UNL1       -0.0253
     16 C          -3.2821   -1.0191    1.2799 C.3     1  UNL1        0.0028
     17 N          -2.5043   -1.1309    0.0401 N.3     1  UNL1       -0.2887
     18 C          -1.9776   -2.4938   -0.0474 C.3     1  UNL1        0.0274
     19 C          -0.8465   -2.7083   -0.9873 C.3     1  UNL1        0.0865
     20 O          -1.2313   -2.2228   -2.2355 O.3     1  UNL1       -0.3887
     21 C           0.4983   -2.3501   -0.5251 C.3     1  UNL1        0.0542
     22 C           1.1099   -3.3521    0.3921 C.3     1  UNL1       -0.0067
     23 C           0.4738   -3.7035    1.6356 C.ar    1  UNL1       -0.0455
     24 C           0.5466   -2.9913    2.8111 C.ar    1  UNL1       -0.0585
     25 C          -0.0402   -3.3996    3.9808 C.ar    1  UNL1       -0.0615
     26 C          -0.7580   -4.5861    4.0397 C.ar    1  UNL1       -0.0617
     27 C          -0.8519   -5.3169    2.8982 C.ar    1  UNL1       -0.0615
     28 C          -0.2615   -4.9005    1.7332 C.ar    1  UNL1       -0.0585
     29 N           0.8103   -0.9896   -0.2773 N.am    1  UNL1       -0.3081
     30 C           2.0678   -0.3818   -0.5573 C.2     1  UNL1        0.2341
     31 O           2.9388   -1.1266   -1.0522 O.2     1  UNL1       -0.2738
     32 C           2.3714    1.0304   -0.2914 C.3     1  UNL1        0.1079
     33 C           1.6079    1.8621   -1.3315 C.3     1  UNL1        0.0506
     34 C           2.0666    1.4957   -2.6943 C.2     1  UNL1        0.2127
     35 N           1.5522    2.2111   -3.8423 N.am    1  UNL1       -0.3293
     36 O           2.8879    0.5971   -2.9705 O.2     1  UNL1       -0.2760
     37 N           3.7567    1.3945   -0.4648 N.am    1  UNL1       -0.2983
     38 C           4.4258    2.0409    0.6362 C.2     1  UNL1        0.2630
     39 O           3.7449    2.2432    1.7001 O.2     1  UNL1       -0.2685
     40 C           5.7953    2.4714    0.6219 C.ar    1  UNL1        0.1260
     41 C           6.3461    3.0644    1.7287 C.ar    1  UNL1       -0.0306
     42 C           7.6748    3.4880    1.7228 C.ar    1  UNL1       -0.0504
     43 C           8.4394    3.3102    0.5983 C.ar    1  UNL1        0.0004
     44 C           9.7694    3.7150    0.5380 C.ar    1  UNL1       -0.0526
     45 C          10.5284    3.5322   -0.5986 C.ar    1  UNL1       -0.0611
     46 C           9.9554    2.9374   -1.6919 C.ar    1  UNL1       -0.0597
     47 C           8.6357    2.5373   -1.6270 C.ar    1  UNL1       -0.0357
     48 C           7.8495    2.7052   -0.5067 C.ar    1  UNL1        0.0718
     49 N           6.5618    2.3096   -0.4608 N.ar    1  UNL1       -0.2421
     50 H          -4.1303    3.1901   -0.8656 H       1  UNL1        0.0250
     51 H          -3.9486    3.1564   -2.6685 H       1  UNL1        0.0250
     52 H          -3.2812    4.5501   -1.7164 H       1  UNL1        0.0250
     53 H          -0.3789    4.1090   -1.3468 H       1  UNL1        0.0250
     54 H          -0.7894    3.0237    0.0406 H       1  UNL1        0.0250
     55 H          -1.8270    4.4532   -0.2892 H       1  UNL1        0.0250
     56 H          -0.9086    3.4925   -3.2754 H       1  UNL1        0.0250
     57 H          -1.0841    1.6831   -3.1251 H       1  UNL1        0.0250
     58 H          -2.4457    2.6944   -3.7510 H       1  UNL1        0.0250
     59 H          -1.7876    1.2518   -0.1211 H       1  UNL1        0.1492
     60 H          -3.3806   -1.6329   -1.8652 H       1  UNL1        0.0559
     61 H          -4.9625    0.1610   -0.0878 H       1  UNL1        0.0288
     62 H          -5.4416   -0.6394   -1.6182 H       1  UNL1        0.0288
     63 H          -5.1227   -2.8358   -0.5374 H       1  UNL1        0.0304
     64 H          -7.1117   -2.9773    0.4218 H       1  UNL1        0.0268
     65 H          -7.2388   -1.4783   -0.5436 H       1  UNL1        0.0268
     66 H          -6.7941   -0.2251    1.6521 H       1  UNL1        0.0265
     67 H          -8.2892   -1.2963    1.7028 H       1  UNL1        0.0265
     68 H          -6.9447   -1.7355    3.6912 H       1  UNL1        0.0265
     69 H          -6.7882   -3.1470    2.5445 H       1  UNL1        0.0265
     70 H          -4.9912   -0.6857    2.9294 H       1  UNL1        0.0268
     71 H          -4.5780   -2.4027    3.4447 H       1  UNL1        0.0268
     72 H          -3.9901   -3.0457    1.3852 H       1  UNL1        0.0316
     73 H          -2.5798   -1.2845    2.1018 H       1  UNL1        0.0430
     74 H          -3.6253    0.0105    1.4017 H       1  UNL1        0.0430
     75 H          -2.8317   -3.1619   -0.2676 H       1  UNL1        0.0453
     76 H          -1.6999   -2.7189    1.0090 H       1  UNL1        0.0453
     77 H          -0.8573   -3.8525   -1.1744 H       1  UNL1        0.0625
     78 H          -0.4953   -1.8203   -2.7406 H       1  UNL1        0.2099
     79 H           1.1714   -2.5491   -1.4854 H       1  UNL1        0.0527
     80 H           1.1456   -4.3128   -0.2294 H       1  UNL1        0.0332
     81 H           2.2337   -3.1775    0.5054 H       1  UNL1        0.0332
     82 H           1.0927   -2.0724    2.7991 H       1  UNL1        0.0620
     83 H           0.0258   -2.8258    4.8966 H       1  UNL1        0.0618
     84 H          -1.2363   -4.9458    4.9389 H       1  UNL1        0.0618
     85 H          -1.4113   -6.2644    2.9017 H       1  UNL1        0.0618
     86 H          -0.3764   -5.5314    0.8633 H       1  UNL1        0.0620
     87 H           0.0815   -0.3832    0.1363 H       1  UNL1        0.1491
     88 H           2.0295    1.3799    0.6835 H       1  UNL1        0.0599
     89 H           0.5592    1.4776   -1.2538 H       1  UNL1        0.0381
     90 H           1.7002    2.9362   -1.1418 H       1  UNL1        0.0381
     91 H           1.3008    1.7634   -4.7379 H       1  UNL1        0.1449
     92 H           1.4379    3.2310   -3.7388 H       1  UNL1        0.1449
     93 H           4.3433    1.2451   -1.2939 H       1  UNL1        0.1498
     94 H           5.8143    3.2405    2.6530 H       1  UNL1        0.0641
     95 H           8.1179    3.9543    2.5841 H       1  UNL1        0.0625
     96 H          10.2223    4.1873    1.4092 H       1  UNL1        0.0624
     97 H          11.5764    3.8520   -0.6444 H       1  UNL1        0.0618
     98 H          10.5570    2.7914   -2.5984 H       1  UNL1        0.0618
     99 H           8.2319    2.0726   -2.5190 H       1  UNL1        0.0639
@<TRIPOS>BOND
     1     1     2    1
     2     2     3    1
     3     2     4    1
     4     2     5    1
     5     5     6   am
     6     6     7    2
     7     6     8    1
     8     8     9    1
     9     9    10    1
    10    10    11    1
    11    11    12    1
    12    12    13    1
    13    13    14    1
    14    14    15    1
    15    15    16    1
    16    16    17    1
    17    17    18    1
    18    18    19    1
    19    19    20    1
    20    19    21    1
    21    21    22    1
    22    22    23    1
    23    23    24   ar
    24    24    25   ar
    25    25    26   ar
    26    26    27   ar
    27    27    28   ar
    28    21    29    1
    29    29    30   am
    30    30    31    2
    31    30    32    1
    32    32    33    1
    33    33    34    1
    34    34    35   am
    35    34    36    2
    36    32    37    1
    37    37    38   am
    38    38    39    2
    39    38    40    1
    40    40    41   ar
    41    41    42   ar
    42    42    43   ar
    43    43    44   ar
    44    44    45   ar
    45    45    46   ar
    46    46    47   ar
    47    47    48   ar
    48    48    49   ar
    49    17     8    1
    50    28    23   ar
    51    49    40   ar
    52    15    10    1
    53    48    43   ar
    54     1    50    1
    55     1    51    1
    56     1    52    1
    57     3    53    1
    58     3    54    1
    59     3    55    1
    60     4    56    1
    61     4    57    1
    62     4    58    1
    63     5    59    1
    64     8    60    1
    65     9    61    1
    66     9    62    1
    67    10    63    1
    68    11    64    1
    69    11    65    1
    70    12    66    1
    71    12    67    1
    72    13    68    1
    73    13    69    1
    74    14    70    1
    75    14    71    1
    76    15    72    1
    77    16    73    1
    78    16    74    1
    79    18    75    1
    80    18    76    1
    81    19    77    1
    82    20    78    1
    83    21    79    1
    84    22    80    1
    85    22    81    1
    86    24    82    1
    87    25    83    1
    88    26    84    1
    89    27    85    1
    90    28    86    1
    91    29    87    1
    92    32    88    1
    93    33    89    1
    94    33    90    1
    95    35    91    1
    96    35    92    1
    97    37    93    1
    98    41    94    1
    99    42    95    1
   100    44    96    1
   101    45    97    1
   102    46    98    1
   103    47    99    1
