
     RDKit          3D

 99103  0  0  0  0  0  0  0  0999 V2000
   -3.4709    3.4542   -1.7053 C   0  0  0  0  0  0  0  0  0  0  0  0
   -2.0980    2.8001   -1.6134 C   0  0  0  0  0  0  0  0  0  0  0  0
   -1.2222    3.6575   -0.7655 C   0  0  0  0  0  0  0  0  0  0  0  0
   -1.5917    2.6688   -3.0229 C   0  0  0  0  0  0  0  0  0  0  0  0
   -2.2740    1.4761   -0.9982 N   0  0  0  0  0  0  0  0  0  0  0  0
   -3.0972    0.5133   -1.5934 C   0  0  0  0  0  0  0  0  0  0  0  0
   -3.6656    0.8428   -2.6769 O   0  0  0  0  0  0  0  0  0  0  0  0
   -3.3807   -0.8520   -1.0884 C   0  0  2  0  0  0  0  0  0  0  0  0
   -4.8598   -0.7542   -0.6697 C   0  0  0  0  0  0  0  0  0  0  0  0
   -5.2813   -1.9322    0.1324 C   0  0  2  0  0  0  0  0  0  0  0  0
   -6.7668   -1.9121    0.3624 C   0  0  0  0  0  0  0  0  0  0  0  0
   -7.2029   -1.2605    1.6313 C   0  0  0  0  0  0  0  0  0  0  0  0
   -6.5421   -2.0932    2.7451 C   0  0  0  0  0  0  0  0  0  0  0  0
   -5.0902   -1.7815    2.6620 C   0  0  0  0  0  0  0  0  0  0  0  0
   -4.4312   -2.0048    1.3466 C   0  0  2  0  0  0  0  0  0  0  0  0
   -3.2821   -1.0191    1.2799 C   0  0  0  0  0  0  0  0  0  0  0  0
   -2.5043   -1.1309    0.0401 N   0  0  0  0  0  0  0  0  0  0  0  0
   -1.9776   -2.4938   -0.0474 C   0  0  0  0  0  0  0  0  0  0  0  0
   -0.8465   -2.7083   -0.9873 C   0  0  1  0  0  0  0  0  0  0  0  0
   -1.2313   -2.2228   -2.2355 O   0  0  0  0  0  0  0  0  0  0  0  0
    0.4983   -2.3501   -0.5251 C   0  0  2  0  0  0  0  0  0  0  0  0
    1.1099   -3.3521    0.3921 C   0  0  0  0  0  0  0  0  0  0  0  0
    0.4738   -3.7035    1.6356 C   0  0  0  0  0  0  0  0  0  0  0  0
    0.5466   -2.9913    2.8111 C   0  0  0  0  0  0  0  0  0  0  0  0
   -0.0402   -3.3996    3.9808 C   0  0  0  0  0  0  0  0  0  0  0  0
   -0.7580   -4.5861    4.0397 C   0  0  0  0  0  0  0  0  0  0  0  0
   -0.8519   -5.3169    2.8982 C   0  0  0  0  0  0  0  0  0  0  0  0
   -0.2615   -4.9005    1.7332 C   0  0  0  0  0  0  0  0  0  0  0  0
    0.8103   -0.9896   -0.2773 N   0  0  0  0  0  0  0  0  0  0  0  0
    2.0678   -0.3818   -0.5573 C   0  0  0  0  0  0  0  0  0  0  0  0
    2.9388   -1.1266   -1.0522 O   0  0  0  0  0  0  0  0  0  0  0  0
    2.3714    1.0304   -0.2914 C   0  0  2  0  0  0  0  0  0  0  0  0
    1.6079    1.8621   -1.3315 C   0  0  0  0  0  0  0  0  0  0  0  0
    2.0666    1.4957   -2.6943 C   0  0  0  0  0  0  0  0  0  0  0  0
    1.5522    2.2111   -3.8423 N   0  0  0  0  0  0  0  0  0  0  0  0
    2.8879    0.5971   -2.9705 O   0  0  0  0  0  0  0  0  0  0  0  0
    3.7567    1.3945   -0.4648 N   0  0  0  0  0  0  0  0  0  0  0  0
    4.4258    2.0409    0.6362 C   0  0  0  0  0  0  0  0  0  0  0  0
    3.7449    2.2432    1.7001 O   0  0  0  0  0  0  0  0  0  0  0  0
    5.7953    2.4714    0.6219 C   0  0  0  0  0  0  0  0  0  0  0  0
    6.3461    3.0644    1.7287 C   0  0  0  0  0  0  0  0  0  0  0  0
    7.6748    3.4880    1.7228 C   0  0  0  0  0  0  0  0  0  0  0  0
    8.4394    3.3102    0.5983 C   0  0  0  0  0  0  0  0  0  0  0  0
    9.7694    3.7150    0.5380 C   0  0  0  0  0  0  0  0  0  0  0  0
   10.5284    3.5322   -0.5986 C   0  0  0  0  0  0  0  0  0  0  0  0
    9.9554    2.9374   -1.6919 C   0  0  0  0  0  0  0  0  0  0  0  0
    8.6357    2.5373   -1.6270 C   0  0  0  0  0  0  0  0  0  0  0  0
    7.8495    2.7052   -0.5067 C   0  0  0  0  0  0  0  0  0  0  0  0
    6.5618    2.3096   -0.4608 N   0  0  0  0  0  0  0  0  0  0  0  0
   -4.1303    3.1901   -0.8656 H   0  0  0  0  0  0  0  0  0  0  0  0
   -3.9486    3.1564   -2.6685 H   0  0  0  0  0  0  0  0  0  0  0  0
   -3.2812    4.5501   -1.7164 H   0  0  0  0  0  0  0  0  0  0  0  0
   -0.3789    4.1090   -1.3468 H   0  0  0  0  0  0  0  0  0  0  0  0
   -0.7894    3.0237    0.0406 H   0  0  0  0  0  0  0  0  0  0  0  0
   -1.8270    4.4532   -0.2892 H   0  0  0  0  0  0  0  0  0  0  0  0
   -0.9086    3.4925   -3.2754 H   0  0  0  0  0  0  0  0  0  0  0  0
   -1.0841    1.6831   -3.1251 H   0  0  0  0  0  0  0  0  0  0  0  0
   -2.4457    2.6944   -3.7510 H   0  0  0  0  0  0  0  0  0  0  0  0
   -1.7876    1.2518   -0.1211 H   0  0  0  0  0  0  0  0  0  0  0  0
   -3.3806   -1.6329   -1.8652 H   0  0  0  0  0  0  0  0  0  0  0  0
   -4.9625    0.1610   -0.0878 H   0  0  0  0  0  0  0  0  0  0  0  0
   -5.4416   -0.6394   -1.6182 H   0  0  0  0  0  0  0  0  0  0  0  0
   -5.1227   -2.8358   -0.5374 H   0  0  0  0  0  0  0  0  0  0  0  0
   -7.1117   -2.9773    0.4218 H   0  0  0  0  0  0  0  0  0  0  0  0
   -7.2388   -1.4783   -0.5436 H   0  0  0  0  0  0  0  0  0  0  0  0
   -6.7941   -0.2251    1.6521 H   0  0  0  0  0  0  0  0  0  0  0  0
   -8.2892   -1.2963    1.7028 H   0  0  0  0  0  0  0  0  0  0  0  0
   -6.9447   -1.7355    3.6912 H   0  0  0  0  0  0  0  0  0  0  0  0
   -6.7882   -3.1470    2.5445 H   0  0  0  0  0  0  0  0  0  0  0  0
   -4.9912   -0.6857    2.9294 H   0  0  0  0  0  0  0  0  0  0  0  0
   -4.5780   -2.4027    3.4447 H   0  0  0  0  0  0  0  0  0  0  0  0
   -3.9901   -3.0457    1.3852 H   0  0  0  0  0  0  0  0  0  0  0  0
   -2.5798   -1.2845    2.1018 H   0  0  0  0  0  0  0  0  0  0  0  0
   -3.6253    0.0105    1.4017 H   0  0  0  0  0  0  0  0  0  0  0  0
   -2.8317   -3.1619   -0.2676 H   0  0  0  0  0  0  0  0  0  0  0  0
   -1.6999   -2.7189    1.0090 H   0  0  0  0  0  0  0  0  0  0  0  0
   -0.8573   -3.8525   -1.1744 H   0  0  0  0  0  0  0  0  0  0  0  0
   -0.4953   -1.8203   -2.7406 H   0  0  0  0  0  0  0  0  0  0  0  0
    1.1714   -2.5491   -1.4854 H   0  0  0  0  0  0  0  0  0  0  0  0
    1.1456   -4.3128   -0.2294 H   0  0  0  0  0  0  0  0  0  0  0  0
    2.2337   -3.1775    0.5054 H   0  0  0  0  0  0  0  0  0  0  0  0
    1.0927   -2.0724    2.7991 H   0  0  0  0  0  0  0  0  0  0  0  0
    0.0258   -2.8258    4.8966 H   0  0  0  0  0  0  0  0  0  0  0  0
   -1.2363   -4.9458    4.9389 H   0  0  0  0  0  0  0  0  0  0  0  0
   -1.4113   -6.2644    2.9017 H   0  0  0  0  0  0  0  0  0  0  0  0
   -0.3764   -5.5314    0.8633 H   0  0  0  0  0  0  0  0  0  0  0  0
    0.0815   -0.3832    0.1363 H   0  0  0  0  0  0  0  0  0  0  0  0
    2.0295    1.3799    0.6835 H   0  0  0  0  0  0  0  0  0  0  0  0
    0.5592    1.4776   -1.2538 H   0  0  0  0  0  0  0  0  0  0  0  0
    1.7002    2.9362   -1.1418 H   0  0  0  0  0  0  0  0  0  0  0  0
    1.3008    1.7634   -4.7379 H   0  0  0  0  0  0  0  0  0  0  0  0
    1.4379    3.2310   -3.7388 H   0  0  0  0  0  0  0  0  0  0  0  0
    4.3433    1.2451   -1.2939 H   0  0  0  0  0  0  0  0  0  0  0  0
    5.8143    3.2405    2.6530 H   0  0  0  0  0  0  0  0  0  0  0  0
    8.1179    3.9543    2.5841 H   0  0  0  0  0  0  0  0  0  0  0  0
   10.2223    4.1873    1.4092 H   0  0  0  0  0  0  0  0  0  0  0  0
   11.5764    3.8520   -0.6444 H   0  0  0  0  0  0  0  0  0  0  0  0
   10.5570    2.7914   -2.5984 H   0  0  0  0  0  0  0  0  0  0  0  0
    8.2319    2.0726   -2.5190 H   0  0  0  0  0  0  0  0  0  0  0  0
  1  2  1  0
  2  3  1  0
  2  4  1  0
  2  5  1  0
  5  6  1  0
  6  7  2  0
  6  8  1  0
  8  9  1  0
  9 10  1  0
 10 11  1  0
 11 12  1  0
 12 13  1  0
 13 14  1  0
 14 15  1  0
 15 16  1  0
 16 17  1  0
 17 18  1  0
 18 19  1  0
 19 20  1  0
 19 21  1  0
 21 22  1  0
 22 23  1  0
 23 24  2  0
 24 25  1  0
 25 26  2  0
 26 27  1  0
 27 28  2  0
 21 29  1  0
 29 30  1  0
 30 31  2  0
 30 32  1  0
 32 33  1  0
 33 34  1  0
 34 35  1  0
 34 36  2  0
 32 37  1  0
 37 38  1  0
 38 39  2  0
 38 40  1  0
 40 41  2  0
 41 42  1  0
 42 43  2  0
 43 44  1  0
 44 45  2  0
 45 46  1  0
 46 47  2  0
 47 48  1  0
 48 49  2  0
 17  8  1  0
 28 23  1  0
 49 40  1  0
 15 10  1  0
 48 43  1  0
  1 50  1  0
  1 51  1  0
  1 52  1  0
  3 53  1  0
  3 54  1  0
  3 55  1  0
  4 56  1  0
  4 57  1  0
  4 58  1  0
  5 59  1  0
  8 60  1  6
  9 61  1  0
  9 62  1  0
 10 63  1  6
 11 64  1  0
 11 65  1  0
 12 66  1  0
 12 67  1  0
 13 68  1  0
 13 69  1  0
 14 70  1  0
 14 71  1  0
 15 72  1  1
 16 73  1  0
 16 74  1  0
 18 75  1  0
 18 76  1  0
 19 77  1  6
 20 78  1  0
 21 79  1  6
 22 80  1  0
 22 81  1  0
 24 82  1  0
 25 83  1  0
 26 84  1  0
 27 85  1  0
 28 86  1  0
 29 87  1  0
 32 88  1  1
 33 89  1  0
 33 90  1  0
 35 91  1  0
 35 92  1  0
 37 93  1  0
 41 94  1  0
 42 95  1  0
 44 96  1  0
 45 97  1  0
 46 98  1  0
 47 99  1  0
M  END
$$$$
