@<TRIPOS>MOLECULE
*****
 34 35 0 0 0
SMALL
GASTEIGER

@<TRIPOS>ATOM
      1 N          -5.4078   -1.7540    2.1494 N.3     1  UNL1       -0.2035
      2 S          -5.2878   -1.2483    0.5287 S.O2    1  UNL1        0.0559
      3 O          -6.1461   -0.0401    0.2292 O.2     1  UNL1       -0.1533
      4 O          -5.7916   -2.3695   -0.3705 O.2     1  UNL1       -0.1533
      5 C          -3.6594   -0.8158    0.0442 C.ar    1  UNL1        0.1050
      6 C          -2.8541   -1.7901   -0.5125 C.ar    1  UNL1       -0.0346
      7 C          -1.5428   -1.4879   -0.9105 C.ar    1  UNL1       -0.0478
      8 C          -1.0862   -0.2020   -0.7318 C.ar    1  UNL1        0.0368
      9 C          -1.9277    0.7299   -0.1739 C.ar    1  UNL1       -0.0478
     10 C          -3.2224    0.5034    0.2388 C.ar    1  UNL1       -0.0346
     11 C           0.2769    0.0198   -1.1676 C.2     1  UNL1        0.2443
     12 O           0.9141   -0.9206   -1.6934 O.2     1  UNL1       -0.2702
     13 N           0.9931    1.2250   -1.0594 N.am    1  UNL1       -0.3071
     14 C           2.2750    1.8053   -1.3483 C.3     1  UNL1        0.0399
     15 C           3.3242    1.1013   -0.5738 C.ar    1  UNL1        0.0048
     16 C           3.5673    1.7669    0.6365 C.ar    1  UNL1       -0.0543
     17 C           4.4925    1.2598    1.5563 C.ar    1  UNL1       -0.0613
     18 C           5.2023    0.1047    1.3323 C.ar    1  UNL1       -0.0590
     19 C           4.9190   -0.4964    0.1321 C.ar    1  UNL1       -0.0261
     20 C           4.0211   -0.0366   -0.8008 C.ar    1  UNL1        0.1281
     21 F           3.8020   -0.6433   -1.9764 F       1  UNL1       -0.2051
     22 H          -6.3437   -1.4765    2.5196 H       1  UNL1        0.1442
     23 H          -5.1910   -2.7667    2.2168 H       1  UNL1        0.1442
     24 H          -3.2495   -2.7741   -0.6313 H       1  UNL1        0.0637
     25 H          -0.9891   -2.3000   -1.3303 H       1  UNL1        0.0626
     26 H          -1.5601    1.7316   -0.0392 H       1  UNL1        0.0626
     27 H          -3.8327    1.2746    0.6684 H       1  UNL1        0.0637
     28 H           0.3656    1.9411   -0.6095 H       1  UNL1        0.1493
     29 H           2.5062    1.6171   -2.4546 H       1  UNL1        0.0513
     30 H           2.2974    2.8947   -1.2176 H       1  UNL1        0.0513
     31 H           3.1034    2.6824    0.9813 H       1  UNL1        0.0622
     32 H           4.6932    1.7744    2.5096 H       1  UNL1        0.0618
     33 H           5.9209   -0.3061    2.0250 H       1  UNL1        0.0618
     34 H           5.4179   -1.4264   -0.1670 H       1  UNL1        0.0646
@<TRIPOS>BOND
     1     1     2    1
     2     2     3    2
     3     2     4    2
     4     2     5    1
     5     5     6   ar
     6     6     7   ar
     7     7     8   ar
     8     8     9   ar
     9     9    10   ar
    10     8    11    1
    11    11    12    2
    12    11    13   am
    13    13    14    1
    14    14    15    1
    15    15    16   ar
    16    16    17   ar
    17    17    18   ar
    18    18    19   ar
    19    19    20   ar
    20    20    21    1
    21    10     5   ar
    22    20    15   ar
    23     1    22    1
    24     1    23    1
    25     6    24    1
    26     7    25    1
    27     9    26    1
    28    10    27    1
    29    13    28    1
    30    14    29    1
    31    14    30    1
    32    16    31    1
    33    17    32    1
    34    18    33    1
    35    19    34    1
