
     RDKit          3D

 34 35  0  0  0  0  0  0  0  0999 V2000
   -5.4078   -1.7540    2.1494 N   0  0  0  0  0  0  0  0  0  0  0  0
   -5.2878   -1.2483    0.5287 S   0  0  0  0  0  0  0  0  0  0  0  0
   -6.1461   -0.0401    0.2292 O   0  0  0  0  0  0  0  0  0  0  0  0
   -5.7916   -2.3695   -0.3705 O   0  0  0  0  0  0  0  0  0  0  0  0
   -3.6594   -0.8158    0.0442 C   0  0  0  0  0  0  0  0  0  0  0  0
   -2.8541   -1.7901   -0.5125 C   0  0  0  0  0  0  0  0  0  0  0  0
   -1.5428   -1.4879   -0.9105 C   0  0  0  0  0  0  0  0  0  0  0  0
   -1.0862   -0.2020   -0.7318 C   0  0  0  0  0  0  0  0  0  0  0  0
   -1.9277    0.7299   -0.1739 C   0  0  0  0  0  0  0  0  0  0  0  0
   -3.2224    0.5034    0.2388 C   0  0  0  0  0  0  0  0  0  0  0  0
    0.2769    0.0198   -1.1676 C   0  0  0  0  0  0  0  0  0  0  0  0
    0.9141   -0.9206   -1.6934 O   0  0  0  0  0  0  0  0  0  0  0  0
    0.9931    1.2250   -1.0594 N   0  0  0  0  0  0  0  0  0  0  0  0
    2.2750    1.8053   -1.3483 C   0  0  0  0  0  0  0  0  0  0  0  0
    3.3242    1.1013   -0.5738 C   0  0  0  0  0  0  0  0  0  0  0  0
    3.5673    1.7669    0.6365 C   0  0  0  0  0  0  0  0  0  0  0  0
    4.4925    1.2598    1.5563 C   0  0  0  0  0  0  0  0  0  0  0  0
    5.2023    0.1047    1.3323 C   0  0  0  0  0  0  0  0  0  0  0  0
    4.9190   -0.4964    0.1321 C   0  0  0  0  0  0  0  0  0  0  0  0
    4.0211   -0.0366   -0.8008 C   0  0  0  0  0  0  0  0  0  0  0  0
    3.8020   -0.6433   -1.9764 F   0  0  0  0  0  0  0  0  0  0  0  0
   -6.3437   -1.4765    2.5196 H   0  0  0  0  0  0  0  0  0  0  0  0
   -5.1910   -2.7667    2.2168 H   0  0  0  0  0  0  0  0  0  0  0  0
   -3.2495   -2.7741   -0.6313 H   0  0  0  0  0  0  0  0  0  0  0  0
   -0.9891   -2.3000   -1.3303 H   0  0  0  0  0  0  0  0  0  0  0  0
   -1.5601    1.7316   -0.0392 H   0  0  0  0  0  0  0  0  0  0  0  0
   -3.8327    1.2746    0.6684 H   0  0  0  0  0  0  0  0  0  0  0  0
    0.3656    1.9411   -0.6095 H   0  0  0  0  0  0  0  0  0  0  0  0
    2.5062    1.6171   -2.4546 H   0  0  0  0  0  0  0  0  0  0  0  0
    2.2974    2.8947   -1.2176 H   0  0  0  0  0  0  0  0  0  0  0  0
    3.1034    2.6824    0.9813 H   0  0  0  0  0  0  0  0  0  0  0  0
    4.6932    1.7744    2.5096 H   0  0  0  0  0  0  0  0  0  0  0  0
    5.9209   -0.3061    2.0250 H   0  0  0  0  0  0  0  0  0  0  0  0
    5.4179   -1.4264   -0.1670 H   0  0  0  0  0  0  0  0  0  0  0  0
  1  2  1  0
  2  3  2  0
  2  4  2  0
  2  5  1  0
  5  6  2  0
  6  7  1  0
  7  8  2  0
  8  9  1  0
  9 10  2  0
  8 11  1  0
 11 12  2  0
 11 13  1  0
 13 14  1  0
 14 15  1  0
 15 16  2  0
 16 17  1  0
 17 18  2  0
 18 19  1  0
 19 20  2  0
 20 21  1  0
 10  5  1  0
 20 15  1  0
  1 22  1  0
  1 23  1  0
  6 24  1  0
  7 25  1  0
  9 26  1  0
 10 27  1  0
 13 28  1  0
 14 29  1  0
 14 30  1  0
 16 31  1  0
 17 32  1  0
 18 33  1  0
 19 34  1  0
M  END
$$$$
