@<TRIPOS>MOLECULE
*****
 45 46 0 0 0
SMALL
GASTEIGER

@<TRIPOS>ATOM
      1 C           1.0454   -1.1217    0.1631 C.3     1  UNL1        0.1514
      2 O           1.8119   -2.2662   -0.0484 O.3     1  UNL1       -0.3714
      3 N           1.5126   -0.0880   -0.6969 N.pl3   1  UNL1       -0.3169
      4 C           2.8611    0.3459   -0.5701 C.ar    1  UNL1        0.0296
      5 C           3.7582   -0.1718    0.3409 C.ar    1  UNL1       -0.0279
      6 C           5.0610    0.2705    0.4393 C.ar    1  UNL1        0.0738
      7 C           5.5290    1.2693   -0.3867 C.ar    1  UNL1        0.0635
      8 C           4.6753    1.8272   -1.3206 C.ar    1  UNL1       -0.0421
      9 C           3.3797    1.3571   -1.3874 C.ar    1  UNL1       -0.0396
     10 C           6.8844    1.7288   -0.2837 C.1     1  UNL1        0.0997
     11 N           7.9827    2.0907   -0.1916 N.1     1  UNL1       -0.1909
     12 C           6.0226   -0.2929    1.4243 C.3     1  UNL1        0.4187
     13 F           6.4534    0.7344    2.2626 F       1  UNL1       -0.1659
     14 F           7.0657   -0.9393    0.8113 F       1  UNL1       -0.1659
     15 F           5.3825   -1.2104    2.2579 F       1  UNL1       -0.1659
     16 C          -0.4041   -1.4707   -0.0347 C.3     1  UNL1        0.1390
     17 C          -0.6615   -2.0771   -1.3978 C.3     1  UNL1       -0.0288
     18 O          -0.6733   -2.4979    0.8939 O.3     1  UNL1       -0.3812
     19 C          -1.3360   -0.3433    0.2581 C.3     1  UNL1        0.1220
     20 O          -2.6544   -0.8452    0.1123 O.3     1  UNL1       -0.4890
     21 C          -3.8017   -0.1221    0.2952 C.ar    1  UNL1        0.1211
     22 C          -4.9871   -0.8088    0.1013 C.ar    1  UNL1       -0.0135
     23 C          -6.2046   -0.1717    0.2606 C.ar    1  UNL1        0.0190
     24 C          -6.1559    1.1593    0.6165 C.ar    1  UNL1        0.2734
     25 C          -5.0248    1.9181    0.8292 C.ar    1  UNL1        0.0190
     26 C          -3.8253    1.2223    0.6540 C.ar    1  UNL1       -0.0135
     27 N          -7.4114    1.8079    0.7786 N.pl3   1  UNL1        0.0796
     28 O          -7.5806    3.1257    1.1287 O.co2   1  UNL1       -0.5760
     29 O          -8.5136    1.2539    0.6211 O.2     1  UNL1        0.0414
     30 H           1.2092   -0.8348    1.2129 H       1  UNL1        0.0835
     31 H           1.7275   -2.5055   -1.0006 H       1  UNL1        0.2119
     32 H           0.9258    0.3599   -1.4036 H       1  UNL1        0.1486
     33 H           3.4313   -0.9567    1.0077 H       1  UNL1        0.0642
     34 H           5.0040    2.6137   -1.9879 H       1  UNL1        0.0631
     35 H           2.7361    1.8149   -2.1295 H       1  UNL1        0.0636
     36 H          -1.7692   -2.1580   -1.5082 H       1  UNL1        0.0260
     37 H          -0.3296   -1.3906   -2.2124 H       1  UNL1        0.0260
     38 H          -0.2428   -3.1009   -1.4817 H       1  UNL1        0.0260
     39 H          -0.3862   -2.1632    1.7978 H       1  UNL1        0.2105
     40 H          -1.2457    0.5105   -0.4155 H       1  UNL1        0.0727
     41 H          -1.1441   -0.0274    1.3160 H       1  UNL1        0.0727
     42 H          -4.9988   -1.8514   -0.1772 H       1  UNL1        0.0656
     43 H          -7.1464   -0.6797    0.1167 H       1  UNL1        0.0686
     44 H          -5.0751    2.9465    1.1033 H       1  UNL1        0.0686
     45 H          -2.8873    1.7387    0.8003 H       1  UNL1        0.0656
@<TRIPOS>UNITY_ATOM_ATTR
27 1
charge 1
28 1
charge -1
@<TRIPOS>BOND
     1     1     2    1
     2     1     3    1
     3     3     4    1
     4     4     5   ar
     5     5     6   ar
     6     6     7   ar
     7     7     8   ar
     8     8     9   ar
     9     7    10    1
    10    10    11    3
    11     6    12    1
    12    12    13    1
    13    12    14    1
    14    12    15    1
    15     1    16    1
    16    16    17    1
    17    16    18    1
    18    16    19    1
    19    19    20    1
    20    20    21    1
    21    21    22   ar
    22    22    23   ar
    23    23    24   ar
    24    24    25   ar
    25    25    26   ar
    26    24    27    1
    27    27    28    1
    28    27    29    2
    29     9     4   ar
    30    26    21   ar
    31     1    30    1
    32     2    31    1
    33     3    32    1
    34     5    33    1
    35     8    34    1
    36     9    35    1
    37    17    36    1
    38    17    37    1
    39    17    38    1
    40    18    39    1
    41    19    40    1
    42    19    41    1
    43    22    42    1
    44    23    43    1
    45    25    44    1
    46    26    45    1
