
     RDKit          3D

 70 72  0  0  0  0  0  0  0  0999 V2000
    9.0426   -4.1166   -1.0963 C   0  0  0  0  0  0  0  0  0  0  0  0
    7.8134   -4.4878   -1.3337 C   0  0  0  0  0  0  0  0  0  0  0  0
    6.7515   -3.5108   -1.4273 C   0  0  0  0  0  0  0  0  0  0  0  0
    7.0465   -2.2791   -1.2724 O   0  0  0  0  0  0  0  0  0  0  0  0
    5.4063   -3.8354   -1.6798 N   0  0  0  0  0  0  0  0  0  0  0  0
    4.3646   -2.8499   -1.7651 C   0  0  0  0  0  0  0  0  0  0  0  0
    4.2145   -2.0923   -0.4935 C   0  0  0  0  0  0  0  0  0  0  0  0
    3.1224   -1.0519   -0.5430 C   0  0  0  0  0  0  0  0  0  0  0  0
    1.7700   -1.6387   -0.8232 C   0  0  0  0  0  0  0  0  0  0  0  0
    0.7889   -0.4416   -0.8361 C   0  0  2  0  0  0  0  0  0  0  0  0
    0.8963    0.1355    0.4660 N   0  0  0  0  0  0  0  0  0  0  0  0
    1.3937    1.4645    0.6846 C   0  0  0  0  0  0  0  0  0  0  0  0
    1.7402    2.1252   -0.3113 O   0  0  0  0  0  0  0  0  0  0  0  0
    1.5019    2.0303    1.9295 O   0  0  0  0  0  0  0  0  0  0  0  0
    1.9616    3.2936    2.2708 C   0  0  0  0  0  0  0  0  0  0  0  0
    1.1938    4.3892    1.6820 C   0  0  0  0  0  0  0  0  0  0  0  0
    1.6025    4.9672    0.5101 C   0  0  0  0  0  0  0  0  0  0  0  0
    0.8045    6.0017    0.0067 C   0  0  0  0  0  0  0  0  0  0  0  0
   -0.3402    6.4317    0.6454 C   0  0  0  0  0  0  0  0  0  0  0  0
   -0.7286    5.8369    1.8186 C   0  0  0  0  0  0  0  0  0  0  0  0
    0.0370    4.8158    2.3382 C   0  0  0  0  0  0  0  0  0  0  0  0
   -0.5032   -0.8196   -1.3456 C   0  0  0  0  0  0  0  0  0  0  0  0
   -0.4675   -1.3390   -2.5396 O   0  0  0  0  0  0  0  0  0  0  0  0
   -1.7395   -0.6844   -0.7056 N   0  0  0  0  0  0  0  0  0  0  0  0
   -1.9277   -0.1557    0.6037 C   0  0  0  0  0  0  0  0  0  0  0  0
   -3.3950    0.1823    0.8885 C   0  0  0  0  0  0  0  0  0  0  0  0
   -4.2434   -1.0522    0.7285 C   0  0  0  0  0  0  0  0  0  0  0  0
   -5.6461   -0.6756    0.5972 C   0  0  0  0  0  0  0  0  0  0  0  0
   -6.0739    0.2906   -0.2732 C   0  0  0  0  0  0  0  0  0  0  0  0
   -7.4248    0.6287   -0.3848 C   0  0  0  0  0  0  0  0  0  0  0  0
   -8.3549   -0.0163    0.3918 C   0  0  0  0  0  0  0  0  0  0  0  0
   -7.9451   -0.9899    1.2726 C   0  0  0  0  0  0  0  0  0  0  0  0
   -6.6142   -1.3128    1.3725 C   0  0  0  0  0  0  0  0  0  0  0  0
   -3.8169   -1.8595   -0.4731 C   0  0  0  0  0  0  0  0  0  0  0  0
   -2.9722   -1.0939   -1.4253 C   0  0  0  0  0  0  0  0  0  0  0  0
    9.2555   -3.0562   -0.9696 H   0  0  0  0  0  0  0  0  0  0  0  0
    9.8314   -4.8602   -1.0282 H   0  0  0  0  0  0  0  0  0  0  0  0
    7.5820   -5.5289   -1.4617 H   0  0  0  0  0  0  0  0  0  0  0  0
    5.1474   -4.8405   -1.8125 H   0  0  0  0  0  0  0  0  0  0  0  0
    4.6757   -2.1482   -2.5951 H   0  0  0  0  0  0  0  0  0  0  0  0
    3.4149   -3.2906   -2.1274 H   0  0  0  0  0  0  0  0  0  0  0  0
    4.0003   -2.7719    0.3604 H   0  0  0  0  0  0  0  0  0  0  0  0
    5.1416   -1.5467   -0.2371 H   0  0  0  0  0  0  0  0  0  0  0  0
    3.4099   -0.2826   -1.2849 H   0  0  0  0  0  0  0  0  0  0  0  0
    3.1012   -0.5509    0.4468 H   0  0  0  0  0  0  0  0  0  0  0  0
    1.4482   -2.2632    0.0344 H   0  0  0  0  0  0  0  0  0  0  0  0
    1.7097   -2.2234   -1.7361 H   0  0  0  0  0  0  0  0  0  0  0  0
    1.2747    0.2801   -1.5856 H   0  0  0  0  0  0  0  0  0  0  0  0
    0.6384   -0.4006    1.2978 H   0  0  0  0  0  0  0  0  0  0  0  0
    3.0212    3.4013    1.9348 H   0  0  0  0  0  0  0  0  0  0  0  0
    1.9651    3.3388    3.3941 H   0  0  0  0  0  0  0  0  0  0  0  0
    2.4862    4.6997   -0.0488 H   0  0  0  0  0  0  0  0  0  0  0  0
    1.1300    6.4619   -0.9277 H   0  0  0  0  0  0  0  0  0  0  0  0
   -0.9438    7.2365    0.2358 H   0  0  0  0  0  0  0  0  0  0  0  0
   -1.6115    6.1290    2.3627 H   0  0  0  0  0  0  0  0  0  0  0  0
   -0.2524    4.3310    3.2661 H   0  0  0  0  0  0  0  0  0  0  0  0
   -1.5700   -0.8648    1.4086 H   0  0  0  0  0  0  0  0  0  0  0  0
   -1.3594    0.7724    0.7173 H   0  0  0  0  0  0  0  0  0  0  0  0
   -3.7192    1.0161    0.2682 H   0  0  0  0  0  0  0  0  0  0  0  0
   -3.4385    0.4843    1.9479 H   0  0  0  0  0  0  0  0  0  0  0  0
   -4.1169   -1.7206    1.6296 H   0  0  0  0  0  0  0  0  0  0  0  0
   -5.3675    0.8362   -0.9111 H   0  0  0  0  0  0  0  0  0  0  0  0
   -7.6901    1.3989   -1.0910 H   0  0  0  0  0  0  0  0  0  0  0  0
   -9.4276    0.2271    0.3280 H   0  0  0  0  0  0  0  0  0  0  0  0
   -8.6507   -1.5330    1.9139 H   0  0  0  0  0  0  0  0  0  0  0  0
   -6.2718   -2.0674    2.0513 H   0  0  0  0  0  0  0  0  0  0  0  0
   -4.7057   -2.2463   -1.0328 H   0  0  0  0  0  0  0  0  0  0  0  0
   -3.2543   -2.7650   -0.1625 H   0  0  0  0  0  0  0  0  0  0  0  0
   -3.4431   -0.1780   -1.8028 H   0  0  0  0  0  0  0  0  0  0  0  0
   -2.6700   -1.7644   -2.2607 H   0  0  0  0  0  0  0  0  0  0  0  0
  1  2  2  3
  2  3  1  0
  3  4  2  0
  3  5  1  0
  5  6  1  0
  6  7  1  0
  7  8  1  0
  8  9  1  0
  9 10  1  0
 10 11  1  0
 11 12  1  0
 12 13  2  0
 12 14  1  0
 14 15  1  0
 15 16  1  0
 16 17  2  0
 17 18  1  0
 18 19  2  0
 19 20  1  0
 20 21  2  0
 10 22  1  0
 22 23  2  0
 22 24  1  0
 24 25  1  0
 25 26  1  0
 26 27  1  0
 27 28  1  0
 28 29  2  0
 29 30  1  0
 30 31  2  0
 31 32  1  0
 32 33  2  0
 27 34  1  0
 34 35  1  0
 21 16  1  0
 35 24  1  0
 33 28  1  0
  1 36  1  0
  1 37  1  0
  2 38  1  0
  5 39  1  0
  6 40  1  0
  6 41  1  0
  7 42  1  0
  7 43  1  0
  8 44  1  0
  8 45  1  0
  9 46  1  0
  9 47  1  0
 10 48  1  6
 11 49  1  0
 15 50  1  0
 15 51  1  0
 17 52  1  0
 18 53  1  0
 19 54  1  0
 20 55  1  0
 21 56  1  0
 25 57  1  0
 25 58  1  0
 26 59  1  0
 26 60  1  0
 27 61  1  0
 29 62  1  0
 30 63  1  0
 31 64  1  0
 32 65  1  0
 33 66  1  0
 34 67  1  0
 34 68  1  0
 35 69  1  0
 35 70  1  0
M  END
$$$$
