@<TRIPOS>MOLECULE
*****
 70 72 0 0 0
SMALL
GASTEIGER

@<TRIPOS>ATOM
      1 C           9.0426   -4.1166   -1.0963 C.2     1  UNL1       -0.0938
      2 C           7.8134   -4.4878   -1.3337 C.2     1  UNL1       -0.0070
      3 C           6.7515   -3.5108   -1.4273 C.2     1  UNL1        0.2363
      4 O           7.0465   -2.2791   -1.2724 O.2     1  UNL1       -0.2709
      5 N           5.4063   -3.8354   -1.6798 N.am    1  UNL1       -0.3118
      6 C           4.3646   -2.8499   -1.7651 C.3     1  UNL1        0.0119
      7 C           4.2145   -2.0923   -0.4935 C.3     1  UNL1       -0.0373
      8 C           3.1224   -1.0519   -0.5430 C.3     1  UNL1       -0.0495
      9 C           1.7700   -1.6387   -0.8232 C.3     1  UNL1       -0.0258
     10 C           0.7889   -0.4416   -0.8361 C.3     1  UNL1        0.1027
     11 N           0.8963    0.1355    0.4660 N.am    1  UNL1       -0.2698
     12 C           1.3937    1.4645    0.6846 C.2     1  UNL1        0.4012
     13 O           1.7402    2.1252   -0.3113 O.2     1  UNL1       -0.2265
     14 O           1.5019    2.0303    1.9295 O.3     1  UNL1       -0.4456
     15 C           1.9616    3.2936    2.2708 C.3     1  UNL1        0.1191
     16 C           1.1938    4.3892    1.6820 C.ar    1  UNL1       -0.0103
     17 C           1.6025    4.9672    0.5101 C.ar    1  UNL1       -0.0554
     18 C           0.8045    6.0017    0.0067 C.ar    1  UNL1       -0.0614
     19 C          -0.3402    6.4317    0.6454 C.ar    1  UNL1       -0.0617
     20 C          -0.7286    5.8369    1.8186 C.ar    1  UNL1       -0.0614
     21 C           0.0370    4.8158    2.3382 C.ar    1  UNL1       -0.0554
     22 C          -0.5032   -0.8196   -1.3456 C.2     1  UNL1        0.2360
     23 O          -0.4675   -1.3390   -2.5396 O.2     1  UNL1       -0.2736
     24 N          -1.7395   -0.6844   -0.7056 N.am    1  UNL1       -0.2999
     25 C          -1.9277   -0.1557    0.6037 C.3     1  UNL1        0.0153
     26 C          -3.3950    0.1823    0.8885 C.3     1  UNL1       -0.0303
     27 C          -4.2434   -1.0522    0.7285 C.3     1  UNL1       -0.0130
     28 C          -5.6461   -0.6756    0.5972 C.ar    1  UNL1       -0.0442
     29 C          -6.0739    0.2906   -0.2732 C.ar    1  UNL1       -0.0583
     30 C          -7.4248    0.6287   -0.3848 C.ar    1  UNL1       -0.0615
     31 C          -8.3549   -0.0163    0.3918 C.ar    1  UNL1       -0.0617
     32 C          -7.9451   -0.9899    1.2726 C.ar    1  UNL1       -0.0615
     33 C          -6.6142   -1.3128    1.3725 C.ar    1  UNL1       -0.0583
     34 C          -3.8169   -1.8595   -0.4731 C.3     1  UNL1       -0.0303
     35 C          -2.9722   -1.0939   -1.4253 C.3     1  UNL1        0.0153
     36 H           9.2555   -3.0562   -0.9696 H       1  UNL1        0.0536
     37 H           9.8314   -4.8602   -1.0282 H       1  UNL1        0.0536
     38 H           7.5820   -5.5289   -1.4617 H       1  UNL1        0.0663
     39 H           5.1474   -4.8405   -1.8125 H       1  UNL1        0.1490
     40 H           4.6757   -2.1482   -2.5951 H       1  UNL1        0.0462
     41 H           3.4149   -3.2906   -2.1274 H       1  UNL1        0.0462
     42 H           4.0003   -2.7719    0.3604 H       1  UNL1        0.0280
     43 H           5.1416   -1.5467   -0.2371 H       1  UNL1        0.0280
     44 H           3.4099   -0.2826   -1.2849 H       1  UNL1        0.0266
     45 H           3.1012   -0.5509    0.4468 H       1  UNL1        0.0266
     46 H           1.4482   -2.2632    0.0344 H       1  UNL1        0.0288
     47 H           1.7097   -2.2234   -1.7361 H       1  UNL1        0.0288
     48 H           1.2747    0.2801   -1.5856 H       1  UNL1        0.0596
     49 H           0.6384   -0.4006    1.2978 H       1  UNL1        0.1528
     50 H           3.0212    3.4013    1.9348 H       1  UNL1        0.0749
     51 H           1.9651    3.3388    3.3941 H       1  UNL1        0.0749
     52 H           2.4862    4.6997   -0.0488 H       1  UNL1        0.0621
     53 H           1.1300    6.4619   -0.9277 H       1  UNL1        0.0618
     54 H          -0.9438    7.2365    0.2358 H       1  UNL1        0.0618
     55 H          -1.6115    6.1290    2.3627 H       1  UNL1        0.0618
     56 H          -0.2524    4.3310    3.2661 H       1  UNL1        0.0621
     57 H          -1.5700   -0.8648    1.4086 H       1  UNL1        0.0465
     58 H          -1.3594    0.7724    0.7173 H       1  UNL1        0.0465
     59 H          -3.7192    1.0161    0.2682 H       1  UNL1        0.0286
     60 H          -3.4385    0.4843    1.9479 H       1  UNL1        0.0286
     61 H          -4.1169   -1.7206    1.6296 H       1  UNL1        0.0350
     62 H          -5.3675    0.8362   -0.9111 H       1  UNL1        0.0620
     63 H          -7.6901    1.3989   -1.0910 H       1  UNL1        0.0618
     64 H          -9.4276    0.2271    0.3280 H       1  UNL1        0.0618
     65 H          -8.6507   -1.5330    1.9139 H       1  UNL1        0.0618
     66 H          -6.2718   -2.0674    2.0513 H       1  UNL1        0.0620
     67 H          -4.7057   -2.2463   -1.0328 H       1  UNL1        0.0286
     68 H          -3.2543   -2.7650   -0.1625 H       1  UNL1        0.0286
     69 H          -3.4431   -0.1780   -1.8028 H       1  UNL1        0.0465
     70 H          -2.6700   -1.7644   -2.2607 H       1  UNL1        0.0465
@<TRIPOS>BOND
     1     1     2    2
     2     2     3    1
     3     3     4    2
     4     3     5   am
     5     5     6    1
     6     6     7    1
     7     7     8    1
     8     8     9    1
     9     9    10    1
    10    10    11    1
    11    11    12   am
    12    12    13    2
    13    12    14    1
    14    14    15    1
    15    15    16    1
    16    16    17   ar
    17    17    18   ar
    18    18    19   ar
    19    19    20   ar
    20    20    21   ar
    21    10    22    1
    22    22    23    2
    23    22    24   am
    24    24    25    1
    25    25    26    1
    26    26    27    1
    27    27    28    1
    28    28    29   ar
    29    29    30   ar
    30    30    31   ar
    31    31    32   ar
    32    32    33   ar
    33    27    34    1
    34    34    35    1
    35    21    16   ar
    36    35    24    1
    37    33    28   ar
    38     1    36    1
    39     1    37    1
    40     2    38    1
    41     5    39    1
    42     6    40    1
    43     6    41    1
    44     7    42    1
    45     7    43    1
    46     8    44    1
    47     8    45    1
    48     9    46    1
    49     9    47    1
    50    10    48    1
    51    11    49    1
    52    15    50    1
    53    15    51    1
    54    17    52    1
    55    18    53    1
    56    19    54    1
    57    20    55    1
    58    21    56    1
    59    25    57    1
    60    25    58    1
    61    26    59    1
    62    26    60    1
    63    27    61    1
    64    29    62    1
    65    30    63    1
    66    31    64    1
    67    32    65    1
    68    33    66    1
    69    34    67    1
    70    34    68    1
    71    35    69    1
    72    35    70    1
