@<TRIPOS>MOLECULE
*****
 42 45 0 0 0
SMALL
GASTEIGER

@<TRIPOS>ATOM
      1 C          -2.7350   -3.5182    1.5180 C.ar    1  UNL1        0.0454
      2 C          -2.0747   -2.8662    0.4812 C.ar    1  UNL1        0.0250
      3 N          -2.4707   -1.5837    0.5649 N.ar    1  UNL1       -0.3254
      4 C          -3.3236   -1.4073    1.5763 C.ar    1  UNL1        0.0967
      5 N          -3.4938   -2.6188    2.1791 N.ar    1  UNL1       -0.2440
      6 C          -1.9962   -0.5704   -0.3547 C.3     1  UNL1        0.0855
      7 C          -2.7592    0.6831   -0.3393 C.ar    1  UNL1       -0.0203
      8 C          -2.4930    1.8986    0.2507 C.ar    1  UNL1       -0.0563
      9 C          -3.3326    2.9858    0.1724 C.ar    1  UNL1       -0.0614
     10 C          -4.5199    2.9118   -0.5222 C.ar    1  UNL1       -0.0617
     11 C          -4.8506    1.7243   -1.1386 C.ar    1  UNL1       -0.0614
     12 C          -3.9790    0.6651   -1.0321 C.ar    1  UNL1       -0.0563
     13 C          -0.5249   -0.4040   -0.2811 C.ar    1  UNL1       -0.0203
     14 C           0.3370   -0.6212   -1.3515 C.ar    1  UNL1       -0.0557
     15 C           1.7083   -0.4882   -1.3025 C.ar    1  UNL1       -0.0537
     16 C           2.2945   -0.1118   -0.1115 C.ar    1  UNL1       -0.0179
     17 C           1.4753    0.1109    0.9665 C.ar    1  UNL1       -0.0537
     18 C           0.1088   -0.0289    0.8914 C.ar    1  UNL1       -0.0557
     19 C           3.7365    0.0352   -0.0365 C.ar    1  UNL1       -0.0179
     20 C           4.3582    0.4625   -1.2137 C.ar    1  UNL1       -0.0540
     21 C           5.7247    0.6400   -1.2692 C.ar    1  UNL1       -0.0612
     22 C           6.4997    0.3886   -0.1309 C.ar    1  UNL1       -0.0617
     23 C           5.8944   -0.0333    1.0345 C.ar    1  UNL1       -0.0612
     24 C           4.5167   -0.2056    1.0687 C.ar    1  UNL1       -0.0540
     25 H          -2.7471   -4.5467    1.8640 H       1  UNL1        0.0845
     26 H          -1.4159   -3.3981   -0.1730 H       1  UNL1        0.0825
     27 H          -3.7720   -0.4552    1.8319 H       1  UNL1        0.1029
     28 H          -2.1604   -1.0370   -1.3819 H       1  UNL1        0.0628
     29 H          -1.5586    1.9428    0.7874 H       1  UNL1        0.0621
     30 H          -3.0085    3.8865    0.6808 H       1  UNL1        0.0618
     31 H          -5.1571    3.7830   -0.5651 H       1  UNL1        0.0618
     32 H          -5.7778    1.6490   -1.6878 H       1  UNL1        0.0618
     33 H          -4.3073   -0.2355   -1.5432 H       1  UNL1        0.0621
     34 H          -0.1244   -0.9197   -2.2966 H       1  UNL1        0.0621
     35 H           2.2775   -0.6905   -2.2244 H       1  UNL1        0.0624
     36 H           1.9900    0.4063    1.8836 H       1  UNL1        0.0624
     37 H          -0.4073    0.1633    1.7960 H       1  UNL1        0.0621
     38 H           3.8195    0.6780   -2.1395 H       1  UNL1        0.0624
     39 H           6.2036    0.9724   -2.1861 H       1  UNL1        0.0618
     40 H           7.5647    0.5254   -0.1694 H       1  UNL1        0.0618
     41 H           6.4881   -0.2327    1.9291 H       1  UNL1        0.0618
     42 H           3.9918   -0.5398    1.9741 H       1  UNL1        0.0624
@<TRIPOS>BOND
     1     1     2   ar
     2     2     3   ar
     3     3     4   ar
     4     4     5   ar
     5     3     6    1
     6     6     7    1
     7     7     8   ar
     8     8     9   ar
     9     9    10   ar
    10    10    11   ar
    11    11    12   ar
    12     6    13    1
    13    13    14   ar
    14    14    15   ar
    15    15    16   ar
    16    16    17   ar
    17    17    18   ar
    18    16    19    1
    19    19    20   ar
    20    20    21   ar
    21    21    22   ar
    22    22    23   ar
    23    23    24   ar
    24     5     1   ar
    25    12     7   ar
    26    18    13   ar
    27    24    19   ar
    28     1    25    1
    29     2    26    1
    30     4    27    1
    31     6    28    1
    32     8    29    1
    33     9    30    1
    34    10    31    1
    35    11    32    1
    36    12    33    1
    37    14    34    1
    38    15    35    1
    39    17    36    1
    40    18    37    1
    41    20    38    1
    42    21    39    1
    43    22    40    1
    44    23    41    1
    45    24    42    1
