@<TRIPOS>MOLECULE
*****
 86 92 0 0 0
SMALL
GASTEIGER

@<TRIPOS>ATOM
      1 C          -4.0667   -1.8318   -0.0711 C.3     1  UNL1        0.0397
      2 C          -2.8493   -2.6181   -0.4293 C.3     1  UNL1       -0.0079
      3 C          -1.6017   -2.2051    0.2119 C.ar    1  UNL1       -0.0453
      4 C          -1.5201   -1.7676    1.5093 C.ar    1  UNL1       -0.0550
      5 C          -0.3225   -1.3731    2.0637 C.ar    1  UNL1       -0.0191
      6 C           0.8177   -1.4199    1.2952 C.ar    1  UNL1        0.1286
      7 O           2.0638   -1.0251    1.8136 O.3     1  UNL1       -0.4517
      8 C           3.2050   -1.2772    1.0623 C.ar    1  UNL1        0.1820
      9 C           3.6977   -0.5098    0.0350 C.ar    1  UNL1        0.0499
     10 C           4.8517   -0.9750   -0.5592 C.ar    1  UNL1       -0.0266
     11 C           5.5146   -0.2622   -1.6957 C.3     1  UNL1        0.0135
     12 C           4.4549    0.5906   -2.3557 C.3     1  UNL1       -0.0259
     13 N           3.9020    1.4680   -1.3536 N.4     1  UNL1        0.2450
     14 C           4.9928    2.1757   -0.7298 C.3     1  UNL1       -0.0409
     15 C           3.1262    2.4664   -2.0681 C.3     1  UNL1       -0.0409
     16 C           3.0429    0.7640   -0.4233 C.3     1  UNL1        0.0143
     17 C           2.6807    1.6509    0.7136 C.3     1  UNL1        0.0202
     18 C           1.2778    2.0491    0.8190 C.ar    1  UNL1       -0.0380
     19 C           0.3206    2.1247   -0.1630 C.ar    1  UNL1       -0.0123
     20 C          -0.9448    2.5375    0.1830 C.ar    1  UNL1        0.1700
     21 O          -2.0123    2.6573   -0.7306 O.3     1  UNL1       -0.4487
     22 C          -3.1622    1.8694   -0.5046 C.ar    1  UNL1        0.1703
     23 C          -4.3893    2.4531   -0.3724 C.ar    1  UNL1        0.1624
     24 O          -4.5821    3.8195   -0.4541 O.3     1  UNL1       -0.4914
     25 C          -5.8635    4.3925   -0.3143 C.3     1  UNL1        0.0790
     26 C          -5.4246    1.5699   -0.1513 C.ar    1  UNL1       -0.0128
     27 C          -5.2396    0.1894   -0.0682 C.ar    1  UNL1       -0.0378
     28 C          -6.4913   -0.5695    0.1819 C.3     1  UNL1       -0.0144
     29 C          -6.4028   -2.0092   -0.1916 C.3     1  UNL1        0.0032
     30 N          -5.1658   -2.3776   -0.8565 N.3     1  UNL1       -0.2978
     31 C          -5.1738   -1.8062   -2.1802 C.3     1  UNL1       -0.0122
     32 C          -3.9778   -0.3864   -0.2069 C.ar    1  UNL1       -0.0231
     33 C          -2.9693    0.5102   -0.4257 C.ar    1  UNL1       -0.0107
     34 C          -1.3307    2.8872    1.4680 C.ar    1  UNL1        0.1591
     35 O          -2.5986    3.3051    1.8420 O.3     1  UNL1       -0.5033
     36 C          -0.3796    2.8161    2.4658 C.ar    1  UNL1       -0.0162
     37 C           0.8735    2.4056    2.1127 C.ar    1  UNL1       -0.0547
     38 C           5.5150   -2.1272   -0.1907 C.ar    1  UNL1       -0.0123
     39 C           4.9944   -2.8735    0.8440 C.ar    1  UNL1        0.1653
     40 O           5.6375   -4.0477    1.2476 O.3     1  UNL1       -0.4913
     41 C           6.8037   -4.5289    0.6572 C.3     1  UNL1        0.0790
     42 C           3.8527   -2.4310    1.4450 C.ar    1  UNL1        0.2021
     43 O           3.3854   -3.2506    2.4926 O.3     1  UNL1       -0.5009
     44 C           0.7457   -1.8596   -0.0101 C.ar    1  UNL1       -0.0191
     45 C          -0.4439   -2.2568   -0.5765 C.ar    1  UNL1       -0.0550
     46 H          -4.3078   -2.0753    0.9869 H       1  UNL1        0.0515
     47 H          -2.9916   -3.6974   -0.1925 H       1  UNL1        0.0332
     48 H          -2.7579   -2.5963   -1.5514 H       1  UNL1        0.0332
     49 H          -2.4366   -1.7461    2.0766 H       1  UNL1        0.0621
     50 H          -0.2928   -1.0351    3.0886 H       1  UNL1        0.0654
     51 H           5.8438   -0.9823   -2.4792 H       1  UNL1        0.0365
     52 H           6.4067    0.2759   -1.3851 H       1  UNL1        0.0365
     53 H           5.0081    1.2547   -3.0678 H       1  UNL1        0.0818
     54 H           3.7242   -0.0704   -2.8485 H       1  UNL1        0.0818
     55 H           5.8515    2.2209   -1.4642 H       1  UNL1        0.0778
     56 H           5.3884    1.6941    0.1616 H       1  UNL1        0.0778
     57 H           4.7672    3.2744   -0.5722 H       1  UNL1        0.0778
     58 H           2.3418    1.9434   -2.6700 H       1  UNL1        0.0778
     59 H           2.7278    3.2579   -1.4177 H       1  UNL1        0.0778
     60 H           3.7625    2.9739   -2.8240 H       1  UNL1        0.0778
     61 H           2.1450    0.4681   -0.9979 H       1  UNL1        0.0909
     62 H           3.2643    2.6146    0.6123 H       1  UNL1        0.0372
     63 H           3.0518    1.2295    1.6770 H       1  UNL1        0.0372
     64 H           0.4402    1.8913   -1.2099 H       1  UNL1        0.0658
     65 H          -6.3557    3.9723    0.5971 H       1  UNL1        0.0660
     66 H          -5.8157    5.4885   -0.1527 H       1  UNL1        0.0660
     67 H          -6.4753    4.1721   -1.1971 H       1  UNL1        0.0660
     68 H          -6.4152    2.0375   -0.0434 H       1  UNL1        0.0658
     69 H          -7.3160   -0.0948   -0.3795 H       1  UNL1        0.0326
     70 H          -6.6887   -0.5078    1.2770 H       1  UNL1        0.0326
     71 H          -6.5109   -2.6721    0.6953 H       1  UNL1        0.0430
     72 H          -7.2515   -2.2868   -0.8619 H       1  UNL1        0.0430
     73 H          -4.5382   -0.9065   -2.2039 H       1  UNL1        0.0391
     74 H          -6.2030   -1.5160   -2.4768 H       1  UNL1        0.0391
     75 H          -4.8496   -2.5768   -2.9168 H       1  UNL1        0.0391
     76 H          -1.9868    0.1243   -0.5484 H       1  UNL1        0.0659
     77 H          -2.7779    4.2899    1.9647 H       1  UNL1        0.2923
     78 H          -0.6400    3.0806    3.4838 H       1  UNL1        0.0655
     79 H           1.5805    2.3717    2.9555 H       1  UNL1        0.0621
     80 H           6.4203   -2.4898   -0.6586 H       1  UNL1        0.0658
     81 H           7.6343   -3.8441    0.9415 H       1  UNL1        0.0660
     82 H           6.6944   -4.6342   -0.4257 H       1  UNL1        0.0660
     83 H           6.9826   -5.5491    1.0811 H       1  UNL1        0.0660
     84 H           2.5302   -3.7790    2.3837 H       1  UNL1        0.2924
     85 H           1.6616   -1.8945   -0.6138 H       1  UNL1        0.0654
     86 H          -0.4597   -2.5945   -1.5995 H       1  UNL1        0.0621
@<TRIPOS>UNITY_ATOM_ATTR
13 1
charge 1
@<TRIPOS>BOND
     1     1     2    1
     2     2     3    1
     3     3     4   ar
     4     4     5   ar
     5     5     6   ar
     6     6     7    1
     7     7     8    1
     8     8     9   ar
     9     9    10   ar
    10    10    11    1
    11    11    12    1
    12    12    13    1
    13    13    14    1
    14    13    15    1
    15    13    16    1
    16    16    17    1
    17    17    18    1
    18    18    19   ar
    19    19    20   ar
    20    20    21    1
    21    21    22    1
    22    22    23   ar
    23    23    24    1
    24    24    25    1
    25    23    26   ar
    26    26    27   ar
    27    27    28    1
    28    28    29    1
    29    29    30    1
    30    30    31    1
    31    27    32   ar
    32    32    33   ar
    33    20    34   ar
    34    34    35    1
    35    34    36   ar
    36    36    37   ar
    37    10    38   ar
    38    38    39   ar
    39    39    40    1
    40    40    41    1
    41    39    42   ar
    42    42    43    1
    43     6    44   ar
    44    44    45   ar
    45    30     1    1
    46    32     1    1
    47    45     3   ar
    48    42     8   ar
    49    16     9    1
    50    37    18   ar
    51    33    22   ar
    52     1    46    1
    53     2    47    1
    54     2    48    1
    55     4    49    1
    56     5    50    1
    57    11    51    1
    58    11    52    1
    59    12    53    1
    60    12    54    1
    61    14    55    1
    62    14    56    1
    63    14    57    1
    64    15    58    1
    65    15    59    1
    66    15    60    1
    67    16    61    1
    68    17    62    1
    69    17    63    1
    70    19    64    1
    71    25    65    1
    72    25    66    1
    73    25    67    1
    74    26    68    1
    75    28    69    1
    76    28    70    1
    77    29    71    1
    78    29    72    1
    79    31    73    1
    80    31    74    1
    81    31    75    1
    82    33    76    1
    83    35    77    1
    84    36    78    1
    85    37    79    1
    86    38    80    1
    87    41    81    1
    88    41    82    1
    89    41    83    1
    90    43    84    1
    91    44    85    1
    92    45    86    1
