@<TRIPOS>MOLECULE
*****
 44 46 0 0 0
SMALL
GASTEIGER

@<TRIPOS>ATOM
      1 C           4.1427    1.3031    0.6075 C.3     1  UNL1        0.1053
      2 O           4.3000    1.2396    1.9727 O.3     1  UNL1       -0.3825
      3 C           5.2423    0.5201   -0.0105 C.ar    1  UNL1       -0.0119
      4 C           5.5721   -0.7300    0.4424 C.ar    1  UNL1       -0.0376
      5 C           6.6117   -1.4234   -0.1635 C.ar    1  UNL1        0.0279
      6 N           7.2853   -0.8647   -1.1871 N.ar    1  UNL1       -0.2632
      7 C           6.9471    0.3669   -1.6207 C.ar    1  UNL1        0.0279
      8 C           5.9318    1.0906   -1.0579 C.ar    1  UNL1       -0.0376
      9 C           2.8265    0.7690    0.1764 C.ar    1  UNL1       -0.0145
     10 C           1.7809    1.1986    0.9607 C.ar    1  UNL1       -0.0523
     11 C           0.4515    0.8155    0.7348 C.ar    1  UNL1       -0.0196
     12 C           0.2619   -0.0427   -0.3561 C.ar    1  UNL1        0.1206
     13 O          -0.9471   -0.5675   -0.7904 O.3     1  UNL1       -0.4907
     14 C          -2.1191   -0.2097   -0.0767 C.3     1  UNL1        0.1022
     15 C          -3.3263   -0.9025   -0.6451 C.3     1  UNL1        0.0331
     16 N          -4.5654   -0.5672    0.0412 N.3     1  UNL1       -0.2991
     17 C          -5.5615   -1.4776   -0.5692 C.3     1  UNL1       -0.0010
     18 C          -6.8273   -0.8473   -0.0166 C.3     1  UNL1       -0.0390
     19 C          -6.5987    0.5996   -0.4554 C.3     1  UNL1       -0.0390
     20 C          -5.0712    0.7376   -0.3729 C.3     1  UNL1       -0.0010
     21 C           1.3036   -0.4776   -1.1472 C.ar    1  UNL1       -0.0196
     22 C           2.6005   -0.0749   -0.8882 C.ar    1  UNL1       -0.0523
     23 H           4.1796    2.3674    0.2714 H       1  UNL1        0.0694
     24 H           4.0426    0.3714    2.3319 H       1  UNL1        0.2107
     25 H           5.0215   -1.1762    1.2730 H       1  UNL1        0.0636
     26 H           6.8924   -2.4201    0.1779 H       1  UNL1        0.0829
     27 H           7.5468    0.7322   -2.4475 H       1  UNL1        0.0829
     28 H           5.6900    2.0593   -1.4216 H       1  UNL1        0.0636
     29 H           1.8989    1.8733    1.8237 H       1  UNL1        0.0622
     30 H          -0.4310    1.0870    1.2767 H       1  UNL1        0.0654
     31 H          -2.0130   -0.5301    0.9936 H       1  UNL1        0.0709
     32 H          -2.2020    0.8831   -0.0850 H       1  UNL1        0.0709
     33 H          -3.4229   -0.7032   -1.7318 H       1  UNL1        0.0460
     34 H          -3.2251   -2.0055   -0.5370 H       1  UNL1        0.0460
     35 H          -5.3612   -2.4652   -0.1654 H       1  UNL1        0.0427
     36 H          -5.4588   -1.3475   -1.6451 H       1  UNL1        0.0427
     37 H          -7.6922   -1.3113   -0.5032 H       1  UNL1        0.0278
     38 H          -6.7944   -0.9413    1.0797 H       1  UNL1        0.0278
     39 H          -6.9752    0.7591   -1.4817 H       1  UNL1        0.0278
     40 H          -7.1103    1.2595    0.2429 H       1  UNL1        0.0278
     41 H          -4.8575    1.4994    0.3800 H       1  UNL1        0.0427
     42 H          -4.6569    1.0685   -1.3398 H       1  UNL1        0.0427
     43 H           1.2296   -1.1329   -1.9956 H       1  UNL1        0.0654
     44 H           3.4576   -0.3822   -1.4668 H       1  UNL1        0.0622
@<TRIPOS>BOND
     1     1     2    1
     2     1     3    1
     3     3     4   ar
     4     4     5   ar
     5     5     6   ar
     6     6     7   ar
     7     7     8   ar
     8     1     9    1
     9     9    10   ar
    10    10    11   ar
    11    11    12   ar
    12    12    13    1
    13    13    14    1
    14    14    15    1
    15    15    16    1
    16    16    17    1
    17    17    18    1
    18    18    19    1
    19    19    20    1
    20    12    21   ar
    21    21    22   ar
    22     8     3   ar
    23    22     9   ar
    24    20    16    1
    25     1    23    1
    26     2    24    1
    27     4    25    1
    28     5    26    1
    29     7    27    1
    30     8    28    1
    31    10    29    1
    32    11    30    1
    33    14    31    1
    34    14    32    1
    35    15    33    1
    36    15    34    1
    37    17    35    1
    38    17    36    1
    39    18    37    1
    40    18    38    1
    41    19    39    1
    42    19    40    1
    43    20    41    1
    44    20    42    1
    45    21    43    1
    46    22    44    1
