
     RDKit          3D

 44 47  0  0  0  0  0  0  0  0999 V2000
    4.8940    0.8148    0.7104 C   0  0  0  0  0  0  0  0  0  0  0  0
    3.6784    0.5507    0.0157 N   0  0  0  0  0  0  0  0  0  0  0  0
    3.2043   -0.7990    0.1605 C   0  0  0  0  0  0  0  0  0  0  0  0
    1.9868   -1.0321   -0.7034 C   0  0  0  0  0  0  0  0  0  0  0  0
    0.8724   -0.0928   -0.4204 C   0  0  0  0  0  0  0  0  0  0  0  0
    1.5346    1.1820   -0.7373 C   0  0  0  0  0  0  0  0  0  0  0  0
    2.6177    1.5175    0.2608 C   0  0  0  0  0  0  0  0  0  0  0  0
   -0.4065   -0.1159   -0.0339 C   0  0  0  0  0  0  0  0  0  0  0  0
   -1.0339   -1.4399    0.2299 C   0  0  0  0  0  0  0  0  0  0  0  0
   -0.1665   -2.2776    0.8793 C   0  0  0  0  0  0  0  0  0  0  0  0
   -0.6855   -3.5326    1.0904 C   0  0  0  0  0  0  0  0  0  0  0  0
   -1.9630   -3.8662    0.6721 C   0  0  0  0  0  0  0  0  0  0  0  0
   -2.7875   -2.9638    0.0223 C   0  0  0  0  0  0  0  0  0  0  0  0
   -2.3420   -1.6549   -0.2386 C   0  0  0  0  0  0  0  0  0  0  0  0
   -3.4544   -0.9583   -0.8952 C   0  0  0  0  0  0  0  0  0  0  0  0
   -3.3136    0.4477   -1.2927 C   0  0  0  0  0  0  0  0  0  0  0  0
   -2.3982    1.2796   -0.5075 C   0  0  0  0  0  0  0  0  0  0  0  0
   -1.1274    1.1743    0.0791 C   0  0  0  0  0  0  0  0  0  0  0  0
   -0.3891    2.0599    0.7711 N   0  0  0  0  0  0  0  0  0  0  0  0
   -0.9163    3.2797    0.9640 C   0  0  0  0  0  0  0  0  0  0  0  0
   -2.1883    3.5166    0.4262 C   0  0  0  0  0  0  0  0  0  0  0  0
   -2.9297    2.5674   -0.2908 C   0  0  0  0  0  0  0  0  0  0  0  0
    4.6650    1.5910    1.4938 H   0  0  0  0  0  0  0  0  0  0  0  0
    5.5906    1.3010   -0.0070 H   0  0  0  0  0  0  0  0  0  0  0  0
    5.3306   -0.0316    1.2441 H   0  0  0  0  0  0  0  0  0  0  0  0
    3.9862   -1.4903   -0.2278 H   0  0  0  0  0  0  0  0  0  0  0  0
    2.9852   -1.0323    1.1992 H   0  0  0  0  0  0  0  0  0  0  0  0
    1.6777   -2.0909   -0.7338 H   0  0  0  0  0  0  0  0  0  0  0  0
    2.2895   -0.8765   -1.8115 H   0  0  0  0  0  0  0  0  0  0  0  0
    0.8521    2.0371   -0.9242 H   0  0  0  0  0  0  0  0  0  0  0  0
    2.1326    1.0295   -1.7089 H   0  0  0  0  0  0  0  0  0  0  0  0
    3.0458    2.5070   -0.0677 H   0  0  0  0  0  0  0  0  0  0  0  0
    2.2984    1.5446    1.3001 H   0  0  0  0  0  0  0  0  0  0  0  0
    0.7634   -1.8457    1.1694 H   0  0  0  0  0  0  0  0  0  0  0  0
   -0.0205   -4.2216    1.6019 H   0  0  0  0  0  0  0  0  0  0  0  0
   -2.3218   -4.8870    0.8697 H   0  0  0  0  0  0  0  0  0  0  0  0
   -3.7614   -3.3314   -0.2569 H   0  0  0  0  0  0  0  0  0  0  0  0
   -4.3513   -1.1030   -0.2209 H   0  0  0  0  0  0  0  0  0  0  0  0
   -3.6866   -1.5622   -1.8378 H   0  0  0  0  0  0  0  0  0  0  0  0
   -2.8986    0.4555   -2.3563 H   0  0  0  0  0  0  0  0  0  0  0  0
   -4.3236    0.9357   -1.3015 H   0  0  0  0  0  0  0  0  0  0  0  0
   -0.3957    4.0477    1.5044 H   0  0  0  0  0  0  0  0  0  0  0  0
   -2.6397    4.5091    0.5724 H   0  0  0  0  0  0  0  0  0  0  0  0
   -3.9047    2.8571   -0.6627 H   0  0  0  0  0  0  0  0  0  0  0  0
  1  2  1  0
  2  3  1  0
  3  4  1  0
  4  5  1  0
  5  6  1  0
  6  7  1  0
  5  8  2  3
  8  9  1  0
  9 10  2  0
 10 11  1  0
 11 12  2  0
 12 13  1  0
 13 14  2  0
 14 15  1  0
 15 16  1  0
 16 17  1  0
 17 18  2  0
 18 19  1  0
 19 20  2  0
 20 21  1  0
 21 22  2  0
  7  2  1  0
 18  8  1  0
 14  9  1  0
 22 17  1  0
  1 23  1  0
  1 24  1  0
  1 25  1  0
  3 26  1  0
  3 27  1  0
  4 28  1  0
  4 29  1  0
  6 30  1  0
  6 31  1  0
  7 32  1  0
  7 33  1  0
 10 34  1  0
 11 35  1  0
 12 36  1  0
 13 37  1  0
 15 38  1  0
 15 39  1  0
 16 40  1  0
 16 41  1  0
 20 42  1  0
 21 43  1  0
 22 44  1  0
M  END
$$$$
