@<TRIPOS>MOLECULE
*****
 44 47 0 0 0
SMALL
GASTEIGER

@<TRIPOS>ATOM
      1 C           4.8940    0.8148    0.7104 C.3     1  UNL1       -0.0127
      2 N           3.6784    0.5507    0.0157 N.3     1  UNL1       -0.3047
      3 C           3.2043   -0.7990    0.1605 C.3     1  UNL1        0.0023
      4 C           1.9868   -1.0321   -0.7034 C.3     1  UNL1       -0.0180
      5 C           0.8724   -0.0928   -0.4204 C.2     1  UNL1       -0.0574
      6 C           1.5346    1.1820   -0.7373 C.3     1  UNL1       -0.0180
      7 C           2.6177    1.5175    0.2608 C.3     1  UNL1        0.0023
      8 C          -0.4065   -0.1159   -0.0339 C.2     1  UNL1        0.0073
      9 C          -1.0339   -1.4399    0.2299 C.ar    1  UNL1       -0.0127
     10 C          -0.1665   -2.2776    0.8793 C.ar    1  UNL1       -0.0537
     11 C          -0.6855   -3.5326    1.0904 C.ar    1  UNL1       -0.0612
     12 C          -1.9630   -3.8662    0.6721 C.ar    1  UNL1       -0.0615
     13 C          -2.7875   -2.9638    0.0223 C.ar    1  UNL1       -0.0580
     14 C          -2.3420   -1.6549   -0.2386 C.ar    1  UNL1       -0.0393
     15 C          -3.4544   -0.9583   -0.8952 C.3     1  UNL1       -0.0231
     16 C          -3.3136    0.4477   -1.2927 C.3     1  UNL1       -0.0216
     17 C          -2.3982    1.2796   -0.5075 C.ar    1  UNL1       -0.0211
     18 C          -1.1274    1.1743    0.0791 C.ar    1  UNL1        0.0747
     19 N          -0.3891    2.0599    0.7711 N.ar    1  UNL1       -0.2547
     20 C          -0.9163    3.2797    0.9640 C.ar    1  UNL1        0.0283
     21 C          -2.1883    3.5166    0.4262 C.ar    1  UNL1       -0.0433
     22 C          -2.9297    2.5674   -0.2908 C.ar    1  UNL1       -0.0551
     23 H           4.6650    1.5910    1.4938 H       1  UNL1        0.0391
     24 H           5.5906    1.3010   -0.0070 H       1  UNL1        0.0391
     25 H           5.3306   -0.0316    1.2441 H       1  UNL1        0.0391
     26 H           3.9862   -1.4903   -0.2278 H       1  UNL1        0.0429
     27 H           2.9852   -1.0323    1.1992 H       1  UNL1        0.0429
     28 H           1.6777   -2.0909   -0.7338 H       1  UNL1        0.0323
     29 H           2.2895   -0.8765   -1.8115 H       1  UNL1        0.0323
     30 H           0.8521    2.0371   -0.9242 H       1  UNL1        0.0323
     31 H           2.1326    1.0295   -1.7089 H       1  UNL1        0.0323
     32 H           3.0458    2.5070   -0.0677 H       1  UNL1        0.0429
     33 H           2.2984    1.5446    1.3001 H       1  UNL1        0.0429
     34 H           0.7634   -1.8457    1.1694 H       1  UNL1        0.0624
     35 H          -0.0205   -4.2216    1.6019 H       1  UNL1        0.0618
     36 H          -2.3218   -4.8870    0.8697 H       1  UNL1        0.0618
     37 H          -3.7614   -3.3314   -0.2569 H       1  UNL1        0.0620
     38 H          -4.3513   -1.1030   -0.2209 H       1  UNL1        0.0317
     39 H          -3.6866   -1.5622   -1.8378 H       1  UNL1        0.0317
     40 H          -2.8986    0.4555   -2.3563 H       1  UNL1        0.0317
     41 H          -4.3236    0.9357   -1.3015 H       1  UNL1        0.0317
     42 H          -0.3957    4.0477    1.5044 H       1  UNL1        0.0830
     43 H          -2.6397    4.5091    0.5724 H       1  UNL1        0.0633
     44 H          -3.9047    2.8571   -0.6627 H       1  UNL1        0.0621
@<TRIPOS>BOND
     1     1     2    1
     2     2     3    1
     3     3     4    1
     4     4     5    1
     5     5     6    1
     6     6     7    1
     7     5     8    2
     8     8     9    1
     9     9    10   ar
    10    10    11   ar
    11    11    12   ar
    12    12    13   ar
    13    13    14   ar
    14    14    15    1
    15    15    16    1
    16    16    17    1
    17    17    18   ar
    18    18    19   ar
    19    19    20   ar
    20    20    21   ar
    21    21    22   ar
    22     7     2    1
    23    18     8    1
    24    14     9   ar
    25    22    17   ar
    26     1    23    1
    27     1    24    1
    28     1    25    1
    29     3    26    1
    30     3    27    1
    31     4    28    1
    32     4    29    1
    33     6    30    1
    34     6    31    1
    35     7    32    1
    36     7    33    1
    37    10    34    1
    38    11    35    1
    39    12    36    1
    40    13    37    1
    41    15    38    1
    42    15    39    1
    43    16    40    1
    44    16    41    1
    45    20    42    1
    46    21    43    1
    47    22    44    1
