@<TRIPOS>MOLECULE
*****
 42 44 0 0 0
SMALL
GASTEIGER

@<TRIPOS>ATOM
      1 O          -2.6851    1.5626   -1.3143 O.2     1  UNL1       -0.2262
      2 C          -2.3736    0.3817   -1.0200 C.2     1  UNL1        0.4035
      3 O          -3.3674   -0.4863   -0.6293 O.3     1  UNL1       -0.4455
      4 C          -4.7307   -0.2039   -0.5139 C.3     1  UNL1        0.1191
      5 C          -5.0680    0.8643    0.4569 C.ar    1  UNL1       -0.0103
      6 C          -5.2182    0.5389    1.8116 C.ar    1  UNL1       -0.0554
      7 C          -5.5455    1.5037    2.7348 C.ar    1  UNL1       -0.0614
      8 C          -5.7422    2.8195    2.3992 C.ar    1  UNL1       -0.0617
      9 C          -5.5988    3.1589    1.0700 C.ar    1  UNL1       -0.0614
     10 C          -5.2671    2.1855    0.1261 C.ar    1  UNL1       -0.0554
     11 N          -0.9896   -0.0288   -1.0998 N.am    1  UNL1       -0.2633
     12 C          -0.6781   -1.3741   -0.7558 C.3     1  UNL1        0.0370
     13 C           0.7536   -1.5395   -0.3849 C.2     1  UNL1       -0.0553
     14 C           1.7021   -0.7864   -0.9153 C.2     1  UNL1        0.0020
     15 C           3.0545   -1.0108   -0.5044 C.1     1  UNL1       -0.0641
     16 C           4.2055   -1.2009   -0.1622 C.1     1  UNL1       -0.0415
     17 C           5.5628   -1.4321    0.2264 C.ar    1  UNL1        0.1137
     18 C           6.3801   -0.4017    0.6593 C.ar    1  UNL1       -0.0278
     19 C           7.6831   -0.6448    1.0317 C.ar    1  UNL1       -0.0577
     20 C           8.1288   -1.9462    0.9537 C.ar    1  UNL1       -0.0435
     21 C           7.3148   -2.9559    0.5251 C.ar    1  UNL1        0.0290
     22 N           6.0458   -2.6811    0.1688 N.ar    1  UNL1       -0.2467
     23 C           1.3054    0.2534   -1.9094 C.3     1  UNL1       -0.0041
     24 C           0.0027    0.9105   -1.5144 C.3     1  UNL1        0.0227
     25 H          -5.2195   -1.1758   -0.2027 H       1  UNL1        0.0749
     26 H          -5.2055    0.0037   -1.5161 H       1  UNL1        0.0749
     27 H          -5.0732   -0.4770    2.1100 H       1  UNL1        0.0621
     28 H          -5.6577    1.2315    3.7789 H       1  UNL1        0.0618
     29 H          -5.9979    3.5534    3.1495 H       1  UNL1        0.0618
     30 H          -5.7485    4.1845    0.7846 H       1  UNL1        0.0618
     31 H          -5.1746    2.4867   -0.9158 H       1  UNL1        0.0621
     32 H          -0.8771   -2.0936   -1.5823 H       1  UNL1        0.0509
     33 H          -1.2904   -1.6409    0.1408 H       1  UNL1        0.0509
     34 H           0.9922   -2.3063    0.3407 H       1  UNL1        0.0597
     35 H           6.0251    0.6147    0.7182 H       1  UNL1        0.0645
     36 H           8.2850    0.1759    1.3608 H       1  UNL1        0.0619
     37 H           9.1523   -2.1325    1.2474 H       1  UNL1        0.0633
     38 H           7.6794   -3.9747    0.4696 H       1  UNL1        0.0830
     39 H           2.0923    1.0552   -1.8228 H       1  UNL1        0.0335
     40 H           1.3234   -0.1047   -2.9383 H       1  UNL1        0.0335
     41 H           0.1835    1.6475   -0.7044 H       1  UNL1        0.0469
     42 H          -0.3634    1.4661   -2.4257 H       1  UNL1        0.0469
@<TRIPOS>BOND
     1     1     2    2
     2     2     3    1
     3     3     4    1
     4     4     5    1
     5     5     6   ar
     6     6     7   ar
     7     7     8   ar
     8     8     9   ar
     9     9    10   ar
    10     2    11   am
    11    11    12    1
    12    12    13    1
    13    13    14    2
    14    14    15    1
    15    15    16    3
    16    16    17    1
    17    17    18   ar
    18    18    19   ar
    19    19    20   ar
    20    20    21   ar
    21    21    22   ar
    22    14    23    1
    23    23    24    1
    24    10     5   ar
    25    24    11    1
    26    22    17   ar
    27     4    25    1
    28     4    26    1
    29     6    27    1
    30     7    28    1
    31     8    29    1
    32     9    30    1
    33    10    31    1
    34    12    32    1
    35    12    33    1
    36    13    34    1
    37    18    35    1
    38    19    36    1
    39    20    37    1
    40    21    38    1
    41    23    39    1
    42    23    40    1
    43    24    41    1
    44    24    42    1
