
     RDKit          3D

 29 30  0  0  0  0  0  0  0  0999 V2000
   -3.8256    2.2211    1.8579 O   0  0  0  0  0  0  0  0  0  0  0  0
   -2.6727    1.6324    1.3785 C   0  0  0  0  0  0  0  0  0  0  0  0
   -1.7942    2.1972    2.0642 O   0  0  0  0  0  0  0  0  0  0  0  0
   -2.6924    0.6156    0.3220 C   0  0  0  0  0  0  0  0  0  0  0  0
   -1.5699    0.0105   -0.1871 C   0  0  0  0  0  0  0  0  0  0  0  0
   -0.2948    0.3339    0.2739 N   0  0  0  0  0  0  0  0  0  0  0  0
    0.9810   -0.1589   -0.1016 C   0  0  0  0  0  0  0  0  0  0  0  0
    1.1625   -1.1232   -1.0670 C   0  0  0  0  0  0  0  0  0  0  0  0
    2.3784   -1.6268   -1.4596 C   0  0  0  0  0  0  0  0  0  0  0  0
    3.5203   -1.1453   -0.8552 C   0  0  0  0  0  0  0  0  0  0  0  0
    3.4036   -0.1910    0.1063 C   0  0  0  0  0  0  0  0  0  0  0  0
    2.1571    0.2699    0.4525 C   0  0  0  0  0  0  0  0  0  0  0  0
    4.6070    0.3371    0.7644 C   0  0  0  0  0  0  0  0  0  0  0  0
    5.6552   -0.5490    0.5850 F   0  0  0  0  0  0  0  0  0  0  0  0
    4.9620    1.6067    0.3331 F   0  0  0  0  0  0  0  0  0  0  0  0
    4.3809    0.4304    2.1415 F   0  0  0  0  0  0  0  0  0  0  0  0
   -1.7777   -0.8914   -1.1364 N   0  0  0  0  0  0  0  0  0  0  0  0
   -2.9771   -1.2372   -1.6136 C   0  0  0  0  0  0  0  0  0  0  0  0
   -4.1126   -0.6592   -1.1338 C   0  0  0  0  0  0  0  0  0  0  0  0
   -3.9327    0.2648   -0.1646 C   0  0  0  0  0  0  0  0  0  0  0  0
   -3.9293    3.2071    2.0564 H   0  0  0  0  0  0  0  0  0  0  0  0
   -0.2032    1.0538    1.0207 H   0  0  0  0  0  0  0  0  0  0  0  0
    0.3595   -1.5800   -1.6124 H   0  0  0  0  0  0  0  0  0  0  0  0
    2.5331   -2.3827   -2.2150 H   0  0  0  0  0  0  0  0  0  0  0  0
    4.5095   -1.4953   -1.1137 H   0  0  0  0  0  0  0  0  0  0  0  0
    2.1287    1.0369    1.2317 H   0  0  0  0  0  0  0  0  0  0  0  0
   -3.0365   -2.0000   -2.4048 H   0  0  0  0  0  0  0  0  0  0  0  0
   -5.0848   -0.9227   -1.5035 H   0  0  0  0  0  0  0  0  0  0  0  0
   -4.8353    0.7451    0.2383 H   0  0  0  0  0  0  0  0  0  0  0  0
  1  2  1  0
  2  3  2  0
  2  4  1  0
  4  5  2  0
  5  6  1  0
  6  7  1  0
  7  8  2  0
  8  9  1  0
  9 10  2  0
 10 11  1  0
 11 12  2  0
 11 13  1  0
 13 14  1  0
 13 15  1  0
 13 16  1  0
  5 17  1  0
 17 18  2  0
 18 19  1  0
 19 20  2  0
 20  4  1  0
 12  7  1  0
  1 21  1  0
  6 22  1  0
  8 23  1  0
  9 24  1  0
 10 25  1  0
 12 26  1  0
 18 27  1  0
 19 28  1  0
 20 29  1  0
M  END
$$$$
