@<TRIPOS>MOLECULE
*****
 46 47 0 0 0
SMALL
GASTEIGER

@<TRIPOS>ATOM
      1 C          -4.0624   -0.5608    0.4809 C.3     1  UNL1       -0.0596
      2 C          -3.2575    0.6585    0.8876 C.3     1  UNL1       -0.0295
      3 C          -3.3954    1.7398   -0.1230 C.3     1  UNL1       -0.0596
      4 C          -3.8325    1.1563    2.1971 C.3     1  UNL1       -0.0596
      5 C          -1.8377    0.2272    1.1452 C.3     1  UNL1        0.0291
      6 C          -1.1718   -0.3676   -0.0009 C.2     1  UNL1        0.2166
      7 O          -1.8432   -0.6066   -1.0251 O.2     1  UNL1       -0.2756
      8 N           0.1978   -0.6985    0.0150 N.am    1  UNL1       -0.2928
      9 C           1.1645   -0.2740    0.9501 C.3     1  UNL1        0.0414
     10 C           2.0833    0.8315    0.6655 C.ar    1  UNL1       -0.0117
     11 C           3.4670    0.4797    0.6058 C.ar    1  UNL1       -0.0543
     12 C           4.4585    1.3900    0.4125 C.ar    1  UNL1       -0.0430
     13 C           4.1961    2.7345    0.2582 C.ar    1  UNL1        0.0424
     14 CL          5.4887    3.8950    0.0117 Cl      1  UNL1       -0.0835
     15 C           2.8831    3.1031    0.3094 C.ar    1  UNL1       -0.0247
     16 C           1.8499    2.1570    0.5098 C.ar    1  UNL1        0.0470
     17 CL          0.2178    2.7796    0.5058 Cl      1  UNL1       -0.0832
     18 C           0.5994   -1.6254   -1.0309 C.3     1  UNL1        0.0400
     19 C           1.5510   -1.0684   -2.0578 C.3     1  UNL1       -0.0205
     20 C           1.7723   -2.3831   -2.8529 C.3     1  UNL1       -0.0023
     21 N           1.7010   -3.4387   -1.8721 N.3     1  UNL1       -0.3142
     22 C           1.3177   -2.8387   -0.5915 C.3     1  UNL1        0.0146
     23 H          -3.6238   -1.4860    0.9584 H       1  UNL1        0.0235
     24 H          -4.1569   -0.6758   -0.6131 H       1  UNL1        0.0235
     25 H          -5.1062   -0.5139    0.8873 H       1  UNL1        0.0235
     26 H          -3.5237    2.7547    0.3122 H       1  UNL1        0.0235
     27 H          -2.5855    1.7946   -0.8716 H       1  UNL1        0.0235
     28 H          -4.3392    1.5421   -0.7104 H       1  UNL1        0.0235
     29 H          -4.3387    0.3214    2.7641 H       1  UNL1        0.0235
     30 H          -3.0274    1.5197    2.8721 H       1  UNL1        0.0235
     31 H          -4.5855    1.9569    2.0377 H       1  UNL1        0.0235
     32 H          -1.9617   -0.6849    1.8762 H       1  UNL1        0.0364
     33 H          -1.2711    0.9046    1.7776 H       1  UNL1        0.0364
     34 H           1.7122   -1.1875    1.3149 H       1  UNL1        0.0514
     35 H           0.5592   -0.0015    1.9029 H       1  UNL1        0.0514
     36 H           3.6972   -0.5711    0.7231 H       1  UNL1        0.0622
     37 H           5.5117    1.1011    0.3686 H       1  UNL1        0.0632
     38 H           2.6258    4.1452    0.1949 H       1  UNL1        0.0647
     39 H          -0.2865   -1.9560   -1.6519 H       1  UNL1        0.0513
     40 H           1.0817   -0.2988   -2.7070 H       1  UNL1        0.0296
     41 H           2.5178   -0.7534   -1.6606 H       1  UNL1        0.0296
     42 H           0.9329   -2.4462   -3.5842 H       1  UNL1        0.0425
     43 H           2.7252   -2.3765   -3.3797 H       1  UNL1        0.0425
     44 H           0.9732   -4.1271   -2.1746 H       1  UNL1        0.1220
     45 H           0.7040   -3.5821   -0.0643 H       1  UNL1        0.0442
     46 H           2.2172   -2.6696    0.0267 H       1  UNL1        0.0442
@<TRIPOS>BOND
     1     1     2    1
     2     2     3    1
     3     2     4    1
     4     2     5    1
     5     5     6    1
     6     6     7    2
     7     6     8   am
     8     8     9    1
     9     9    10    1
    10    10    11   ar
    11    11    12   ar
    12    12    13   ar
    13    13    14    1
    14    13    15   ar
    15    15    16   ar
    16    16    17    1
    17     8    18    1
    18    18    19    1
    19    19    20    1
    20    20    21    1
    21    21    22    1
    22    16    10   ar
    23    22    18    1
    24     1    23    1
    25     1    24    1
    26     1    25    1
    27     3    26    1
    28     3    27    1
    29     3    28    1
    30     4    29    1
    31     4    30    1
    32     4    31    1
    33     5    32    1
    34     5    33    1
    35     9    34    1
    36     9    35    1
    37    11    36    1
    38    12    37    1
    39    15    38    1
    40    18    39    1
    41    19    40    1
    42    19    41    1
    43    20    42    1
    44    20    43    1
    45    21    44    1
    46    22    45    1
    47    22    46    1
