@<TRIPOS>MOLECULE
*****
 19 20 0 0 0
SMALL
GASTEIGER

@<TRIPOS>ATOM
      1 N          -3.2954    0.5012   -1.4822 N.pl3   1  UNL1       -0.3275
      2 C          -2.3362    0.1846   -0.4710 C.ar    1  UNL1        0.2130
      3 N          -2.7106   -0.1871    0.7687 N.ar    1  UNL1       -0.2231
      4 C          -1.8095   -0.4846    1.7188 C.ar    1  UNL1        0.0332
      5 C          -0.4729   -0.3992    1.3906 C.ar    1  UNL1       -0.0173
      6 C          -0.0386   -0.0242    0.1380 C.ar    1  UNL1        0.0780
      7 N          -1.0383    0.2445   -0.7136 N.ar    1  UNL1       -0.2146
      8 C           1.3826    0.0773   -0.2464 C.ar    1  UNL1        0.0274
      9 C           1.7485    0.4532   -1.4997 C.ar    1  UNL1        0.0885
     10 CL          0.6553    0.8777   -2.8625 Cl      1  UNL1       -0.0751
     11 S           3.5056    0.4477   -1.5428 S.2     1  UNL1       -0.0646
     12 C           3.6185   -0.0840    0.2079 C.ar    1  UNL1        0.0800
     13 CL          5.1770   -0.3552    1.0486 Cl      1  UNL1       -0.0758
     14 C           2.3551   -0.1973    0.6260 C.ar    1  UNL1       -0.0256
     15 H          -3.4295   -0.4879   -1.8232 H       1  UNL1        0.1452
     16 H          -3.7515    1.3761   -1.8231 H       1  UNL1        0.1452
     17 H          -2.0743   -0.7903    2.7367 H       1  UNL1        0.0831
     18 H           0.2696   -0.6373    2.1503 H       1  UNL1        0.0654
     19 H           2.2445   -0.5151    1.6789 H       1  UNL1        0.0645
@<TRIPOS>BOND
     1     1     2    1
     2     2     3   ar
     3     3     4   ar
     4     4     5   ar
     5     5     6   ar
     6     6     7   ar
     7     6     8    1
     8     8     9   ar
     9     9    10    1
    10     9    11   ar
    11    11    12   ar
    12    12    13    1
    13    12    14   ar
    14     7     2   ar
    15    14     8   ar
    16     1    15    1
    17     1    16    1
    18     4    17    1
    19     5    18    1
    20    14    19    1
