
     RDKit          3D

 19 20  0  0  0  0  0  0  0  0999 V2000
   -3.2954    0.5012   -1.4822 N   0  0  0  0  0  0  0  0  0  0  0  0
   -2.3362    0.1846   -0.4710 C   0  0  0  0  0  0  0  0  0  0  0  0
   -2.7106   -0.1871    0.7687 N   0  0  0  0  0  0  0  0  0  0  0  0
   -1.8095   -0.4846    1.7188 C   0  0  0  0  0  0  0  0  0  0  0  0
   -0.4729   -0.3992    1.3906 C   0  0  0  0  0  0  0  0  0  0  0  0
   -0.0386   -0.0242    0.1380 C   0  0  0  0  0  0  0  0  0  0  0  0
   -1.0383    0.2445   -0.7136 N   0  0  0  0  0  0  0  0  0  0  0  0
    1.3826    0.0773   -0.2464 C   0  0  0  0  0  0  0  0  0  0  0  0
    1.7485    0.4532   -1.4997 C   0  0  0  0  0  0  0  0  0  0  0  0
    0.6553    0.8777   -2.8625 Cl  0  0  0  0  0  0  0  0  0  0  0  0
    3.5056    0.4477   -1.5428 S   0  0  0  0  0  0  0  0  0  0  0  0
    3.6185   -0.0840    0.2079 C   0  0  0  0  0  0  0  0  0  0  0  0
    5.1770   -0.3552    1.0486 Cl  0  0  0  0  0  0  0  0  0  0  0  0
    2.3551   -0.1973    0.6260 C   0  0  0  0  0  0  0  0  0  0  0  0
   -3.4295   -0.4879   -1.8232 H   0  0  0  0  0  0  0  0  0  0  0  0
   -3.7515    1.3761   -1.8231 H   0  0  0  0  0  0  0  0  0  0  0  0
   -2.0743   -0.7903    2.7367 H   0  0  0  0  0  0  0  0  0  0  0  0
    0.2696   -0.6373    2.1503 H   0  0  0  0  0  0  0  0  0  0  0  0
    2.2445   -0.5151    1.6789 H   0  0  0  0  0  0  0  0  0  0  0  0
  1  2  1  0
  2  3  2  0
  3  4  1  0
  4  5  2  0
  5  6  1  0
  6  7  2  0
  6  8  1  0
  8  9  2  0
  9 10  1  0
  9 11  1  0
 11 12  1  0
 12 13  1  0
 12 14  2  0
  7  2  1  0
 14  8  1  0
  1 15  1  0
  1 16  1  0
  4 17  1  0
  5 18  1  0
 14 19  1  0
M  END
$$$$
