@<TRIPOS>MOLECULE
*****
 46 49 0 0 0
SMALL
GASTEIGER

@<TRIPOS>ATOM
      1 C           3.9630   -2.6115   -0.7589 C.3     1  UNL1       -0.0375
      2 C           4.5213   -1.2624   -1.0186 C.ar    1  UNL1       -0.0187
      3 C           5.7554   -1.1851   -1.6649 C.ar    1  UNL1       -0.0378
      4 C           6.2651    0.0675   -1.9015 C.ar    1  UNL1        0.0701
      5 C           7.5362    0.2664   -2.5642 C.1     1  UNL1        0.1007
      6 N           8.5642    0.4109   -3.1128 N.1     1  UNL1       -0.1908
      7 C           5.5444    1.1691   -1.4957 C.ar    1  UNL1        0.0458
      8 N           4.3596    1.0608   -0.8761 N.ar    1  UNL1       -0.2488
      9 C           3.8211   -0.1710   -0.6238 C.ar    1  UNL1        0.1286
     10 C           2.5379   -0.2854    0.0474 C.2     1  UNL1        0.2668
     11 O           2.0693   -1.4245    0.2657 O.2     1  UNL1       -0.2682
     12 N           1.7710    0.8196    0.4773 N.am    1  UNL1       -0.2802
     13 C           0.5144    0.7228    1.1350 C.ar    1  UNL1        0.0342
     14 C           0.4347    0.6478    2.5186 C.ar    1  UNL1       -0.0377
     15 C          -0.7745    0.5534    3.1757 C.ar    1  UNL1       -0.0243
     16 C          -1.9629    0.5303    2.4646 C.ar    1  UNL1        0.1292
     17 F          -3.1478    0.4353    3.1110 F       1  UNL1       -0.2051
     18 C          -1.8966    0.6034    1.1047 C.ar    1  UNL1        0.0228
     19 C          -3.1603    0.5840    0.3019 C.3     1  UNL1        0.1603
     20 C          -3.8696    1.8855    0.6603 C.3     1  UNL1        0.2686
     21 F          -5.0690    2.0290   -0.0096 F       1  UNL1       -0.2062
     22 F          -3.0417    2.8998    0.1564 F       1  UNL1       -0.2062
     23 N          -2.8491    0.6680   -1.1035 N.2     1  UNL1       -0.2194
     24 C          -3.7281    0.3000   -1.9626 C.2     1  UNL1        0.2764
     25 N          -3.5073    0.3496   -3.3797 N.pl3   1  UNL1       -0.3134
     26 O          -4.9510   -0.1679   -1.4271 O.2     1  UNL1       -0.4622
     27 C          -4.9163   -1.0824   -0.3338 C.3     1  UNL1        0.1091
     28 C          -5.3573   -0.6108    1.0128 C.3     1  UNL1       -0.0064
     29 C          -3.9098   -0.6407    0.6940 C.3     1  UNL1        0.0344
     30 C          -0.6752    0.6990    0.4364 C.ar    1  UNL1       -0.0321
     31 H           3.8854   -2.8536    0.3258 H       1  UNL1        0.0278
     32 H           4.6830   -3.3577   -1.1596 H       1  UNL1        0.0278
     33 H           3.0189   -2.8105   -1.3223 H       1  UNL1        0.0278
     34 H           6.3087   -2.0597   -1.9772 H       1  UNL1        0.0634
     35 H           5.9399    2.1615   -1.6788 H       1  UNL1        0.0843
     36 H           2.1595    1.7702    0.2965 H       1  UNL1        0.1552
     37 H           1.3636    0.6661    3.0712 H       1  UNL1        0.0637
     38 H          -0.8582    0.4943    4.2473 H       1  UNL1        0.0647
     39 H          -3.9471    2.0695    1.7299 H       1  UNL1        0.1047
     40 H          -2.9832   -0.4610   -3.7872 H       1  UNL1        0.1466
     41 H          -3.8571    1.1537   -3.9454 H       1  UNL1        0.1466
     42 H          -4.9932   -2.1544   -0.6121 H       1  UNL1        0.0737
     43 H          -5.9345    0.2968    1.1758 H       1  UNL1        0.0306
     44 H          -5.7062   -1.4393    1.7013 H       1  UNL1        0.0306
     45 H          -3.3042   -1.4937    1.0926 H       1  UNL1        0.0366
     46 H          -0.6164    0.7571   -0.6396 H       1  UNL1        0.0640
@<TRIPOS>BOND
     1     1     2    1
     2     2     3   ar
     3     3     4   ar
     4     4     5    1
     5     5     6    3
     6     4     7   ar
     7     7     8   ar
     8     8     9   ar
     9     9    10    1
    10    10    11    2
    11    10    12   am
    12    12    13    1
    13    13    14   ar
    14    14    15   ar
    15    15    16   ar
    16    16    17    1
    17    16    18   ar
    18    18    19    1
    19    19    20    1
    20    20    21    1
    21    20    22    1
    22    19    23    1
    23    23    24    2
    24    24    25    1
    25    24    26    1
    26    26    27    1
    27    27    28    1
    28    28    29    1
    29    18    30   ar
    30     9     2   ar
    31    30    13   ar
    32    29    19    1
    33    29    27    1
    34     1    31    1
    35     1    32    1
    36     1    33    1
    37     3    34    1
    38     7    35    1
    39    12    36    1
    40    14    37    1
    41    15    38    1
    42    20    39    1
    43    25    40    1
    44    25    41    1
    45    27    42    1
    46    28    43    1
    47    28    44    1
    48    29    45    1
    49    30    46    1
