@<TRIPOS>MOLECULE
*****
 47 48 0 0 0
SMALL
GASTEIGER

@<TRIPOS>ATOM
      1 C           4.9631   -0.9527   -2.9798 C.3     1  UNL1        0.0788
      2 O           4.0204   -0.7062   -1.9567 O.3     1  UNL1       -0.4948
      3 C           4.4847   -0.6062   -0.6591 C.ar    1  UNL1        0.1234
      4 C           5.8463   -0.7468   -0.3837 C.ar    1  UNL1       -0.0170
      5 C           6.2460   -0.6340    0.9504 C.ar    1  UNL1       -0.0230
      6 C           5.3548   -0.3941    1.9741 C.ar    1  UNL1        0.1239
      7 F           5.8078   -0.2960    3.2445 F       1  UNL1       -0.2055
      8 C           4.0081   -0.2618    1.6470 C.ar    1  UNL1       -0.0198
      9 C           3.5717   -0.3661    0.3435 C.ar    1  UNL1       -0.0030
     10 C           2.1539   -0.2290   -0.0188 C.3     1  UNL1       -0.0241
     11 C           1.2551    0.0288    1.1374 C.3     1  UNL1       -0.0489
     12 C          -0.1680    0.1470    0.6998 C.3     1  UNL1       -0.0504
     13 C          -0.4564    1.2402   -0.2687 C.3     1  UNL1       -0.0266
     14 C          -1.9271    1.2566   -0.6108 C.3     1  UNL1        0.0591
     15 C          -2.3147   -0.0377   -1.2275 C.3     1  UNL1       -0.0242
     16 C          -3.2774   -0.6228   -0.1918 C.3     1  UNL1       -0.0242
     17 C          -3.7706    0.6122    0.4816 C.3     1  UNL1        0.0603
     18 C          -4.9722    1.2257   -0.2118 C.3     1  UNL1       -0.0142
     19 C          -6.1302    0.2597   -0.2500 C.3     1  UNL1       -0.0046
     20 N          -6.5442   -0.1264    1.0851 N.3     1  UNL1       -0.3299
     21 O          -2.6963    1.4574    0.5174 O.3     1  UNL1       -0.3733
     22 H           5.5651   -1.8754   -2.7675 H       1  UNL1        0.0660
     23 H           4.5080   -1.0874   -3.9663 H       1  UNL1        0.0660
     24 H           5.6924   -0.1097   -2.9805 H       1  UNL1        0.0660
     25 H           6.5610   -0.9353   -1.1723 H       1  UNL1        0.0655
     26 H           7.2872   -0.7433    1.1466 H       1  UNL1        0.0647
     27 H           3.3085   -0.0747    2.4402 H       1  UNL1        0.0650
     28 H           2.0664    0.6474   -0.7260 H       1  UNL1        0.0314
     29 H           1.8498   -1.1194   -0.6123 H       1  UNL1        0.0314
     30 H           1.2923   -0.8208    1.8704 H       1  UNL1        0.0268
     31 H           1.6178    0.9450    1.6538 H       1  UNL1        0.0268
     32 H          -0.4722   -0.8268    0.2663 H       1  UNL1        0.0266
     33 H          -0.8365    0.3183    1.5967 H       1  UNL1        0.0266
     34 H          -0.1077    2.2340    0.0823 H       1  UNL1        0.0290
     35 H           0.1557    1.0415   -1.1965 H       1  UNL1        0.0290
     36 H          -2.1364    2.1343   -1.2898 H       1  UNL1        0.0596
     37 H          -1.4907   -0.7261   -1.4536 H       1  UNL1        0.0291
     38 H          -2.9255    0.1727   -2.1498 H       1  UNL1        0.0291
     39 H          -4.0719   -1.2092   -0.6969 H       1  UNL1        0.0291
     40 H          -2.7982   -1.2901    0.5224 H       1  UNL1        0.0291
     41 H          -4.0907    0.4076    1.5365 H       1  UNL1        0.0596
     42 H          -5.3130    2.1141    0.3544 H       1  UNL1        0.0302
     43 H          -4.7495    1.5336   -1.2469 H       1  UNL1        0.0302
     44 H          -5.9942   -0.5839   -0.9342 H       1  UNL1        0.0423
     45 H          -6.9989    0.8469   -0.6693 H       1  UNL1        0.0423
     46 H          -5.8652   -0.7715    1.5388 H       1  UNL1        0.1182
     47 H          -7.5083   -0.4695    1.1386 H       1  UNL1        0.1182
@<TRIPOS>BOND
     1     1     2    1
     2     2     3    1
     3     3     4   ar
     4     4     5   ar
     5     5     6   ar
     6     6     7    1
     7     6     8   ar
     8     8     9   ar
     9     9    10    1
    10    10    11    1
    11    11    12    1
    12    12    13    1
    13    13    14    1
    14    14    15    1
    15    15    16    1
    16    16    17    1
    17    17    18    1
    18    18    19    1
    19    19    20    1
    20    17    21    1
    21     9     3   ar
    22    21    14    1
    23     1    22    1
    24     1    23    1
    25     1    24    1
    26     4    25    1
    27     5    26    1
    28     8    27    1
    29    10    28    1
    30    10    29    1
    31    11    30    1
    32    11    31    1
    33    12    32    1
    34    12    33    1
    35    13    34    1
    36    13    35    1
    37    14    36    1
    38    15    37    1
    39    15    38    1
    40    16    39    1
    41    16    40    1
    42    17    41    1
    43    18    42    1
    44    18    43    1
    45    19    44    1
    46    19    45    1
    47    20    46    1
    48    20    47    1
