
     RDKit          3D

 51 53  0  0  0  0  0  0  0  0999 V2000
   -3.6413    3.1401    1.1594 N   0  0  0  0  0  0  0  0  0  0  0  0
   -4.0693    1.8480    0.7197 C   0  0  0  0  0  0  0  0  0  0  0  0
   -3.2292    0.9345    0.3876 N   0  0  0  0  0  0  0  0  0  0  0  0
   -3.7697   -0.3640   -0.0503 C   0  0  2  0  0  0  0  0  0  0  0  0
   -4.2118   -1.0335    1.2656 C   0  0  0  0  0  0  0  0  0  0  0  0
   -4.7479   -2.2534    0.9691 F   0  0  0  0  0  0  0  0  0  0  0  0
   -2.6443   -1.1179   -0.6350 C   0  0  0  0  0  0  0  0  0  0  0  0
   -1.3863   -0.5652   -0.6275 C   0  0  0  0  0  0  0  0  0  0  0  0
   -0.2838   -1.2409   -1.1450 C   0  0  0  0  0  0  0  0  0  0  0  0
    1.0247   -0.6893   -1.1478 N   0  0  0  0  0  0  0  0  0  0  0  0
    1.9447   -0.8730   -0.0767 C   0  0  0  0  0  0  0  0  0  0  0  0
    1.5504   -1.5559    0.8941 O   0  0  0  0  0  0  0  0  0  0  0  0
    3.2857   -0.3025   -0.0894 C   0  0  0  0  0  0  0  0  0  0  0  0
    4.1198   -0.5239    0.9847 C   0  0  0  0  0  0  0  0  0  0  0  0
    5.4127   -0.0028    1.0269 C   0  0  0  0  0  0  0  0  0  0  0  0
    5.8546    0.7401   -0.0189 C   0  0  0  0  0  0  0  0  0  0  0  0
    7.1285    1.2751   -0.0178 O   0  0  0  0  0  0  0  0  0  0  0  0
    7.9669    1.0438    1.0782 C   0  0  0  0  0  0  0  0  0  0  0  0
    9.3134    1.6793    0.9478 C   0  0  0  0  0  0  0  0  0  0  0  0
   10.0064    1.2249   -0.1522 F   0  0  0  0  0  0  0  0  0  0  0  0
    9.1427    3.0495    0.9196 F   0  0  0  0  0  0  0  0  0  0  0  0
   10.0377    1.3496    2.0925 F   0  0  0  0  0  0  0  0  0  0  0  0
    5.0124    0.9560   -1.0890 C   0  0  0  0  0  0  0  0  0  0  0  0
    3.7636    0.4333   -1.0934 N   0  0  0  0  0  0  0  0  0  0  0  0
   -0.4756   -2.4967   -1.6754 C   0  0  0  0  0  0  0  0  0  0  0  0
   -1.7159   -3.0769   -1.6991 C   0  0  0  0  0  0  0  0  0  0  0  0
   -2.7898   -2.3540   -1.1663 C   0  0  0  0  0  0  0  0  0  0  0  0
   -3.9771   -2.9526   -1.2346 F   0  0  0  0  0  0  0  0  0  0  0  0
   -4.9374   -0.2408   -0.9573 C   0  0  0  0  0  0  0  0  0  0  0  0
   -5.8791    0.8400   -0.5379 C   0  0  1  0  0  0  0  0  0  0  0  0
   -7.2854    0.3311   -0.2561 C   0  0  0  0  0  0  0  0  0  0  0  0
   -7.8194   -0.2612   -1.4020 F   0  0  0  0  0  0  0  0  0  0  0  0
   -8.1339    1.3538    0.0791 F   0  0  0  0  0  0  0  0  0  0  0  0
   -7.3291   -0.6091    0.7427 F   0  0  0  0  0  0  0  0  0  0  0  0
   -5.4319    1.5171    0.6298 O   0  0  0  0  0  0  0  0  0  0  0  0
   -3.5020    3.8850    0.4630 H   0  0  0  0  0  0  0  0  0  0  0  0
   -3.4759    3.3190    2.1589 H   0  0  0  0  0  0  0  0  0  0  0  0
   -3.2621   -1.2421    1.8231 H   0  0  0  0  0  0  0  0  0  0  0  0
   -4.8959   -0.4076    1.8369 H   0  0  0  0  0  0  0  0  0  0  0  0
   -1.2179    0.4176   -0.2160 H   0  0  0  0  0  0  0  0  0  0  0  0
    1.3601   -0.1161   -1.9591 H   0  0  0  0  0  0  0  0  0  0  0  0
    3.7593   -1.1090    1.7987 H   0  0  0  0  0  0  0  0  0  0  0  0
    6.0691   -0.1805    1.8787 H   0  0  0  0  0  0  0  0  0  0  0  0
    7.4724    1.4835    1.9715 H   0  0  0  0  0  0  0  0  0  0  0  0
    8.1164   -0.0621    1.2459 H   0  0  0  0  0  0  0  0  0  0  0  0
    5.3983    1.5514   -1.9022 H   0  0  0  0  0  0  0  0  0  0  0  0
    0.4110   -3.0060   -2.0758 H   0  0  0  0  0  0  0  0  0  0  0  0
   -1.8495   -4.0558   -2.1156 H   0  0  0  0  0  0  0  0  0  0  0  0
   -5.5177   -1.2078   -0.8657 H   0  0  0  0  0  0  0  0  0  0  0  0
   -4.6586   -0.0703   -2.0211 H   0  0  0  0  0  0  0  0  0  0  0  0
   -6.0135    1.5983   -1.3625 H   0  0  0  0  0  0  0  0  0  0  0  0
  1  2  1  0
  2  3  2  0
  3  4  1  0
  4  5  1  1
  5  6  1  0
  4  7  1  0
  7  8  2  0
  8  9  1  0
  9 10  1  0
 10 11  1  0
 11 12  2  0
 11 13  1  0
 13 14  2  0
 14 15  1  0
 15 16  2  0
 16 17  1  0
 17 18  1  0
 18 19  1  0
 19 20  1  0
 19 21  1  0
 19 22  1  0
 16 23  1  0
 23 24  2  0
  9 25  2  0
 25 26  1  0
 26 27  2  0
 27 28  1  0
  4 29  1  0
 29 30  1  0
 30 31  1  0
 31 32  1  0
 31 33  1  0
 31 34  1  0
 30 35  1  0
 35  2  1  0
 27  7  1  0
 24 13  1  0
  1 36  1  0
  1 37  1  0
  5 38  1  0
  5 39  1  0
  8 40  1  0
 10 41  1  0
 14 42  1  0
 15 43  1  0
 18 44  1  0
 18 45  1  0
 23 46  1  0
 25 47  1  0
 26 48  1  0
 29 49  1  0
 29 50  1  0
 30 51  1  6
M  END
$$$$
