@<TRIPOS>MOLECULE
*****
 51 53 0 0 0
SMALL
GASTEIGER

@<TRIPOS>ATOM
      1 N          -3.6413    3.1401    1.1594 N.pl3   1  UNL1       -0.3134
      2 C          -4.0693    1.8480    0.7197 C.2     1  UNL1        0.2766
      3 N          -3.2292    0.9345    0.3876 N.2     1  UNL1       -0.2228
      4 C          -3.7697   -0.3640   -0.0503 C.3     1  UNL1        0.1258
      5 C          -4.2118   -1.0335    1.2656 C.3     1  UNL1        0.1196
      6 F          -4.7479   -2.2534    0.9691 F       1  UNL1       -0.2462
      7 C          -2.6443   -1.1179   -0.6350 C.ar    1  UNL1        0.0196
      8 C          -1.3863   -0.5652   -0.6275 C.ar    1  UNL1       -0.0322
      9 C          -0.2838   -1.2409   -1.1450 C.ar    1  UNL1        0.0342
     10 N           1.0247   -0.6893   -1.1478 N.am    1  UNL1       -0.2802
     11 C           1.9447   -0.8730   -0.0767 C.2     1  UNL1        0.2666
     12 O           1.5504   -1.5559    0.8941 O.2     1  UNL1       -0.2682
     13 C           3.2857   -0.3025   -0.0894 C.ar    1  UNL1        0.1259
     14 C           4.1198   -0.5239    0.9847 C.ar    1  UNL1       -0.0277
     15 C           5.4127   -0.0028    1.0269 C.ar    1  UNL1       -0.0163
     16 C           5.8546    0.7401   -0.0189 C.ar    1  UNL1        0.1390
     17 O           7.1285    1.2751   -0.0178 O.3     1  UNL1       -0.4815
     18 C           7.9669    1.0438    1.0782 C.3     1  UNL1        0.1842
     19 C           9.3134    1.6793    0.9478 C.3     1  UNL1        0.4236
     20 F          10.0064    1.2249   -0.1522 F       1  UNL1       -0.1671
     21 F           9.1427    3.0495    0.9196 F       1  UNL1       -0.1671
     22 F          10.0377    1.3496    2.0925 F       1  UNL1       -0.1671
     23 C           5.0124    0.9560   -1.0890 C.ar    1  UNL1        0.0700
     24 N           3.7636    0.4333   -1.0934 N.ar    1  UNL1       -0.2467
     25 C          -0.4756   -2.4967   -1.6754 C.ar    1  UNL1       -0.0377
     26 C          -1.7159   -3.0769   -1.6991 C.ar    1  UNL1       -0.0243
     27 C          -2.7898   -2.3540   -1.1663 C.ar    1  UNL1        0.1291
     28 F          -3.9771   -2.9526   -1.2346 F       1  UNL1       -0.2051
     29 C          -4.9374   -0.2408   -0.9573 C.3     1  UNL1        0.0251
     30 C          -5.8791    0.8400   -0.5379 C.3     1  UNL1        0.1998
     31 C          -7.2854    0.3311   -0.2561 C.3     1  UNL1        0.4266
     32 F          -7.8194   -0.2612   -1.4020 F       1  UNL1       -0.1669
     33 F          -8.1339    1.3538    0.0791 F       1  UNL1       -0.1669
     34 F          -7.3291   -0.6091    0.7427 F       1  UNL1       -0.1669
     35 O          -5.4319    1.5171    0.6298 O.2     1  UNL1       -0.4534
     36 H          -3.5020    3.8850    0.4630 H       1  UNL1        0.1466
     37 H          -3.4759    3.3190    2.1589 H       1  UNL1        0.1466
     38 H          -3.2621   -1.2421    1.8231 H       1  UNL1        0.0643
     39 H          -4.8959   -0.4076    1.8369 H       1  UNL1        0.0643
     40 H          -1.2179    0.4176   -0.2160 H       1  UNL1        0.0640
     41 H           1.3601   -0.1161   -1.9591 H       1  UNL1        0.1552
     42 H           3.7593   -1.1090    1.7987 H       1  UNL1        0.0641
     43 H           6.0691   -0.1805    1.8787 H       1  UNL1        0.0655
     44 H           7.4724    1.4835    1.9715 H       1  UNL1        0.0788
     45 H           8.1164   -0.0621    1.2459 H       1  UNL1        0.0788
     46 H           5.3983    1.5514   -1.9022 H       1  UNL1        0.0867
     47 H           0.4110   -3.0060   -2.0758 H       1  UNL1        0.0637
     48 H          -1.8495   -4.0558   -2.1156 H       1  UNL1        0.0647
     49 H          -5.5177   -1.2078   -0.8657 H       1  UNL1        0.0331
     50 H          -4.6586   -0.0703   -2.0211 H       1  UNL1        0.0331
     51 H          -6.0135    1.5983   -1.3625 H       1  UNL1        0.0826
@<TRIPOS>BOND
     1     1     2    1
     2     2     3    2
     3     3     4    1
     4     4     5    1
     5     5     6    1
     6     4     7    1
     7     7     8   ar
     8     8     9   ar
     9     9    10    1
    10    10    11   am
    11    11    12    2
    12    11    13    1
    13    13    14   ar
    14    14    15   ar
    15    15    16   ar
    16    16    17    1
    17    17    18    1
    18    18    19    1
    19    19    20    1
    20    19    21    1
    21    19    22    1
    22    16    23   ar
    23    23    24   ar
    24     9    25   ar
    25    25    26   ar
    26    26    27   ar
    27    27    28    1
    28     4    29    1
    29    29    30    1
    30    30    31    1
    31    31    32    1
    32    31    33    1
    33    31    34    1
    34    30    35    1
    35    35     2    1
    36    27     7   ar
    37    24    13   ar
    38     1    36    1
    39     1    37    1
    40     5    38    1
    41     5    39    1
    42     8    40    1
    43    10    41    1
    44    14    42    1
    45    15    43    1
    46    18    44    1
    47    18    45    1
    48    23    46    1
    49    25    47    1
    50    26    48    1
    51    29    49    1
    52    29    50    1
    53    30    51    1
