@<TRIPOS>MOLECULE
*****
 40 42 0 0 0
SMALL
GASTEIGER

@<TRIPOS>ATOM
      1 C           4.4976    0.2073    1.1497 C.3     1  UNL1       -0.0130
      2 N           3.1936   -0.2405    0.6162 N.3     1  UNL1       -0.3083
      3 C           3.5595   -1.1449   -0.4728 C.3     1  UNL1       -0.0130
      4 C           2.5724    0.9573    0.0598 C.3     1  UNL1       -0.0003
      5 C           1.1848    0.7366   -0.4431 C.3     1  UNL1       -0.0240
      6 C           0.2773    0.2919    0.6795 C.3     1  UNL1        0.0185
      7 N          -1.0922    0.0615    0.2337 N.pl3   1  UNL1       -0.2982
      8 C          -1.3429   -1.1605   -0.4542 C.ar    1  UNL1        0.0479
      9 C          -0.3038   -2.0873   -0.6343 C.ar    1  UNL1       -0.0393
     10 C          -0.4862   -3.2896   -1.2863 C.ar    1  UNL1       -0.0599
     11 C          -1.7090   -3.6377   -1.7946 C.ar    1  UNL1       -0.0606
     12 C          -2.7299   -2.7504   -1.6286 C.ar    1  UNL1       -0.0462
     13 C          -2.5446   -1.5563   -0.9796 C.ar    1  UNL1        0.0341
     14 S          -3.9569   -0.4546   -0.7989 S.3     1  UNL1       -0.0857
     15 C          -3.3762    0.9549    0.0754 C.ar    1  UNL1        0.0342
     16 C          -4.2621    1.9381    0.3287 C.ar    1  UNL1       -0.0448
     17 C          -3.9514    3.1096    0.9958 C.ar    1  UNL1       -0.0422
     18 C          -2.6446    3.2278    1.4044 C.ar    1  UNL1        0.0428
     19 CL         -2.1351    4.6754    2.2622 Cl      1  UNL1       -0.0835
     20 C          -1.7055    2.2227    1.1543 C.ar    1  UNL1       -0.0209
     21 C          -2.0695    1.0598    0.4780 C.ar    1  UNL1        0.0493
     22 H           4.9098    0.9312    0.4352 H       1  UNL1        0.0391
     23 H           5.1529   -0.6876    1.1593 H       1  UNL1        0.0391
     24 H           4.3753    0.5931    2.1785 H       1  UNL1        0.0391
     25 H           3.8890   -2.0874    0.0023 H       1  UNL1        0.0391
     26 H           4.4500   -0.6842   -0.9692 H       1  UNL1        0.0391
     27 H           2.7630   -1.3207   -1.1952 H       1  UNL1        0.0391
     28 H           2.5758    1.7451    0.8287 H       1  UNL1        0.0427
     29 H           3.2426    1.3047   -0.7537 H       1  UNL1        0.0427
     30 H           0.7997    1.7563   -0.7664 H       1  UNL1        0.0293
     31 H           1.0923    0.1235   -1.3328 H       1  UNL1        0.0293
     32 H           0.7069   -0.6332    1.1919 H       1  UNL1        0.0468
     33 H           0.3312    1.0156    1.5162 H       1  UNL1        0.0468
     34 H           0.6781   -1.8408   -0.2286 H       1  UNL1        0.0636
     35 H           0.3419   -3.9748   -1.4048 H       1  UNL1        0.0618
     36 H          -1.8634   -4.5954   -2.3174 H       1  UNL1        0.0618
     37 H          -3.7291   -2.9787   -2.0152 H       1  UNL1        0.0629
     38 H          -5.3158    1.8681    0.0110 H       1  UNL1        0.0630
     39 H          -4.6550    3.9019    1.2028 H       1  UNL1        0.0632
     40 H          -0.7206    2.4423    1.5122 H       1  UNL1        0.0651
@<TRIPOS>BOND
     1     1     2    1
     2     2     3    1
     3     2     4    1
     4     4     5    1
     5     5     6    1
     6     6     7    1
     7     7     8    1
     8     8     9   ar
     9     9    10   ar
    10    10    11   ar
    11    11    12   ar
    12    12    13   ar
    13    13    14    1
    14    14    15    1
    15    15    16   ar
    16    16    17   ar
    17    17    18   ar
    18    18    19    1
    19    18    20   ar
    20    20    21   ar
    21    21     7    1
    22    13     8   ar
    23    21    15   ar
    24     1    22    1
    25     1    23    1
    26     1    24    1
    27     3    25    1
    28     3    26    1
    29     3    27    1
    30     4    28    1
    31     4    29    1
    32     5    30    1
    33     5    31    1
    34     6    32    1
    35     6    33    1
    36     9    34    1
    37    10    35    1
    38    11    36    1
    39    12    37    1
    40    16    38    1
    41    17    39    1
    42    20    40    1
