@<TRIPOS>MOLECULE
*****
 46 49 0 0 0
SMALL
GASTEIGER

@<TRIPOS>ATOM
      1 C           8.2450   -0.5896    0.1521 C.3     1  UNL1        0.0789
      2 O           7.3815   -0.4687   -0.9635 O.3     1  UNL1       -0.4935
      3 C           6.0299   -0.3552   -0.7648 C.ar    1  UNL1        0.1409
      4 C           5.4853   -0.3561    0.5109 C.ar    1  UNL1        0.0702
      5 N           4.1659   -0.2449    0.6918 N.ar    1  UNL1       -0.2439
      6 C           3.3548   -0.1307   -0.3704 C.ar    1  UNL1        0.1609
      7 C           1.9211   -0.0116   -0.1282 C.2     1  UNL1        0.2694
      8 O           1.1806    0.0934   -1.1179 O.2     1  UNL1       -0.2681
      9 N           1.4340   -0.0188    1.1768 N.am    1  UNL1       -0.2802
     10 C           0.0763    0.0885    1.5449 C.ar    1  UNL1        0.0342
     11 C          -0.2665    0.0660    2.9098 C.ar    1  UNL1       -0.0377
     12 C          -1.5560    0.1644    3.3500 C.ar    1  UNL1       -0.0243
     13 C          -2.6015    0.2928    2.4589 C.ar    1  UNL1        0.1292
     14 F          -3.8731    0.3823    2.9414 F       1  UNL1       -0.2051
     15 C          -2.3192    0.3199    1.1211 C.ar    1  UNL1        0.0228
     16 C          -3.4302    0.4651    0.1107 C.3     1  UNL1        0.1603
     17 C          -4.0114    1.8258    0.3225 C.3     1  UNL1        0.2686
     18 F          -3.0050    2.7527    0.1178 F       1  UNL1       -0.2062
     19 F          -5.0285    2.1450   -0.5369 F       1  UNL1       -0.2062
     20 N          -2.8160    0.4514   -1.1976 N.2     1  UNL1       -0.2194
     21 C          -3.5533    0.1902   -2.2185 C.2     1  UNL1        0.2764
     22 N          -2.9895    0.1655   -3.5492 N.pl3   1  UNL1       -0.3134
     23 O          -4.8941   -0.0613   -1.9667 O.2     1  UNL1       -0.4622
     24 C          -5.2264   -0.9670   -0.9466 C.3     1  UNL1        0.1091
     25 C          -5.7994   -0.6018    0.3492 C.3     1  UNL1       -0.0064
     26 C          -4.3350   -0.6754    0.2615 C.3     1  UNL1        0.0344
     27 C          -0.9964    0.2176    0.7007 C.ar    1  UNL1       -0.0321
     28 C           3.8387   -0.1235   -1.6675 C.ar    1  UNL1        0.1572
     29 F           2.9498   -0.0035   -2.7011 F       1  UNL1       -0.2030
     30 C           5.1822   -0.2361   -1.8682 C.ar    1  UNL1        0.0191
     31 H           9.3003   -0.5150   -0.1993 H       1  UNL1        0.0660
     32 H           8.0574   -1.5805    0.6170 H       1  UNL1        0.0660
     33 H           8.0210    0.2526    0.8456 H       1  UNL1        0.0660
     34 H           6.1529   -0.4498    1.3780 H       1  UNL1        0.0867
     35 H           2.1381   -0.1124    1.9560 H       1  UNL1        0.1552
     36 H           0.5558   -0.0358    3.6319 H       1  UNL1        0.0637
     37 H          -1.7903    0.1433    4.4298 H       1  UNL1        0.0647
     38 H          -4.3507    1.9425    1.3678 H       1  UNL1        0.1047
     39 H          -3.1074    0.9517   -4.2159 H       1  UNL1        0.1466
     40 H          -2.4561   -0.6934   -3.7973 H       1  UNL1        0.1466
     41 H          -5.3301   -2.0175   -1.3044 H       1  UNL1        0.0737
     42 H          -6.3024   -1.4225    0.9048 H       1  UNL1        0.0306
     43 H          -6.3344    0.3655    0.5143 H       1  UNL1        0.0306
     44 H          -3.8431   -1.6179    0.6406 H       1  UNL1        0.0366
     45 H          -0.8161    0.2435   -0.3757 H       1  UNL1        0.0640
     46 H           5.5616   -0.2305   -2.8839 H       1  UNL1        0.0684
@<TRIPOS>BOND
     1     1     2    1
     2     2     3    1
     3     3     4   ar
     4     4     5   ar
     5     5     6   ar
     6     6     7    1
     7     7     8    2
     8     7     9   am
     9     9    10    1
    10    10    11   ar
    11    11    12   ar
    12    12    13   ar
    13    13    14    1
    14    13    15   ar
    15    15    16    1
    16    16    17    1
    17    17    18    1
    18    17    19    1
    19    16    20    1
    20    20    21    2
    21    21    22    1
    22    21    23    1
    23    23    24    1
    24    24    25    1
    25    25    26    1
    26    15    27   ar
    27     6    28   ar
    28    28    29    1
    29    28    30   ar
    30    30     3   ar
    31    27    10   ar
    32    26    16    1
    33    26    24    1
    34     1    31    1
    35     1    32    1
    36     1    33    1
    37     4    34    1
    38     9    35    1
    39    11    36    1
    40    12    37    1
    41    17    38    1
    42    22    39    1
    43    22    40    1
    44    24    41    1
    45    25    42    1
    46    25    43    1
    47    26    44    1
    48    27    45    1
    49    30    46    1
