
     RDKit          3D

 46 49  0  0  0  0  0  0  0  0999 V2000
    8.2450   -0.5896    0.1521 C   0  0  0  0  0  0  0  0  0  0  0  0
    7.3815   -0.4687   -0.9635 O   0  0  0  0  0  0  0  0  0  0  0  0
    6.0299   -0.3552   -0.7648 C   0  0  0  0  0  0  0  0  0  0  0  0
    5.4853   -0.3561    0.5109 C   0  0  0  0  0  0  0  0  0  0  0  0
    4.1659   -0.2449    0.6918 N   0  0  0  0  0  0  0  0  0  0  0  0
    3.3548   -0.1307   -0.3704 C   0  0  0  0  0  0  0  0  0  0  0  0
    1.9211   -0.0116   -0.1282 C   0  0  0  0  0  0  0  0  0  0  0  0
    1.1806    0.0934   -1.1179 O   0  0  0  0  0  0  0  0  0  0  0  0
    1.4340   -0.0188    1.1768 N   0  0  0  0  0  0  0  0  0  0  0  0
    0.0763    0.0885    1.5449 C   0  0  0  0  0  0  0  0  0  0  0  0
   -0.2665    0.0660    2.9098 C   0  0  0  0  0  0  0  0  0  0  0  0
   -1.5560    0.1644    3.3500 C   0  0  0  0  0  0  0  0  0  0  0  0
   -2.6015    0.2928    2.4589 C   0  0  0  0  0  0  0  0  0  0  0  0
   -3.8731    0.3823    2.9414 F   0  0  0  0  0  0  0  0  0  0  0  0
   -2.3192    0.3199    1.1211 C   0  0  0  0  0  0  0  0  0  0  0  0
   -3.4302    0.4651    0.1107 C   0  0  1  0  0  0  0  0  0  0  0  0
   -4.0114    1.8258    0.3225 C   0  0  0  0  0  0  0  0  0  0  0  0
   -3.0050    2.7527    0.1178 F   0  0  0  0  0  0  0  0  0  0  0  0
   -5.0285    2.1450   -0.5369 F   0  0  0  0  0  0  0  0  0  0  0  0
   -2.8160    0.4514   -1.1976 N   0  0  0  0  0  0  0  0  0  0  0  0
   -3.5533    0.1902   -2.2185 C   0  0  0  0  0  0  0  0  0  0  0  0
   -2.9895    0.1655   -3.5492 N   0  0  0  0  0  0  0  0  0  0  0  0
   -4.8941   -0.0613   -1.9667 O   0  0  0  0  0  0  0  0  0  0  0  0
   -5.2264   -0.9670   -0.9466 C   0  0  2  0  0  0  0  0  0  0  0  0
   -5.7994   -0.6018    0.3492 C   0  0  0  0  0  0  0  0  0  0  0  0
   -4.3350   -0.6754    0.2615 C   0  0  2  0  0  0  0  0  0  0  0  0
   -0.9964    0.2176    0.7007 C   0  0  0  0  0  0  0  0  0  0  0  0
    3.8387   -0.1235   -1.6675 C   0  0  0  0  0  0  0  0  0  0  0  0
    2.9498   -0.0035   -2.7011 F   0  0  0  0  0  0  0  0  0  0  0  0
    5.1822   -0.2361   -1.8682 C   0  0  0  0  0  0  0  0  0  0  0  0
    9.3003   -0.5150   -0.1993 H   0  0  0  0  0  0  0  0  0  0  0  0
    8.0574   -1.5805    0.6170 H   0  0  0  0  0  0  0  0  0  0  0  0
    8.0210    0.2526    0.8456 H   0  0  0  0  0  0  0  0  0  0  0  0
    6.1529   -0.4498    1.3780 H   0  0  0  0  0  0  0  0  0  0  0  0
    2.1381   -0.1124    1.9560 H   0  0  0  0  0  0  0  0  0  0  0  0
    0.5558   -0.0358    3.6319 H   0  0  0  0  0  0  0  0  0  0  0  0
   -1.7903    0.1433    4.4298 H   0  0  0  0  0  0  0  0  0  0  0  0
   -4.3507    1.9425    1.3678 H   0  0  0  0  0  0  0  0  0  0  0  0
   -3.1074    0.9517   -4.2159 H   0  0  0  0  0  0  0  0  0  0  0  0
   -2.4561   -0.6934   -3.7973 H   0  0  0  0  0  0  0  0  0  0  0  0
   -5.3301   -2.0175   -1.3044 H   0  0  0  0  0  0  0  0  0  0  0  0
   -6.3024   -1.4225    0.9048 H   0  0  0  0  0  0  0  0  0  0  0  0
   -6.3344    0.3655    0.5143 H   0  0  0  0  0  0  0  0  0  0  0  0
   -3.8431   -1.6179    0.6406 H   0  0  0  0  0  0  0  0  0  0  0  0
   -0.8161    0.2435   -0.3757 H   0  0  0  0  0  0  0  0  0  0  0  0
    5.5616   -0.2305   -2.8839 H   0  0  0  0  0  0  0  0  0  0  0  0
  1  2  1  0
  2  3  1  0
  3  4  2  0
  4  5  1  0
  5  6  2  0
  6  7  1  0
  7  8  2  0
  7  9  1  0
  9 10  1  0
 10 11  2  0
 11 12  1  0
 12 13  2  0
 13 14  1  0
 13 15  1  0
 15 16  1  0
 16 17  1  1
 17 18  1  0
 17 19  1  0
 16 20  1  0
 20 21  2  0
 21 22  1  0
 21 23  1  0
 23 24  1  0
 24 25  1  0
 25 26  1  0
 15 27  2  0
  6 28  1  0
 28 29  1  0
 28 30  2  0
 30  3  1  0
 27 10  1  0
 26 16  1  0
 26 24  1  0
  1 31  1  0
  1 32  1  0
  1 33  1  0
  4 34  1  0
  9 35  1  0
 11 36  1  0
 12 37  1  0
 17 38  1  0
 22 39  1  0
 22 40  1  0
 24 41  1  6
 25 42  1  0
 25 43  1  0
 26 44  1  1
 27 45  1  0
 30 46  1  0
M  END
$$$$
