@<TRIPOS>MOLECULE
*****
 72 74 0 0 0
SMALL
GASTEIGER

@<TRIPOS>ATOM
      1 C          -5.1550   -4.3143   -1.2136 C.3     1  UNL1       -0.0497
      2 C          -5.1277   -3.7417    0.1741 C.3     1  UNL1        0.0048
      3 C          -6.5835   -3.7179    0.6573 C.3     1  UNL1       -0.0497
      4 N          -4.6465   -2.3916    0.2382 N.3     1  UNL1       -0.3000
      5 C          -5.4701   -1.4875   -0.5374 C.3     1  UNL1       -0.0122
      6 C          -3.2833   -2.2144   -0.1312 C.3     1  UNL1        0.0108
      7 C          -2.3109   -3.0070    0.6953 C.3     1  UNL1       -0.0356
      8 C          -0.9105   -2.8354    0.1944 C.3     1  UNL1       -0.0328
      9 C          -0.5355   -1.4842   -0.2518 C.3     1  UNL1        0.0276
     10 N           0.3570   -0.8487    0.7024 N.am    1  UNL1       -0.3109
     11 C           1.6745   -0.4494    0.3709 C.2     1  UNL1        0.2304
     12 O           2.1562   -0.6212   -0.7792 O.2     1  UNL1       -0.2741
     13 C           2.5056    0.1909    1.4192 C.3     1  UNL1        0.0884
     14 N           3.8316    0.5434    0.9175 N.am    1  UNL1       -0.3028
     15 C           4.7151   -0.4253    0.4104 C.2     1  UNL1        0.2445
     16 O           4.3362   -1.6341    0.3935 O.2     1  UNL1       -0.2702
     17 C           6.0216   -0.0580   -0.0799 C.ar    1  UNL1        0.0372
     18 C           6.8399   -1.0682   -0.5901 C.ar    1  UNL1       -0.0496
     19 C           8.0908   -0.8253   -1.0755 C.ar    1  UNL1       -0.0605
     20 C           8.5703    0.4760   -1.0624 C.ar    1  UNL1       -0.0501
     21 C           7.7776    1.4844   -0.5632 C.ar    1  UNL1        0.0555
     22 C           8.3094    2.8705   -0.5578 C.3     1  UNL1        0.4174
     23 F           7.6910    3.6160    0.4533 F       1  UNL1       -0.1659
     24 F           8.0017    3.4515   -1.7679 F       1  UNL1       -0.1659
     25 F           9.6819    2.8984   -0.3965 F       1  UNL1       -0.1659
     26 C           6.4974    1.2248   -0.0683 C.ar    1  UNL1       -0.0380
     27 C          -1.6295   -0.4915   -0.5051 C.3     1  UNL1       -0.0014
     28 C          -1.1689    0.9135   -0.2015 C.3     1  UNL1        0.0754
     29 S          -2.3908    2.1477   -0.4644 S.O2    1  UNL1       -0.0028
     30 O          -3.5589    2.0340    0.4878 O.2     1  UNL1       -0.1693
     31 O          -2.8835    2.1804   -1.8639 O.2     1  UNL1       -0.1693
     32 C          -1.6857    3.7350   -0.1026 C.ar    1  UNL1        0.0882
     33 C          -1.0886    4.4011   -1.1374 C.ar    1  UNL1       -0.0369
     34 C          -0.5154    5.6454   -0.9307 C.ar    1  UNL1       -0.0600
     35 C          -0.5689    6.1747    0.3305 C.ar    1  UNL1       -0.0616
     36 C          -1.1574    5.5386    1.3911 C.ar    1  UNL1       -0.0600
     37 C          -1.7245    4.2896    1.1511 C.ar    1  UNL1       -0.0369
     38 C          -2.9231   -0.7467    0.1694 C.3     1  UNL1       -0.0313
     39 H          -5.3513   -3.5003   -1.9332 H       1  UNL1        0.0245
     40 H          -6.0127   -5.0333   -1.3235 H       1  UNL1        0.0245
     41 H          -4.2487   -4.9049   -1.4548 H       1  UNL1        0.0245
     42 H          -4.5778   -4.4053    0.8300 H       1  UNL1        0.0457
     43 H          -6.7816   -4.5735    1.3360 H       1  UNL1        0.0245
     44 H          -6.7509   -2.8077    1.2634 H       1  UNL1        0.0245
     45 H          -7.2910   -3.6890   -0.1942 H       1  UNL1        0.0245
     46 H          -5.6232   -0.5748    0.0698 H       1  UNL1        0.0391
     47 H          -6.4612   -1.9236   -0.7794 H       1  UNL1        0.0391
     48 H          -4.9101   -1.1965   -1.4460 H       1  UNL1        0.0391
     49 H          -3.1205   -2.4019   -1.2092 H       1  UNL1        0.0463
     50 H          -2.3936   -2.6521    1.7436 H       1  UNL1        0.0281
     51 H          -2.5897   -4.0805    0.6739 H       1  UNL1        0.0281
     52 H          -0.2245   -3.1626    1.0050 H       1  UNL1        0.0284
     53 H          -0.7646   -3.5948   -0.6234 H       1  UNL1        0.0284
     54 H           0.0504   -1.5738   -1.2006 H       1  UNL1        0.0501
     55 H           0.0173   -0.6792    1.6675 H       1  UNL1        0.1490
     56 H           2.5695   -0.4318    2.3319 H       1  UNL1        0.0558
     57 H           1.9992    1.1346    1.6932 H       1  UNL1        0.0558
     58 H           4.1325    1.5400    0.9351 H       1  UNL1        0.1495
     59 H           6.4575   -2.0932   -0.5984 H       1  UNL1        0.0625
     60 H           8.7229   -1.6199   -1.4722 H       1  UNL1        0.0618
     61 H           9.5513    0.6898   -1.4392 H       1  UNL1        0.0623
     62 H           5.9269    2.0578    0.3091 H       1  UNL1        0.0631
     63 H          -1.8576   -0.4747   -1.6161 H       1  UNL1        0.0335
     64 H          -0.2435    1.1788   -0.7534 H       1  UNL1        0.0507
     65 H          -0.8785    0.9824    0.8898 H       1  UNL1        0.0507
     66 H          -1.0376    3.9951   -2.1451 H       1  UNL1        0.0636
     67 H          -0.0495    6.1527   -1.7631 H       1  UNL1        0.0618
     68 H          -0.1071    7.1625    0.4673 H       1  UNL1        0.0618
     69 H          -1.1894    5.9701    2.3727 H       1  UNL1        0.0618
     70 H          -2.1987    3.7531    1.9578 H       1  UNL1        0.0636
     71 H          -2.8105   -0.6157    1.2626 H       1  UNL1        0.0284
     72 H          -3.6929   -0.0812   -0.2763 H       1  UNL1        0.0284
@<TRIPOS>BOND
     1     1     2    1
     2     2     3    1
     3     2     4    1
     4     4     5    1
     5     4     6    1
     6     6     7    1
     7     7     8    1
     8     8     9    1
     9     9    10    1
    10    10    11   am
    11    11    12    2
    12    11    13    1
    13    13    14    1
    14    14    15   am
    15    15    16    2
    16    15    17    1
    17    17    18   ar
    18    18    19   ar
    19    19    20   ar
    20    20    21   ar
    21    21    22    1
    22    22    23    1
    23    22    24    1
    24    22    25    1
    25    21    26   ar
    26     9    27    1
    27    27    28    1
    28    28    29    1
    29    29    30    2
    30    29    31    2
    31    29    32    1
    32    32    33   ar
    33    33    34   ar
    34    34    35   ar
    35    35    36   ar
    36    36    37   ar
    37    27    38    1
    38    38     6    1
    39    26    17   ar
    40    37    32   ar
    41     1    39    1
    42     1    40    1
    43     1    41    1
    44     2    42    1
    45     3    43    1
    46     3    44    1
    47     3    45    1
    48     5    46    1
    49     5    47    1
    50     5    48    1
    51     6    49    1
    52     7    50    1
    53     7    51    1
    54     8    52    1
    55     8    53    1
    56     9    54    1
    57    10    55    1
    58    13    56    1
    59    13    57    1
    60    14    58    1
    61    18    59    1
    62    19    60    1
    63    20    61    1
    64    26    62    1
    65    27    63    1
    66    28    64    1
    67    28    65    1
    68    33    66    1
    69    34    67    1
    70    35    68    1
    71    36    69    1
    72    37    70    1
    73    38    71    1
    74    38    72    1
