
     RDKit          3D

 72 74  0  0  0  0  0  0  0  0999 V2000
   -5.1550   -4.3143   -1.2136 C   0  0  0  0  0  0  0  0  0  0  0  0
   -5.1277   -3.7417    0.1741 C   0  0  0  0  0  0  0  0  0  0  0  0
   -6.5835   -3.7179    0.6573 C   0  0  0  0  0  0  0  0  0  0  0  0
   -4.6465   -2.3916    0.2382 N   0  0  0  0  0  0  0  0  0  0  0  0
   -5.4701   -1.4875   -0.5374 C   0  0  0  0  0  0  0  0  0  0  0  0
   -3.2833   -2.2144   -0.1312 C   0  0  2  0  0  0  0  0  0  0  0  0
   -2.3109   -3.0070    0.6953 C   0  0  0  0  0  0  0  0  0  0  0  0
   -0.9105   -2.8354    0.1944 C   0  0  0  0  0  0  0  0  0  0  0  0
   -0.5355   -1.4842   -0.2518 C   0  0  2  0  0  0  0  0  0  0  0  0
    0.3570   -0.8487    0.7024 N   0  0  0  0  0  0  0  0  0  0  0  0
    1.6745   -0.4494    0.3709 C   0  0  0  0  0  0  0  0  0  0  0  0
    2.1562   -0.6212   -0.7792 O   0  0  0  0  0  0  0  0  0  0  0  0
    2.5056    0.1909    1.4192 C   0  0  0  0  0  0  0  0  0  0  0  0
    3.8316    0.5434    0.9175 N   0  0  0  0  0  0  0  0  0  0  0  0
    4.7151   -0.4253    0.4104 C   0  0  0  0  0  0  0  0  0  0  0  0
    4.3362   -1.6341    0.3935 O   0  0  0  0  0  0  0  0  0  0  0  0
    6.0216   -0.0580   -0.0799 C   0  0  0  0  0  0  0  0  0  0  0  0
    6.8399   -1.0682   -0.5901 C   0  0  0  0  0  0  0  0  0  0  0  0
    8.0908   -0.8253   -1.0755 C   0  0  0  0  0  0  0  0  0  0  0  0
    8.5703    0.4760   -1.0624 C   0  0  0  0  0  0  0  0  0  0  0  0
    7.7776    1.4844   -0.5632 C   0  0  0  0  0  0  0  0  0  0  0  0
    8.3094    2.8705   -0.5578 C   0  0  0  0  0  0  0  0  0  0  0  0
    7.6910    3.6160    0.4533 F   0  0  0  0  0  0  0  0  0  0  0  0
    8.0017    3.4515   -1.7679 F   0  0  0  0  0  0  0  0  0  0  0  0
    9.6819    2.8984   -0.3965 F   0  0  0  0  0  0  0  0  0  0  0  0
    6.4974    1.2248   -0.0683 C   0  0  0  0  0  0  0  0  0  0  0  0
   -1.6295   -0.4915   -0.5051 C   0  0  2  0  0  0  0  0  0  0  0  0
   -1.1689    0.9135   -0.2015 C   0  0  0  0  0  0  0  0  0  0  0  0
   -2.3908    2.1477   -0.4644 S   0  0  0  0  0  6  0  0  0  0  0  0
   -3.5589    2.0340    0.4878 O   0  0  0  0  0  0  0  0  0  0  0  0
   -2.8835    2.1804   -1.8639 O   0  0  0  0  0  0  0  0  0  0  0  0
   -1.6857    3.7350   -0.1026 C   0  0  0  0  0  0  0  0  0  0  0  0
   -1.0886    4.4011   -1.1374 C   0  0  0  0  0  0  0  0  0  0  0  0
   -0.5154    5.6454   -0.9307 C   0  0  0  0  0  0  0  0  0  0  0  0
   -0.5689    6.1747    0.3305 C   0  0  0  0  0  0  0  0  0  0  0  0
   -1.1574    5.5386    1.3911 C   0  0  0  0  0  0  0  0  0  0  0  0
   -1.7245    4.2896    1.1511 C   0  0  0  0  0  0  0  0  0  0  0  0
   -2.9231   -0.7467    0.1694 C   0  0  0  0  0  0  0  0  0  0  0  0
   -5.3513   -3.5003   -1.9332 H   0  0  0  0  0  0  0  0  0  0  0  0
   -6.0127   -5.0333   -1.3235 H   0  0  0  0  0  0  0  0  0  0  0  0
   -4.2487   -4.9049   -1.4548 H   0  0  0  0  0  0  0  0  0  0  0  0
   -4.5778   -4.4053    0.8300 H   0  0  0  0  0  0  0  0  0  0  0  0
   -6.7816   -4.5735    1.3360 H   0  0  0  0  0  0  0  0  0  0  0  0
   -6.7509   -2.8077    1.2634 H   0  0  0  0  0  0  0  0  0  0  0  0
   -7.2910   -3.6890   -0.1942 H   0  0  0  0  0  0  0  0  0  0  0  0
   -5.6232   -0.5748    0.0698 H   0  0  0  0  0  0  0  0  0  0  0  0
   -6.4612   -1.9236   -0.7794 H   0  0  0  0  0  0  0  0  0  0  0  0
   -4.9101   -1.1965   -1.4460 H   0  0  0  0  0  0  0  0  0  0  0  0
   -3.1205   -2.4019   -1.2092 H   0  0  0  0  0  0  0  0  0  0  0  0
   -2.3936   -2.6521    1.7436 H   0  0  0  0  0  0  0  0  0  0  0  0
   -2.5897   -4.0805    0.6739 H   0  0  0  0  0  0  0  0  0  0  0  0
   -0.2245   -3.1626    1.0050 H   0  0  0  0  0  0  0  0  0  0  0  0
   -0.7646   -3.5948   -0.6234 H   0  0  0  0  0  0  0  0  0  0  0  0
    0.0504   -1.5738   -1.2006 H   0  0  0  0  0  0  0  0  0  0  0  0
    0.0173   -0.6792    1.6675 H   0  0  0  0  0  0  0  0  0  0  0  0
    2.5695   -0.4318    2.3319 H   0  0  0  0  0  0  0  0  0  0  0  0
    1.9992    1.1346    1.6932 H   0  0  0  0  0  0  0  0  0  0  0  0
    4.1325    1.5400    0.9351 H   0  0  0  0  0  0  0  0  0  0  0  0
    6.4575   -2.0932   -0.5984 H   0  0  0  0  0  0  0  0  0  0  0  0
    8.7229   -1.6199   -1.4722 H   0  0  0  0  0  0  0  0  0  0  0  0
    9.5513    0.6898   -1.4392 H   0  0  0  0  0  0  0  0  0  0  0  0
    5.9269    2.0578    0.3091 H   0  0  0  0  0  0  0  0  0  0  0  0
   -1.8576   -0.4747   -1.6161 H   0  0  0  0  0  0  0  0  0  0  0  0
   -0.2435    1.1788   -0.7534 H   0  0  0  0  0  0  0  0  0  0  0  0
   -0.8785    0.9824    0.8898 H   0  0  0  0  0  0  0  0  0  0  0  0
   -1.0376    3.9951   -2.1451 H   0  0  0  0  0  0  0  0  0  0  0  0
   -0.0495    6.1527   -1.7631 H   0  0  0  0  0  0  0  0  0  0  0  0
   -0.1071    7.1625    0.4673 H   0  0  0  0  0  0  0  0  0  0  0  0
   -1.1894    5.9701    2.3727 H   0  0  0  0  0  0  0  0  0  0  0  0
   -2.1987    3.7531    1.9578 H   0  0  0  0  0  0  0  0  0  0  0  0
   -2.8105   -0.6157    1.2626 H   0  0  0  0  0  0  0  0  0  0  0  0
   -3.6929   -0.0812   -0.2763 H   0  0  0  0  0  0  0  0  0  0  0  0
  1  2  1  0
  2  3  1  0
  2  4  1  0
  4  5  1  0
  4  6  1  0
  6  7  1  0
  7  8  1  0
  8  9  1  0
  9 10  1  0
 10 11  1  0
 11 12  2  0
 11 13  1  0
 13 14  1  0
 14 15  1  0
 15 16  2  0
 15 17  1  0
 17 18  2  0
 18 19  1  0
 19 20  2  0
 20 21  1  0
 21 22  1  0
 22 23  1  0
 22 24  1  0
 22 25  1  0
 21 26  2  0
  9 27  1  0
 27 28  1  0
 28 29  1  0
 29 30  2  0
 29 31  2  0
 29 32  1  0
 32 33  2  0
 33 34  1  0
 34 35  2  0
 35 36  1  0
 36 37  2  0
 27 38  1  0
 38  6  1  0
 26 17  1  0
 37 32  1  0
  1 39  1  0
  1 40  1  0
  1 41  1  0
  2 42  1  0
  3 43  1  0
  3 44  1  0
  3 45  1  0
  5 46  1  0
  5 47  1  0
  5 48  1  0
  6 49  1  6
  7 50  1  0
  7 51  1  0
  8 52  1  0
  8 53  1  0
  9 54  1  6
 10 55  1  0
 13 56  1  0
 13 57  1  0
 14 58  1  0
 18 59  1  0
 19 60  1  0
 20 61  1  0
 26 62  1  0
 27 63  1  6
 28 64  1  0
 28 65  1  0
 33 66  1  0
 34 67  1  0
 35 68  1  0
 36 69  1  0
 37 70  1  0
 38 71  1  0
 38 72  1  0
M  END
$$$$
