@<TRIPOS>MOLECULE
*****
 59 62 0 0 0
SMALL
GASTEIGER

@<TRIPOS>ATOM
      1 F          -9.5607   -3.1542    0.6181 F       1  UNL1       -0.2040
      2 C          -8.3108   -2.6346    0.5031 C.ar    1  UNL1        0.1417
      3 C          -8.0946   -1.8231   -0.5742 C.ar    1  UNL1        0.0778
      4 CL         -9.3263   -1.4589   -1.7506 Cl      1  UNL1       -0.0805
      5 C          -6.8602   -1.2605   -0.7568 C.ar    1  UNL1       -0.0194
      6 C          -5.7744   -1.4487    0.0836 C.ar    1  UNL1        0.0339
      7 N          -4.4839   -0.8903   -0.0429 N.pl3   1  UNL1       -0.2988
      8 C          -3.2757   -1.1868    0.6055 C.ar    1  UNL1        0.1339
      9 N          -3.1629   -2.1829    1.4908 N.ar    1  UNL1       -0.2200
     10 C          -2.0256   -2.4711    2.1150 C.ar    1  UNL1        0.1187
     11 N          -0.9108   -1.7687    1.8885 N.ar    1  UNL1       -0.2352
     12 C          -1.0012   -0.7593    0.9995 C.ar    1  UNL1        0.0796
     13 C           0.1702   -0.0690    0.8016 C.ar    1  UNL1        0.0080
     14 C           0.2682    0.9841   -0.0620 C.ar    1  UNL1        0.1437
     15 O           1.2667    1.8028   -0.4246 O.3     1  UNL1       -0.4900
     16 C           2.5857    1.9432   -0.1120 C.3     1  UNL1        0.0908
     17 C           3.3671    0.7043   -0.4741 C.3     1  UNL1       -0.0058
     18 C           4.8440    0.8586   -0.1769 C.3     1  UNL1        0.0021
     19 N           5.4811   -0.3860   -0.5603 N.3     1  UNL1       -0.2979
     20 C           6.9115   -0.3171   -0.4916 C.3     1  UNL1        0.0224
     21 C           7.5954   -1.4220    0.2273 C.3     1  UNL1        0.0604
     22 O           7.0312   -2.6150   -0.2411 O.3     1  UNL1       -0.3772
     23 C           5.7798   -2.6751    0.3718 C.3     1  UNL1        0.0604
     24 C           4.8885   -1.5322    0.0506 C.3     1  UNL1        0.0224
     25 C          -0.9134    1.3199   -0.7401 C.ar    1  UNL1        0.0766
     26 N          -1.0205    2.3992   -1.6978 N.am    1  UNL1       -0.2790
     27 C          -1.3564    3.6062   -1.0312 C.2     1  UNL1        0.2406
     28 O          -1.5022    3.5690    0.2062 O.2     1  UNL1       -0.2705
     29 C          -1.5169    4.8297   -1.8051 C.2     1  UNL1       -0.0066
     30 C          -1.8208    5.9292   -1.1618 C.2     1  UNL1       -0.0938
     31 C          -2.1103    0.6180   -0.5406 C.ar    1  UNL1       -0.0244
     32 C          -2.1601   -0.4363    0.3391 C.ar    1  UNL1        0.0424
     33 C          -6.0355   -2.2760    1.1609 C.ar    1  UNL1       -0.0377
     34 C          -7.2796   -2.8670    1.3811 C.ar    1  UNL1       -0.0232
     35 H          -6.6767   -0.6154   -1.6131 H       1  UNL1        0.0652
     36 H          -4.5542   -0.1467   -0.7596 H       1  UNL1        0.1536
     37 H          -1.9848   -3.3012    2.8345 H       1  UNL1        0.1048
     38 H           1.0770   -0.2990    1.3091 H       1  UNL1        0.0676
     39 H           3.0174    2.7668   -0.7283 H       1  UNL1        0.0697
     40 H           2.7487    2.2206    0.9622 H       1  UNL1        0.0697
     41 H           3.0263   -0.2201    0.0024 H       1  UNL1        0.0310
     42 H           3.2779    0.5385   -1.5824 H       1  UNL1        0.0310
     43 H           5.3219    1.6844   -0.7304 H       1  UNL1        0.0428
     44 H           4.9833    1.0943    0.8982 H       1  UNL1        0.0428
     45 H           7.2241    0.6943   -0.1651 H       1  UNL1        0.0449
     46 H           7.2558   -0.3897   -1.5759 H       1  UNL1        0.0449
     47 H           7.5243   -1.2998    1.3060 H       1  UNL1        0.0572
     48 H           8.6742   -1.4206   -0.0773 H       1  UNL1        0.0572
     49 H           5.3102   -3.6314    0.0662 H       1  UNL1        0.0572
     50 H           5.9572   -2.7779    1.4892 H       1  UNL1        0.0572
     51 H           4.0410   -1.8746   -0.5902 H       1  UNL1        0.0449
     52 H           4.4036   -1.2409    1.0313 H       1  UNL1        0.0449
     53 H          -0.9121    2.4956   -2.7289 H       1  UNL1        0.1552
     54 H          -1.4161    4.8978   -2.8631 H       1  UNL1        0.0663
     55 H          -2.0023    6.2254   -0.1497 H       1  UNL1        0.0536
     56 H          -2.0658    6.8594   -0.7144 H       1  UNL1        0.0536
     57 H          -2.9921    0.8998   -1.0722 H       1  UNL1        0.0645
     58 H          -5.3760   -2.5717    1.9441 H       1  UNL1        0.0637
     59 H          -7.5491   -3.5174    2.1948 H       1  UNL1        0.0647
@<TRIPOS>BOND
     1     1     2    1
     2     2     3   ar
     3     3     4    1
     4     3     5   ar
     5     5     6   ar
     6     6     7    1
     7     7     8    1
     8     8     9   ar
     9     9    10   ar
    10    10    11   ar
    11    11    12   ar
    12    12    13   ar
    13    13    14   ar
    14    14    15    1
    15    15    16    1
    16    16    17    1
    17    17    18    1
    18    18    19    1
    19    19    20    1
    20    20    21    1
    21    21    22    1
    22    22    23    1
    23    23    24    1
    24    14    25   ar
    25    25    26    1
    26    26    27   am
    27    27    28    2
    28    27    29    1
    29    29    30    2
    30    25    31   ar
    31    31    32   ar
    32     6    33   ar
    33    33    34   ar
    34    34     2   ar
    35    32     8   ar
    36    32    12   ar
    37    24    19    1
    38     5    35    1
    39     7    36    1
    40    10    37    1
    41    13    38    1
    42    16    39    1
    43    16    40    1
    44    17    41    1
    45    17    42    1
    46    18    43    1
    47    18    44    1
    48    20    45    1
    49    20    46    1
    50    21    47    1
    51    21    48    1
    52    23    49    1
    53    23    50    1
    54    24    51    1
    55    24    52    1
    56    26    53    1
    57    29    54    1
    58    30    55    1
    59    30    56    1
    60    31    57    1
    61    33    58    1
    62    34    59    1
