@<TRIPOS>MOLECULE
*****
 35 37 0 0 0
SMALL
GASTEIGER

@<TRIPOS>ATOM
      1 N          -5.7777    1.1170    1.2745 N.3     1  UNL1       -0.3267
      2 C          -4.8332    0.8592    0.2012 C.3     1  UNL1        0.0123
      3 C          -5.1645   -0.1225   -0.8605 C.3     1  UNL1       -0.0289
      4 C          -4.2484   -0.5480    0.2302 C.3     1  UNL1        0.0008
      5 C          -2.7829   -0.5627    0.0108 C.ar    1  UNL1       -0.0426
      6 C          -2.1823    0.3006   -0.8783 C.ar    1  UNL1       -0.0565
      7 C          -0.8066    0.2472   -1.0479 C.ar    1  UNL1       -0.0402
      8 C          -0.0238   -0.6655   -0.3333 C.ar    1  UNL1        0.0337
      9 N           1.4030   -0.6933   -0.5345 N.am    1  UNL1       -0.2815
     10 C           2.2474    0.1136    0.2592 C.2     1  UNL1        0.2483
     11 O           1.7265    0.8667    1.1562 O.2     1  UNL1       -0.2699
     12 C           3.6879    0.1179    0.0919 C.ar    1  UNL1        0.0370
     13 C           4.4560    0.9324    0.9034 C.ar    1  UNL1       -0.0496
     14 C           5.8202    0.9821    0.7956 C.ar    1  UNL1       -0.0610
     15 C           6.4728    0.2100   -0.1387 C.ar    1  UNL1       -0.0617
     16 C           5.7198   -0.6023   -0.9496 C.ar    1  UNL1       -0.0610
     17 C           4.3385   -0.6502   -0.8377 C.ar    1  UNL1       -0.0496
     18 C          -0.6392   -1.5231    0.5530 C.ar    1  UNL1       -0.0402
     19 C          -2.0269   -1.4676    0.7225 C.ar    1  UNL1       -0.0565
     20 H          -6.4430    0.3230    1.2828 H       1  UNL1        0.1185
     21 H          -5.2343    1.2389    2.1466 H       1  UNL1        0.1185
     22 H          -4.1744    1.7169   -0.0058 H       1  UNL1        0.0464
     23 H          -6.1930   -0.5112   -0.8450 H       1  UNL1        0.0287
     24 H          -4.7876    0.0894   -1.8861 H       1  UNL1        0.0287
     25 H          -4.6630   -1.2679    0.9579 H       1  UNL1        0.0364
     26 H          -2.7455    1.0225   -1.4525 H       1  UNL1        0.0621
     27 H          -0.2702    0.8927   -1.7266 H       1  UNL1        0.0636
     28 H           1.7759   -1.3153   -1.2685 H       1  UNL1        0.1551
     29 H           3.9713    1.5562    1.6533 H       1  UNL1        0.0625
     30 H           6.4000    1.6169    1.4304 H       1  UNL1        0.0618
     31 H           7.5601    0.2370   -0.2387 H       1  UNL1        0.0618
     32 H           6.1585   -1.2460   -1.7160 H       1  UNL1        0.0618
     33 H           3.7576   -1.3051   -1.4947 H       1  UNL1        0.0625
     34 H          -0.0479   -2.2311    1.1099 H       1  UNL1        0.0636
     35 H          -2.4511   -2.1690    1.4347 H       1  UNL1        0.0621
@<TRIPOS>BOND
     1     1     2    1
     2     2     3    1
     3     3     4    1
     4     4     5    1
     5     5     6   ar
     6     6     7   ar
     7     7     8   ar
     8     8     9    1
     9     9    10   am
    10    10    11    2
    11    10    12    1
    12    12    13   ar
    13    13    14   ar
    14    14    15   ar
    15    15    16   ar
    16    16    17   ar
    17     8    18   ar
    18    18    19   ar
    19     4     2    1
    20    19     5   ar
    21    17    12   ar
    22     1    20    1
    23     1    21    1
    24     2    22    1
    25     3    23    1
    26     3    24    1
    27     4    25    1
    28     6    26    1
    29     7    27    1
    30     9    28    1
    31    13    29    1
    32    14    30    1
    33    15    31    1
    34    16    32    1
    35    17    33    1
    36    18    34    1
    37    19    35    1
