@<TRIPOS>MOLECULE
*****
 52 56 0 0 0
SMALL
GASTEIGER

@<TRIPOS>ATOM
      1 C           3.9852   -2.7286    0.7186 C.3     1  UNL1       -0.0598
      2 C           4.2637   -1.2759    0.3544 C.3     1  UNL1       -0.0111
      3 C           3.4473   -0.9117   -0.8396 C.ar    1  UNL1        0.0688
      4 N           3.8910   -0.7847   -2.0899 N.ar    1  UNL1       -0.1754
      5 N           2.9218   -0.4531   -2.9220 N.ar    1  UNL1       -0.2617
      6 C           3.0163   -0.2292   -4.3367 C.3     1  UNL1        0.0310
      7 C           1.7918   -0.3611   -2.1719 C.ar    1  UNL1        0.1290
      8 C           2.1150   -0.6453   -0.8710 C.ar    1  UNL1        0.0307
      9 C           0.9227   -0.5342    0.0113 C.3     1  UNL1        0.0854
     10 C           1.0632    0.6066    0.9399 C.ar    1  UNL1       -0.0221
     11 C           1.3574    0.3855    2.2585 C.ar    1  UNL1       -0.0551
     12 C           1.4992    1.4311    3.1678 C.ar    1  UNL1       -0.0431
     13 C           1.3323    2.7115    2.6943 C.ar    1  UNL1        0.0410
     14 CL          1.4943    4.0858    3.7743 Cl      1  UNL1       -0.0835
     15 C           1.0342    2.9823    1.3693 C.ar    1  UNL1       -0.0431
     16 C           0.9032    1.8950    0.5007 C.ar    1  UNL1       -0.0551
     17 N          -0.2000   -0.2379   -0.8746 N.am    1  UNL1       -0.2530
     18 C          -1.5498   -0.1187   -0.4384 C.ar    1  UNL1        0.0577
     19 C          -2.5668    0.2531   -1.2865 C.ar    1  UNL1        0.0067
     20 C          -3.8959    0.3506   -0.8390 C.ar    1  UNL1        0.1663
     21 O          -4.9241    0.7204   -1.6721 O.3     1  UNL1       -0.4913
     22 C          -4.8401    1.0445   -3.0224 C.3     1  UNL1        0.0790
     23 C          -4.1980    0.0699    0.4761 C.ar    1  UNL1        0.2032
     24 N          -5.3362    0.0703    1.1932 N.ar    1  UNL1       -0.1256
     25 N          -5.0806   -0.2815    2.4414 N.ar    1  UNL1       -0.1339
     26 C          -3.7599   -0.5083    2.5164 C.ar    1  UNL1        0.1348
     27 C          -2.9746   -0.9311    3.7160 C.3     1  UNL1       -0.0041
     28 N          -3.2090   -0.2930    1.3054 N.ar    1  UNL1       -0.2819
     29 C          -1.9191   -0.3854    0.8617 C.ar    1  UNL1        0.0346
     30 C           0.3559   -0.1064   -2.1681 C.2     1  UNL1        0.2700
     31 O          -0.3081    0.1968   -3.2078 O.2     1  UNL1       -0.2679
     32 H           3.2904   -3.1767   -0.0374 H       1  UNL1        0.0233
     33 H           3.4858   -2.7892    1.7008 H       1  UNL1        0.0233
     34 H           4.9090   -3.3478    0.6716 H       1  UNL1        0.0233
     35 H           4.0294   -0.5954    1.1894 H       1  UNL1        0.0326
     36 H           5.3513   -1.2072    0.1187 H       1  UNL1        0.0326
     37 H           2.8385   -1.1245   -4.9441 H       1  UNL1        0.0473
     38 H           4.0767    0.0961   -4.5344 H       1  UNL1        0.0473
     39 H           2.3598    0.6135   -4.6339 H       1  UNL1        0.0473
     40 H           0.7530   -1.4853    0.5621 H       1  UNL1        0.0606
     41 H           1.4865   -0.6364    2.6184 H       1  UNL1        0.0621
     42 H           1.7311    1.2668    4.2096 H       1  UNL1        0.0632
     43 H           0.9052    3.9833    1.0064 H       1  UNL1        0.0632
     44 H           0.6701    2.1475   -0.5250 H       1  UNL1        0.0621
     45 H          -2.3685    0.4831   -2.3274 H       1  UNL1        0.0674
     46 H          -5.5606    1.8919   -3.2087 H       1  UNL1        0.0660
     47 H          -5.2002    0.2168   -3.6815 H       1  UNL1        0.0660
     48 H          -3.8668    1.3811   -3.3763 H       1  UNL1        0.0660
     49 H          -2.6608   -1.9770    3.6048 H       1  UNL1        0.0308
     50 H          -3.6192   -0.7667    4.5972 H       1  UNL1        0.0308
     51 H          -2.0765   -0.3017    3.8612 H       1  UNL1        0.0308
     52 H          -1.1665   -0.6896    1.5691 H       1  UNL1        0.0833
@<TRIPOS>BOND
     1     1     2    1
     2     2     3    1
     3     3     4   ar
     4     4     5   ar
     5     5     6    1
     6     5     7   ar
     7     7     8   ar
     8     8     9    1
     9     9    10    1
    10    10    11   ar
    11    11    12   ar
    12    12    13   ar
    13    13    14    1
    14    13    15   ar
    15    15    16   ar
    16     9    17    1
    17    17    18    1
    18    18    19   ar
    19    19    20   ar
    20    20    21    1
    21    21    22    1
    22    20    23   ar
    23    23    24   ar
    24    24    25   ar
    25    25    26   ar
    26    26    27    1
    27    26    28   ar
    28    28    29   ar
    29    17    30   am
    30    30    31    2
    31     8     3   ar
    32    16    10   ar
    33    29    18   ar
    34    30     7    1
    35    28    23   ar
    36     1    32    1
    37     1    33    1
    38     1    34    1
    39     2    35    1
    40     2    36    1
    41     6    37    1
    42     6    38    1
    43     6    39    1
    44     9    40    1
    45    11    41    1
    46    12    42    1
    47    15    43    1
    48    16    44    1
    49    19    45    1
    50    22    46    1
    51    22    47    1
    52    22    48    1
    53    27    49    1
    54    27    50    1
    55    27    51    1
    56    29    52    1
