@<TRIPOS>MOLECULE
*****
 67 72 0 0 0
SMALL
GASTEIGER

@<TRIPOS>ATOM
      1 N           8.1841   -1.5520   -2.5818 N.pl3   1  UNL1       -0.3579
      2 C           8.1905   -1.0657   -1.2603 C.ar    1  UNL1        0.0252
      3 C           9.3647   -0.8151   -0.5832 C.ar    1  UNL1       -0.0391
      4 C           9.3071   -0.3465    0.7014 C.ar    1  UNL1       -0.0361
      5 C           8.1053   -0.1210    1.3295 C.ar    1  UNL1        0.0468
      6 N           7.8080    0.3134    2.5739 N.ar    1  UNL1       -0.3604
      7 C           6.4736    0.3470    2.7077 C.ar    1  UNL1        0.0060
      8 C           5.8588   -0.0725    1.5287 C.ar    1  UNL1       -0.0200
      9 C           4.4375   -0.1648    1.2177 C.3     1  UNL1        0.0032
     10 CA          3.7921    1.0039    0.5644 C.3     1  UNL1        0.1245
     11 N           2.3695    0.6883    0.3098 N.am    1  UNL1       -0.2981
     12 C           1.3254    1.3785    0.9351 C.2     1  UNL1        0.2448
     13 O           1.6159    2.3114    1.7520 O.2     1  UNL1       -0.2702
     14 C          -0.0662    1.0748    0.6908 C.ar    1  UNL1        0.0388
     15 C          -1.0790    1.7632    1.3284 C.ar    1  UNL1       -0.0476
     16 C          -2.4208    1.5136    1.1328 C.ar    1  UNL1       -0.0353
     17 C          -2.7810    0.5189    0.2495 C.ar    1  UNL1        0.0694
     18 C          -1.7942   -0.1899   -0.4058 C.ar    1  UNL1        0.0904
     19 C          -0.4493    0.0851   -0.1876 C.ar    1  UNL1       -0.0221
     20 N          -2.4580   -1.0675   -1.1760 N.ar    1  UNL1       -0.2274
     21 C          -3.7912   -0.9127   -1.0082 C.ar    1  UNL1        0.1451
     22 C          -4.7448   -1.7229   -1.7089 C.ar    1  UNL1        0.0551
     23 C          -4.8394   -1.7777   -3.0966 C.ar    1  UNL1       -0.0132
     24 C          -5.8510   -2.6571   -3.4093 C.ar    1  UNL1        0.0924
     25 O          -6.3441   -3.1119   -2.2843 O.2     1  UNL1       -0.4703
     26 C          -5.7182   -2.5843   -1.2639 C.ar    1  UNL1        0.1023
     27 N          -4.0034    0.0604   -0.1335 N.ar    1  UNL1       -0.3204
     28 C          -5.2237    0.5715    0.3541 C.3     1  UNL1        0.0365
     29 C          -5.6857   -0.0815    1.6522 C.3     1  UNL1       -0.0320
     30 C          -6.8898    0.6405    2.2225 C.3     1  UNL1       -0.0512
     31 C          -8.0207    0.7710    1.2664 C.3     1  UNL1       -0.0529
     32 C          -7.6497   -0.0539    0.0264 C.3     1  UNL1       -0.0512
     33 C          -6.3981    0.5767   -0.5512 C.3     1  UNL1       -0.0320
     34 C           4.4079    1.4416   -0.6817 C.2     1  UNL1        0.3256
     35 O           3.7512    1.3387   -1.7622 O.2     1  UNL1       -0.2489
     36 OXT         5.7000    1.9822   -0.7525 O.3     1  UNL1       -0.4793
     37 C           6.9024   -0.3682    0.6597 C.ar    1  UNL1        0.0046
     38 C           6.9924   -0.8376   -0.6265 C.ar    1  UNL1       -0.0316
     39 H           8.0279   -2.5529   -2.7694 H       1  UNL1        0.1423
     40 H           8.3365   -0.9050   -3.3748 H       1  UNL1        0.1423
     41 H          10.3201   -0.9812   -1.0463 H       1  UNL1        0.0637
     42 H          10.2407   -0.1492    1.2344 H       1  UNL1        0.0639
     43 H           8.5058    0.5761    3.3018 H       1  UNL1        0.1653
     44 H           5.8934    0.6460    3.5758 H       1  UNL1        0.0810
     45 H           4.3203   -1.0647    0.5383 H       1  UNL1        0.0337
     46 H           3.8393   -0.4566    2.1204 H       1  UNL1        0.0337
     47 HA          3.7815    1.8515    1.2993 H       1  UNL1        0.0618
     48 H           2.1863   -0.0745   -0.3598 H       1  UNL1        0.1498
     49 H          -0.8088    2.5574    2.0347 H       1  UNL1        0.0626
     50 H          -3.1987    2.0629    1.6406 H       1  UNL1        0.0639
     51 H           0.2544   -0.5133   -0.7395 H       1  UNL1        0.0647
     52 H          -4.2310   -1.2300   -3.8179 H       1  UNL1        0.0656
     53 H          -6.2103   -2.9524   -4.3788 H       1  UNL1        0.1029
     54 H          -5.9230   -2.7849   -0.2237 H       1  UNL1        0.1036
     55 H          -5.0576    1.6563    0.6771 H       1  UNL1        0.0528
     56 H          -5.8675   -1.1408    1.5104 H       1  UNL1        0.0285
     57 H          -4.8946    0.1159    2.4413 H       1  UNL1        0.0285
     58 H          -7.2288    0.0310    3.0909 H       1  UNL1        0.0266
     59 H          -6.5659    1.6141    2.6615 H       1  UNL1        0.0266
     60 H          -8.1504    1.8278    0.9766 H       1  UNL1        0.0265
     61 H          -8.9671    0.4288    1.7069 H       1  UNL1        0.0265
     62 H          -7.5395   -1.0742    0.3797 H       1  UNL1        0.0266
     63 H          -8.4419    0.0758   -0.7406 H       1  UNL1        0.0266
     64 H          -6.7120    1.6579   -0.7047 H       1  UNL1        0.0285
     65 H          -6.2070    0.2464   -1.5904 H       1  UNL1        0.0285
     66 HXT         5.8442    2.6958   -1.4748 H       1  UNL1        0.2951
     67 H           6.0756   -1.0421   -1.1805 H       1  UNL1        0.0643
@<TRIPOS>BOND
     1     1     2    1
     2     2     3   ar
     3     3     4   ar
     4     4     5   ar
     5     5     6   ar
     6     6     7   ar
     7     7     8   ar
     8     8     9    1
     9     9    10    1
    10    10    11    1
    11    11    12   am
    12    12    13    2
    13    12    14    1
    14    14    15   ar
    15    15    16   ar
    16    16    17   ar
    17    17    18   ar
    18    18    19   ar
    19    18    20   ar
    20    20    21   ar
    21    21    22    1
    22    22    23   ar
    23    23    24   ar
    24    24    25   ar
    25    25    26   ar
    26    21    27   ar
    27    27    28    1
    28    28    29    1
    29    29    30    1
    30    30    31    1
    31    31    32    1
    32    32    33    1
    33    10    34    1
    34    34    35    2
    35    34    36    1
    36     8    37   ar
    37    37    38   ar
    38    38     2   ar
    39    37     5   ar
    40    19    14   ar
    41    26    22   ar
    42    33    28    1
    43    27    17   ar
    44     1    39    1
    45     1    40    1
    46     3    41    1
    47     4    42    1
    48     6    43    1
    49     7    44    1
    50     9    45    1
    51     9    46    1
    52    10    47    1
    53    11    48    1
    54    15    49    1
    55    16    50    1
    56    19    51    1
    57    23    52    1
    58    24    53    1
    59    26    54    1
    60    28    55    1
    61    29    56    1
    62    29    57    1
    63    30    58    1
    64    30    59    1
    65    31    60    1
    66    31    61    1
    67    32    62    1
    68    32    63    1
    69    33    64    1
    70    33    65    1
    71    36    66    1
    72    38    67    1
