
     RDKit          3D

 67 72  0  0  0  0  0  0  0  0999 V2000
    8.1841   -1.5520   -2.5818 N   0  0  0  0  0  0  0  0  0  0  0  0
    8.1905   -1.0657   -1.2603 C   0  0  0  0  0  0  0  0  0  0  0  0
    9.3647   -0.8151   -0.5832 C   0  0  0  0  0  0  0  0  0  0  0  0
    9.3071   -0.3465    0.7014 C   0  0  0  0  0  0  0  0  0  0  0  0
    8.1053   -0.1210    1.3295 C   0  0  0  0  0  0  0  0  0  0  0  0
    7.8080    0.3134    2.5739 N   0  0  0  0  0  0  0  0  0  0  0  0
    6.4736    0.3470    2.7077 C   0  0  0  0  0  0  0  0  0  0  0  0
    5.8588   -0.0725    1.5287 C   0  0  0  0  0  0  0  0  0  0  0  0
    4.4375   -0.1648    1.2177 C   0  0  0  0  0  0  0  0  0  0  0  0
    3.7921    1.0039    0.5644 C   0  0  2  0  0  0  0  0  0  0  0  0
    2.3695    0.6883    0.3098 N   0  0  0  0  0  0  0  0  0  0  0  0
    1.3254    1.3785    0.9351 C   0  0  0  0  0  0  0  0  0  0  0  0
    1.6159    2.3114    1.7520 O   0  0  0  0  0  0  0  0  0  0  0  0
   -0.0662    1.0748    0.6908 C   0  0  0  0  0  0  0  0  0  0  0  0
   -1.0790    1.7632    1.3284 C   0  0  0  0  0  0  0  0  0  0  0  0
   -2.4208    1.5136    1.1328 C   0  0  0  0  0  0  0  0  0  0  0  0
   -2.7810    0.5189    0.2495 C   0  0  0  0  0  0  0  0  0  0  0  0
   -1.7942   -0.1899   -0.4058 C   0  0  0  0  0  0  0  0  0  0  0  0
   -0.4493    0.0851   -0.1876 C   0  0  0  0  0  0  0  0  0  0  0  0
   -2.4580   -1.0675   -1.1760 N   0  0  0  0  0  0  0  0  0  0  0  0
   -3.7912   -0.9127   -1.0082 C   0  0  0  0  0  0  0  0  0  0  0  0
   -4.7448   -1.7229   -1.7089 C   0  0  0  0  0  0  0  0  0  0  0  0
   -4.8394   -1.7777   -3.0966 C   0  0  0  0  0  0  0  0  0  0  0  0
   -5.8510   -2.6571   -3.4093 C   0  0  0  0  0  0  0  0  0  0  0  0
   -6.3441   -3.1119   -2.2843 O   0  0  0  0  0  0  0  0  0  0  0  0
   -5.7182   -2.5843   -1.2639 C   0  0  0  0  0  0  0  0  0  0  0  0
   -4.0034    0.0604   -0.1335 N   0  0  0  0  0  0  0  0  0  0  0  0
   -5.2237    0.5715    0.3541 C   0  0  0  0  0  0  0  0  0  0  0  0
   -5.6857   -0.0815    1.6522 C   0  0  0  0  0  0  0  0  0  0  0  0
   -6.8898    0.6405    2.2225 C   0  0  0  0  0  0  0  0  0  0  0  0
   -8.0207    0.7710    1.2664 C   0  0  0  0  0  0  0  0  0  0  0  0
   -7.6497   -0.0539    0.0264 C   0  0  0  0  0  0  0  0  0  0  0  0
   -6.3981    0.5767   -0.5512 C   0  0  0  0  0  0  0  0  0  0  0  0
    4.4079    1.4416   -0.6817 C   0  0  0  0  0  0  0  0  0  0  0  0
    3.7512    1.3387   -1.7622 O   0  0  0  0  0  0  0  0  0  0  0  0
    5.7000    1.9822   -0.7525 O   0  0  0  0  0  0  0  0  0  0  0  0
    6.9024   -0.3682    0.6597 C   0  0  0  0  0  0  0  0  0  0  0  0
    6.9924   -0.8376   -0.6265 C   0  0  0  0  0  0  0  0  0  0  0  0
    8.0279   -2.5529   -2.7694 H   0  0  0  0  0  0  0  0  0  0  0  0
    8.3365   -0.9050   -3.3748 H   0  0  0  0  0  0  0  0  0  0  0  0
   10.3201   -0.9812   -1.0463 H   0  0  0  0  0  0  0  0  0  0  0  0
   10.2407   -0.1492    1.2344 H   0  0  0  0  0  0  0  0  0  0  0  0
    8.5058    0.5761    3.3018 H   0  0  0  0  0  0  0  0  0  0  0  0
    5.8934    0.6460    3.5758 H   0  0  0  0  0  0  0  0  0  0  0  0
    4.3203   -1.0647    0.5383 H   0  0  0  0  0  0  0  0  0  0  0  0
    3.8393   -0.4566    2.1204 H   0  0  0  0  0  0  0  0  0  0  0  0
    3.7815    1.8515    1.2993 H   0  0  0  0  0  0  0  0  0  0  0  0
    2.1863   -0.0745   -0.3598 H   0  0  0  0  0  0  0  0  0  0  0  0
   -0.8088    2.5574    2.0347 H   0  0  0  0  0  0  0  0  0  0  0  0
   -3.1987    2.0629    1.6406 H   0  0  0  0  0  0  0  0  0  0  0  0
    0.2544   -0.5133   -0.7395 H   0  0  0  0  0  0  0  0  0  0  0  0
   -4.2310   -1.2300   -3.8179 H   0  0  0  0  0  0  0  0  0  0  0  0
   -6.2103   -2.9524   -4.3788 H   0  0  0  0  0  0  0  0  0  0  0  0
   -5.9230   -2.7849   -0.2237 H   0  0  0  0  0  0  0  0  0  0  0  0
   -5.0576    1.6563    0.6771 H   0  0  0  0  0  0  0  0  0  0  0  0
   -5.8675   -1.1408    1.5104 H   0  0  0  0  0  0  0  0  0  0  0  0
   -4.8946    0.1159    2.4413 H   0  0  0  0  0  0  0  0  0  0  0  0
   -7.2288    0.0310    3.0909 H   0  0  0  0  0  0  0  0  0  0  0  0
   -6.5659    1.6141    2.6615 H   0  0  0  0  0  0  0  0  0  0  0  0
   -8.1504    1.8278    0.9766 H   0  0  0  0  0  0  0  0  0  0  0  0
   -8.9671    0.4288    1.7069 H   0  0  0  0  0  0  0  0  0  0  0  0
   -7.5395   -1.0742    0.3797 H   0  0  0  0  0  0  0  0  0  0  0  0
   -8.4419    0.0758   -0.7406 H   0  0  0  0  0  0  0  0  0  0  0  0
   -6.7120    1.6579   -0.7047 H   0  0  0  0  0  0  0  0  0  0  0  0
   -6.2070    0.2464   -1.5904 H   0  0  0  0  0  0  0  0  0  0  0  0
    5.8442    2.6958   -1.4748 H   0  0  0  0  0  0  0  0  0  0  0  0
    6.0756   -1.0421   -1.1805 H   0  0  0  0  0  0  0  0  0  0  0  0
  1  2  1  0
  2  3  2  0
  3  4  1  0
  4  5  2  0
  5  6  1  0
  6  7  1  0
  7  8  2  0
  8  9  1  0
  9 10  1  0
 10 11  1  0
 11 12  1  0
 12 13  2  0
 12 14  1  0
 14 15  2  0
 15 16  1  0
 16 17  2  0
 17 18  1  0
 18 19  2  0
 18 20  1  0
 20 21  2  0
 21 22  1  0
 22 23  1  0
 23 24  2  0
 24 25  1  0
 25 26  1  0
 21 27  1  0
 27 28  1  0
 28 29  1  0
 29 30  1  0
 30 31  1  0
 31 32  1  0
 32 33  1  0
 10 34  1  0
 34 35  2  0
 34 36  1  0
  8 37  1  0
 37 38  2  0
 38  2  1  0
 37  5  1  0
 19 14  1  0
 26 22  2  0
 33 28  1  0
 27 17  1  0
  1 39  1  0
  1 40  1  0
  3 41  1  0
  4 42  1  0
  6 43  1  0
  7 44  1  0
  9 45  1  0
  9 46  1  0
 10 47  1  1
 11 48  1  0
 15 49  1  0
 16 50  1  0
 19 51  1  0
 23 52  1  0
 24 53  1  0
 26 54  1  0
 28 55  1  0
 29 56  1  0
 29 57  1  0
 30 58  1  0
 30 59  1  0
 31 60  1  0
 31 61  1  0
 32 62  1  0
 32 63  1  0
 33 64  1  0
 33 65  1  0
 36 66  1  0
 38 67  1  0
M  END
$$$$
