
     RDKit          3D

 47 50  0  0  0  0  0  0  0  0999 V2000
    2.7998   -3.0331   -2.2831 N   0  0  0  0  0  0  0  0  0  0  0  0
    1.9286   -2.3932   -1.7938 C   0  0  0  0  0  0  0  0  0  0  0  0
    0.8769   -1.6294   -1.2132 C   0  0  0  0  0  0  0  0  0  0  0  0
   -0.3910   -2.0685   -1.2246 N   0  0  0  0  0  0  0  0  0  0  0  0
   -1.4093   -1.3538   -0.6670 C   0  0  0  0  0  0  0  0  0  0  0  0
   -1.1592   -0.1396   -0.0674 C   0  0  0  0  0  0  0  0  0  0  0  0
   -2.2306    0.5925    0.5134 N   0  0  0  0  0  0  0  0  0  0  0  0
   -3.5748    0.1489    0.5449 C   0  0  0  0  0  0  0  0  0  0  0  0
   -4.4529    0.3372   -0.4934 C   0  0  0  0  0  0  0  0  0  0  0  0
   -5.7698   -0.0827   -0.4702 C   0  0  0  0  0  0  0  0  0  0  0  0
   -6.6218    0.1209   -1.5264 C   0  0  0  0  0  0  0  0  0  0  0  0
   -7.9126   -0.3157   -1.4444 C   0  0  0  0  0  0  0  0  0  0  0  0
   -8.3212   -0.9566   -0.2862 C   0  0  0  0  0  0  0  0  0  0  0  0
   -7.4883   -1.1692    0.7736 C   0  0  0  0  0  0  0  0  0  0  0  0
   -8.0080   -1.9855    2.2413 Cl  0  0  0  0  0  0  0  0  0  0  0  0
   -6.1739   -0.7216    0.6853 C   0  0  0  0  0  0  0  0  0  0  0  0
   -5.3149   -0.9198    1.7321 C   0  0  0  0  0  0  0  0  0  0  0  0
   -4.0626   -0.4920    1.6467 N   0  0  0  0  0  0  0  0  0  0  0  0
    0.1024    0.2836   -0.0644 N   0  0  0  0  0  0  0  0  0  0  0  0
    1.1318   -0.3918   -0.6014 C   0  0  0  0  0  0  0  0  0  0  0  0
    2.3636    0.0943   -0.5569 O   0  0  0  0  0  0  0  0  0  0  0  0
    3.0785    1.1435   -0.1291 C   0  0  0  0  0  0  0  0  0  0  0  0
    4.5717    1.0512   -0.4053 C   0  0  0  0  0  0  0  0  0  0  0  0
    5.1461   -0.1619    0.2823 C   0  0  0  0  0  0  0  0  0  0  0  0
    5.8235    0.1821    1.5825 C   0  0  0  0  0  0  0  0  0  0  0  0
    6.9900    1.0103    1.3870 N   0  0  0  0  0  0  0  0  0  0  0  0
    6.7938    1.9791    0.3373 C   0  0  0  0  0  0  0  0  0  0  0  0
    5.3262    2.2571    0.0878 C   0  0  0  0  0  0  0  0  0  0  0  0
   -2.4246   -1.7286   -0.6921 H   0  0  0  0  0  0  0  0  0  0  0  0
   -2.0453    1.5335    0.9625 H   0  0  0  0  0  0  0  0  0  0  0  0
   -4.1103    0.8402   -1.3829 H   0  0  0  0  0  0  0  0  0  0  0  0
   -6.2695    0.6181   -2.4038 H   0  0  0  0  0  0  0  0  0  0  0  0
   -8.6089   -0.1685   -2.2627 H   0  0  0  0  0  0  0  0  0  0  0  0
   -9.3512   -1.2884   -0.2579 H   0  0  0  0  0  0  0  0  0  0  0  0
   -5.6672   -1.4305    2.6357 H   0  0  0  0  0  0  0  0  0  0  0  0
    2.9108    1.3548    0.9517 H   0  0  0  0  0  0  0  0  0  0  0  0
    2.7342    2.0724   -0.6719 H   0  0  0  0  0  0  0  0  0  0  0  0
    4.7633    0.9745   -1.4935 H   0  0  0  0  0  0  0  0  0  0  0  0
    4.3581   -0.9204    0.5088 H   0  0  0  0  0  0  0  0  0  0  0  0
    5.8648   -0.6348   -0.4034 H   0  0  0  0  0  0  0  0  0  0  0  0
    5.1397    0.7755    2.2255 H   0  0  0  0  0  0  0  0  0  0  0  0
    6.1092   -0.7119    2.1480 H   0  0  0  0  0  0  0  0  0  0  0  0
    7.8670    0.4615    1.2950 H   0  0  0  0  0  0  0  0  0  0  0  0
    7.2820    2.9276    0.6111 H   0  0  0  0  0  0  0  0  0  0  0  0
    7.2626    1.6084   -0.5896 H   0  0  0  0  0  0  0  0  0  0  0  0
    4.8453    2.7314    0.9607 H   0  0  0  0  0  0  0  0  0  0  0  0
    5.2982    3.0146   -0.7286 H   0  0  0  0  0  0  0  0  0  0  0  0
  1  2  3  0
  2  3  1  0
  3  4  2  0
  4  5  1  0
  5  6  2  0
  6  7  1  0
  7  8  1  0
  8  9  2  0
  9 10  1  0
 10 11  2  0
 11 12  1  0
 12 13  2  0
 13 14  1  0
 14 15  1  0
 14 16  2  0
 16 17  1  0
 17 18  2  0
  6 19  1  0
 19 20  2  0
 20 21  1  0
 21 22  1  0
 22 23  1  0
 23 24  1  0
 24 25  1  0
 25 26  1  0
 26 27  1  0
 27 28  1  0
 20  3  1  0
 28 23  1  0
 18  8  1  0
 16 10  1  0
  5 29  1  0
  7 30  1  0
  9 31  1  0
 11 32  1  0
 12 33  1  0
 13 34  1  0
 17 35  1  0
 22 36  1  0
 22 37  1  0
 23 38  1  0
 24 39  1  0
 24 40  1  0
 25 41  1  0
 25 42  1  0
 26 43  1  0
 27 44  1  0
 27 45  1  0
 28 46  1  0
 28 47  1  0
M  END
$$$$
