@<TRIPOS>MOLECULE
*****
 47 50 0 0 0
SMALL
GASTEIGER

@<TRIPOS>ATOM
      1 N           2.7998   -3.0331   -2.2831 N.1     1  UNL1       -0.1891
      2 C           1.9286   -2.3932   -1.7938 C.1     1  UNL1        0.1246
      3 C           0.8769   -1.6294   -1.2132 C.ar    1  UNL1        0.2019
      4 N          -0.3910   -2.0685   -1.2246 N.ar    1  UNL1       -0.2364
      5 C          -1.4093   -1.3538   -0.6670 C.ar    1  UNL1        0.0693
      6 C          -1.1592   -0.1396   -0.0674 C.ar    1  UNL1        0.1461
      7 N          -2.2306    0.5925    0.5134 N.pl3   1  UNL1       -0.2831
      8 C          -3.5748    0.1489    0.5449 C.ar    1  UNL1        0.1245
      9 C          -4.4529    0.3372   -0.4934 C.ar    1  UNL1       -0.0138
     10 C          -5.7698   -0.0827   -0.4702 C.ar    1  UNL1       -0.0118
     11 C          -6.6218    0.1209   -1.5264 C.ar    1  UNL1       -0.0538
     12 C          -7.9126   -0.3157   -1.4444 C.ar    1  UNL1       -0.0598
     13 C          -8.3212   -0.9566   -0.2862 C.ar    1  UNL1       -0.0427
     14 C          -7.4883   -1.1692    0.7736 C.ar    1  UNL1        0.0501
     15 CL         -8.0080   -1.9855    2.2413 Cl      1  UNL1       -0.0829
     16 C          -6.1739   -0.7216    0.6853 C.ar    1  UNL1        0.0187
     17 C          -5.3149   -0.9198    1.7321 C.ar    1  UNL1        0.0388
     18 N          -4.0626   -0.4920    1.6467 N.ar    1  UNL1       -0.2395
     19 N           0.1024    0.2836   -0.0644 N.ar    1  UNL1       -0.1938
     20 C           1.1318   -0.3918   -0.6014 C.ar    1  UNL1        0.2536
     21 O           2.3636    0.0943   -0.5569 O.3     1  UNL1       -0.4741
     22 C           3.0785    1.1435   -0.1291 C.3     1  UNL1        0.0942
     23 C           4.5717    1.0512   -0.4053 C.3     1  UNL1       -0.0044
     24 C           5.1461   -0.1619    0.2823 C.3     1  UNL1       -0.0345
     25 C           5.8235    0.1821    1.5825 C.3     1  UNL1       -0.0037
     26 N           6.9900    1.0103    1.3870 N.3     1  UNL1       -0.3159
     27 C           6.7938    1.9791    0.3373 C.3     1  UNL1       -0.0037
     28 C           5.3262    2.2571    0.0878 C.3     1  UNL1       -0.0345
     29 H          -2.4246   -1.7286   -0.6921 H       1  UNL1        0.0865
     30 H          -2.0453    1.5335    0.9625 H       1  UNL1        0.1550
     31 H          -4.1103    0.8402   -1.3829 H       1  UNL1        0.0658
     32 H          -6.2695    0.6181   -2.4038 H       1  UNL1        0.0624
     33 H          -8.6089   -0.1685   -2.2627 H       1  UNL1        0.0618
     34 H          -9.3512   -1.2884   -0.2579 H       1  UNL1        0.0632
     35 H          -5.6672   -1.4305    2.6357 H       1  UNL1        0.0837
     36 H           2.9108    1.3548    0.9517 H       1  UNL1        0.0700
     37 H           2.7342    2.0724   -0.6719 H       1  UNL1        0.0700
     38 H           4.7633    0.9745   -1.4935 H       1  UNL1        0.0334
     39 H           4.3581   -0.9204    0.5088 H       1  UNL1        0.0281
     40 H           5.8648   -0.6348   -0.4034 H       1  UNL1        0.0281
     41 H           5.1397    0.7755    2.2255 H       1  UNL1        0.0424
     42 H           6.1092   -0.7119    2.1480 H       1  UNL1        0.0424
     43 H           7.8670    0.4615    1.2950 H       1  UNL1        0.1219
     44 H           7.2820    2.9276    0.6111 H       1  UNL1        0.0424
     45 H           7.2626    1.6084   -0.5896 H       1  UNL1        0.0424
     46 H           4.8453    2.7314    0.9607 H       1  UNL1        0.0281
     47 H           5.2982    3.0146   -0.7286 H       1  UNL1        0.0281
@<TRIPOS>BOND
     1     1     2    3
     2     2     3    1
     3     3     4   ar
     4     4     5   ar
     5     5     6   ar
     6     6     7    1
     7     7     8    1
     8     8     9   ar
     9     9    10   ar
    10    10    11   ar
    11    11    12   ar
    12    12    13   ar
    13    13    14   ar
    14    14    15    1
    15    14    16   ar
    16    16    17   ar
    17    17    18   ar
    18     6    19   ar
    19    19    20   ar
    20    20    21    1
    21    21    22    1
    22    22    23    1
    23    23    24    1
    24    24    25    1
    25    25    26    1
    26    26    27    1
    27    27    28    1
    28    20     3   ar
    29    28    23    1
    30    18     8   ar
    31    16    10   ar
    32     5    29    1
    33     7    30    1
    34     9    31    1
    35    11    32    1
    36    12    33    1
    37    13    34    1
    38    17    35    1
    39    22    36    1
    40    22    37    1
    41    23    38    1
    42    24    39    1
    43    24    40    1
    44    25    41    1
    45    25    42    1
    46    26    43    1
    47    27    44    1
    48    27    45    1
    49    28    46    1
    50    28    47    1
