@<TRIPOS>MOLECULE
*****
 54 58 0 0 0
SMALL
GASTEIGER

@<TRIPOS>ATOM
      1 O           5.9047   -2.2892   -0.4379 O.3     1  UNL1       -0.3917
      2 C           5.1986   -1.2050   -0.9360 C.3     1  UNL1        0.0577
      3 C           5.5398    0.0369   -0.1396 C.3     1  UNL1       -0.0124
      4 C           4.2812    0.8583    0.0230 C.3     1  UNL1        0.0228
      5 N           3.4905    0.8290   -1.1927 N.3     1  UNL1       -0.1764
      6 C           2.8297   -0.4508   -1.3568 C.3     1  UNL1        0.0228
      7 C           3.7340   -1.5226   -0.7894 C.3     1  UNL1       -0.0124
      8 S           2.3515    2.1166   -1.1636 S.O2    1  UNL1        0.0609
      9 O           1.5719    2.0263   -2.4625 O.2     1  UNL1       -0.1528
     10 O           3.0753    3.4135   -1.1307 O.2     1  UNL1       -0.1528
     11 C           1.2461    1.9574    0.1809 C.ar    1  UNL1        0.1062
     12 C           0.0365    1.2947    0.1951 C.ar    1  UNL1       -0.0256
     13 C          -0.7487    1.2369    1.3145 C.ar    1  UNL1        0.0117
     14 C          -0.2824    1.8726    2.4438 C.ar    1  UNL1        0.0417
     15 C           0.9176    2.5488    2.4857 C.ar    1  UNL1       -0.0380
     16 C           1.6926    2.5946    1.3466 C.ar    1  UNL1       -0.0336
     17 N          -1.2161    1.7100    3.5048 N.am    1  UNL1       -0.2809
     18 C          -2.2819    0.9397    2.9663 C.2     1  UNL1        0.2505
     19 O          -3.2928    0.6005    3.6275 O.2     1  UNL1       -0.2698
     20 C          -2.0160    0.6217    1.5737 C.2     1  UNL1        0.0661
     21 C          -2.6996   -0.0524    0.6712 C.2     1  UNL1        0.0572
     22 N          -3.9505   -0.6018    1.1077 N.pl3   1  UNL1       -0.3144
     23 C          -4.6141   -1.3392    0.0926 C.ar    1  UNL1        0.0375
     24 C          -3.7742   -1.2418   -0.9662 C.ar    1  UNL1        0.0104
     25 C          -4.0780   -1.8618   -2.1856 C.ar    1  UNL1       -0.0537
     26 C          -5.2463   -2.5953   -2.3533 C.ar    1  UNL1       -0.0613
     27 C          -6.0908   -2.6858   -1.2700 C.ar    1  UNL1       -0.0600
     28 C          -5.7695   -2.0666   -0.0797 C.ar    1  UNL1       -0.0402
     29 C          -2.5189   -0.4106   -0.7291 C.3     1  UNL1        0.1281
     30 C          -2.6817    0.7362   -1.7116 C.3     1  UNL1       -0.0264
     31 O          -1.5032   -1.2856   -1.0253 O.3     1  UNL1       -0.3782
     32 H           6.7888   -2.0110   -0.0566 H       1  UNL1        0.2098
     33 H           5.4892   -1.0126   -1.9898 H       1  UNL1        0.0594
     34 H           5.9532   -0.2697    0.8420 H       1  UNL1        0.0303
     35 H           6.3301    0.6159   -0.6494 H       1  UNL1        0.0303
     36 H           4.5499    1.9128    0.2157 H       1  UNL1        0.0445
     37 H           3.7070    0.3806    0.8315 H       1  UNL1        0.0445
     38 H           1.8656   -0.5131   -0.8162 H       1  UNL1        0.0445
     39 H           2.6499   -0.6280   -2.4187 H       1  UNL1        0.0445
     40 H           3.5140   -2.4880   -1.2844 H       1  UNL1        0.0303
     41 H           3.5386   -1.6647    0.2891 H       1  UNL1        0.0303
     42 H          -0.1115    0.8882   -0.7670 H       1  UNL1        0.0644
     43 H           1.2530    3.0350    3.3840 H       1  UNL1        0.0637
     44 H           2.6247    3.1326    1.4172 H       1  UNL1        0.0638
     45 H          -1.1496    2.0754    4.4882 H       1  UNL1        0.1552
     46 H          -4.4631   -0.5586    2.0362 H       1  UNL1        0.1520
     47 H          -3.4261   -1.8042   -3.0556 H       1  UNL1        0.0622
     48 H          -5.5114   -3.0854   -3.2780 H       1  UNL1        0.0618
     49 H          -7.0358   -3.2313   -1.2756 H       1  UNL1        0.0618
     50 H          -6.4324   -2.1329    0.7838 H       1  UNL1        0.0636
     51 H          -3.7230    0.8673   -2.0693 H       1  UNL1        0.0264
     52 H          -2.0611    0.5793   -2.6217 H       1  UNL1        0.0264
     53 H          -2.4517    1.7259   -1.2166 H       1  UNL1        0.0264
     54 H          -1.0042   -1.5988   -0.2189 H       1  UNL1        0.2111
@<TRIPOS>BOND
     1     1     2    1
     2     2     3    1
     3     3     4    1
     4     4     5    1
     5     5     6    1
     6     6     7    1
     7     5     8    1
     8     8     9    2
     9     8    10    2
    10     8    11    1
    11    11    12   ar
    12    12    13   ar
    13    13    14   ar
    14    14    15   ar
    15    15    16   ar
    16    14    17    1
    17    17    18   am
    18    18    19    2
    19    18    20    1
    20    20    21    2
    21    21    22    1
    22    22    23    1
    23    23    24   ar
    24    24    25   ar
    25    25    26   ar
    26    26    27   ar
    27    27    28   ar
    28    24    29    1
    29    29    30    1
    30    29    31    1
    31     7     2    1
    32    16    11   ar
    33    29    21    1
    34    20    13    1
    35    28    23   ar
    36     1    32    1
    37     2    33    1
    38     3    34    1
    39     3    35    1
    40     4    36    1
    41     4    37    1
    42     6    38    1
    43     6    39    1
    44     7    40    1
    45     7    41    1
    46    12    42    1
    47    15    43    1
    48    16    44    1
    49    17    45    1
    50    22    46    1
    51    25    47    1
    52    26    48    1
    53    27    49    1
    54    28    50    1
    55    30    51    1
    56    30    52    1
    57    30    53    1
    58    31    54    1
