
     RDKit          3D

 54 58  0  0  0  0  0  0  0  0999 V2000
    5.9047   -2.2892   -0.4379 O   0  0  0  0  0  0  0  0  0  0  0  0
    5.1986   -1.2050   -0.9360 C   0  0  0  0  0  0  0  0  0  0  0  0
    5.5398    0.0369   -0.1396 C   0  0  0  0  0  0  0  0  0  0  0  0
    4.2812    0.8583    0.0230 C   0  0  0  0  0  0  0  0  0  0  0  0
    3.4905    0.8290   -1.1927 N   0  0  0  0  0  0  0  0  0  0  0  0
    2.8297   -0.4508   -1.3568 C   0  0  0  0  0  0  0  0  0  0  0  0
    3.7340   -1.5226   -0.7894 C   0  0  0  0  0  0  0  0  0  0  0  0
    2.3515    2.1166   -1.1636 S   0  0  0  0  0  0  0  0  0  0  0  0
    1.5719    2.0263   -2.4625 O   0  0  0  0  0  0  0  0  0  0  0  0
    3.0753    3.4135   -1.1307 O   0  0  0  0  0  0  0  0  0  0  0  0
    1.2461    1.9574    0.1809 C   0  0  0  0  0  0  0  0  0  0  0  0
    0.0365    1.2947    0.1951 C   0  0  0  0  0  0  0  0  0  0  0  0
   -0.7487    1.2369    1.3145 C   0  0  0  0  0  0  0  0  0  0  0  0
   -0.2824    1.8726    2.4438 C   0  0  0  0  0  0  0  0  0  0  0  0
    0.9176    2.5488    2.4857 C   0  0  0  0  0  0  0  0  0  0  0  0
    1.6926    2.5946    1.3466 C   0  0  0  0  0  0  0  0  0  0  0  0
   -1.2161    1.7100    3.5048 N   0  0  0  0  0  0  0  0  0  0  0  0
   -2.2819    0.9397    2.9663 C   0  0  0  0  0  0  0  0  0  0  0  0
   -3.2928    0.6005    3.6275 O   0  0  0  0  0  0  0  0  0  0  0  0
   -2.0160    0.6217    1.5737 C   0  0  0  0  0  0  0  0  0  0  0  0
   -2.6996   -0.0524    0.6712 C   0  0  0  0  0  0  0  0  0  0  0  0
   -3.9505   -0.6018    1.1077 N   0  0  0  0  0  0  0  0  0  0  0  0
   -4.6141   -1.3392    0.0926 C   0  0  0  0  0  0  0  0  0  0  0  0
   -3.7742   -1.2418   -0.9662 C   0  0  0  0  0  0  0  0  0  0  0  0
   -4.0780   -1.8618   -2.1856 C   0  0  0  0  0  0  0  0  0  0  0  0
   -5.2463   -2.5953   -2.3533 C   0  0  0  0  0  0  0  0  0  0  0  0
   -6.0908   -2.6858   -1.2700 C   0  0  0  0  0  0  0  0  0  0  0  0
   -5.7695   -2.0666   -0.0797 C   0  0  0  0  0  0  0  0  0  0  0  0
   -2.5189   -0.4106   -0.7291 C   0  0  1  0  0  0  0  0  0  0  0  0
   -2.6817    0.7362   -1.7116 C   0  0  0  0  0  0  0  0  0  0  0  0
   -1.5032   -1.2856   -1.0253 O   0  0  0  0  0  0  0  0  0  0  0  0
    6.7888   -2.0110   -0.0566 H   0  0  0  0  0  0  0  0  0  0  0  0
    5.4892   -1.0126   -1.9898 H   0  0  0  0  0  0  0  0  0  0  0  0
    5.9532   -0.2697    0.8420 H   0  0  0  0  0  0  0  0  0  0  0  0
    6.3301    0.6159   -0.6494 H   0  0  0  0  0  0  0  0  0  0  0  0
    4.5499    1.9128    0.2157 H   0  0  0  0  0  0  0  0  0  0  0  0
    3.7070    0.3806    0.8315 H   0  0  0  0  0  0  0  0  0  0  0  0
    1.8656   -0.5131   -0.8162 H   0  0  0  0  0  0  0  0  0  0  0  0
    2.6499   -0.6280   -2.4187 H   0  0  0  0  0  0  0  0  0  0  0  0
    3.5140   -2.4880   -1.2844 H   0  0  0  0  0  0  0  0  0  0  0  0
    3.5386   -1.6647    0.2891 H   0  0  0  0  0  0  0  0  0  0  0  0
   -0.1115    0.8882   -0.7670 H   0  0  0  0  0  0  0  0  0  0  0  0
    1.2530    3.0350    3.3840 H   0  0  0  0  0  0  0  0  0  0  0  0
    2.6247    3.1326    1.4172 H   0  0  0  0  0  0  0  0  0  0  0  0
   -1.1496    2.0754    4.4882 H   0  0  0  0  0  0  0  0  0  0  0  0
   -4.4631   -0.5586    2.0362 H   0  0  0  0  0  0  0  0  0  0  0  0
   -3.4261   -1.8042   -3.0556 H   0  0  0  0  0  0  0  0  0  0  0  0
   -5.5114   -3.0854   -3.2780 H   0  0  0  0  0  0  0  0  0  0  0  0
   -7.0358   -3.2313   -1.2756 H   0  0  0  0  0  0  0  0  0  0  0  0
   -6.4324   -2.1329    0.7838 H   0  0  0  0  0  0  0  0  0  0  0  0
   -3.7230    0.8673   -2.0693 H   0  0  0  0  0  0  0  0  0  0  0  0
   -2.0611    0.5793   -2.6217 H   0  0  0  0  0  0  0  0  0  0  0  0
   -2.4517    1.7259   -1.2166 H   0  0  0  0  0  0  0  0  0  0  0  0
   -1.0042   -1.5988   -0.2189 H   0  0  0  0  0  0  0  0  0  0  0  0
  1  2  1  0
  2  3  1  0
  3  4  1  0
  4  5  1  0
  5  6  1  0
  6  7  1  0
  5  8  1  0
  8  9  2  0
  8 10  2  0
  8 11  1  0
 11 12  2  0
 12 13  1  0
 13 14  2  0
 14 15  1  0
 15 16  2  0
 14 17  1  0
 17 18  1  0
 18 19  2  0
 18 20  1  0
 20 21  2  0
 21 22  1  0
 22 23  1  0
 23 24  2  0
 24 25  1  0
 25 26  2  0
 26 27  1  0
 27 28  2  0
 24 29  1  0
 29 30  1  0
 29 31  1  1
  7  2  1  0
 16 11  1  0
 29 21  1  0
 20 13  1  0
 28 23  1  0
  1 32  1  0
  2 33  1  0
  3 34  1  0
  3 35  1  0
  4 36  1  0
  4 37  1  0
  6 38  1  0
  6 39  1  0
  7 40  1  0
  7 41  1  0
 12 42  1  0
 15 43  1  0
 16 44  1  0
 17 45  1  0
 22 46  1  0
 25 47  1  0
 26 48  1  0
 27 49  1  0
 28 50  1  0
 30 51  1  0
 30 52  1  0
 30 53  1  0
 31 54  1  0
M  END
$$$$
