@<TRIPOS>MOLECULE
*****
 41 43 0 0 0
SMALL
GASTEIGER

@<TRIPOS>ATOM
      1 C          -2.2527   -0.2662   -0.5647 C.3     1  UNL1       -0.0083
      2 C          -2.8053    0.5260    0.5920 C.3     1  UNL1       -0.0291
      3 C          -2.2266    1.8934    0.7037 C.2     1  UNL1       -0.0843
      4 C          -0.9552    2.2086    0.3772 C.2     1  UNL1       -0.0707
      5 C          -0.4561    3.5662    0.7711 C.3     1  UNL1       -0.0434
      6 C          -0.2748    1.0840   -0.3448 C.3     1  UNL1        0.0106
      7 C          -1.3004    0.6067   -1.3423 C.3     1  UNL1       -0.0381
      8 C           0.1960    0.0371    0.5889 C.3     1  UNL1        0.0908
      9 O          -0.2620   -1.2254    0.4198 O.3     1  UNL1       -0.3652
     10 C          -1.4623   -1.4612   -0.1232 C.3     1  UNL1        0.0679
     11 C          -2.2993   -2.2565    0.8816 C.3     1  UNL1       -0.0358
     12 C          -1.2995   -2.3788   -1.3180 C.3     1  UNL1       -0.0358
     13 C           1.6941   -0.0520    0.4743 C.ar    1  UNL1       -0.0181
     14 C           2.1215   -0.8359   -0.5966 C.ar    1  UNL1       -0.0527
     15 C           3.4597   -1.0433   -0.8738 C.ar    1  UNL1       -0.0198
     16 C           4.4111   -0.4503   -0.0571 C.ar    1  UNL1        0.1169
     17 O           5.7681   -0.6322   -0.2994 O.3     1  UNL1       -0.5068
     18 C           3.9731    0.3213    0.9968 C.ar    1  UNL1       -0.0198
     19 C           2.6346    0.5240    1.2676 C.ar    1  UNL1       -0.0527
     20 H          -3.0487   -0.6261   -1.2523 H       1  UNL1        0.0331
     21 H          -2.6812   -0.0427    1.5455 H       1  UNL1        0.0311
     22 H          -3.9039    0.6309    0.4550 H       1  UNL1        0.0311
     23 H          -2.8699    2.7101    1.0765 H       1  UNL1        0.0572
     24 H           0.6208    3.6206    0.5353 H       1  UNL1        0.0274
     25 H          -0.6255    3.7666    1.8401 H       1  UNL1        0.0274
     26 H          -1.0103    4.3437    0.1707 H       1  UNL1        0.0274
     27 H           0.5527    1.5184   -0.9505 H       1  UNL1        0.0374
     28 H          -0.8567    0.1006   -2.2094 H       1  UNL1        0.0276
     29 H          -1.8694    1.4775   -1.7274 H       1  UNL1        0.0276
     30 H          -0.0021    0.3603    1.6324 H       1  UNL1        0.0652
     31 H          -2.2134   -3.3637    0.7005 H       1  UNL1        0.0257
     32 H          -1.9037   -2.1238    1.9277 H       1  UNL1        0.0257
     33 H          -3.3649   -2.0036    0.8306 H       1  UNL1        0.0257
     34 H          -0.7469   -1.9361   -2.1511 H       1  UNL1        0.0257
     35 H          -0.7730   -3.3094   -0.9977 H       1  UNL1        0.0257
     36 H          -2.2890   -2.7070   -1.6655 H       1  UNL1        0.0257
     37 H           1.4353   -1.3353   -1.2837 H       1  UNL1        0.0622
     38 H           3.8076   -1.6466   -1.6978 H       1  UNL1        0.0654
     39 H           6.1532   -1.5063    0.0801 H       1  UNL1        0.2921
     40 H           4.6911    0.7903    1.6425 H       1  UNL1        0.0654
     41 H           2.2342    1.1162    2.0763 H       1  UNL1        0.0622
@<TRIPOS>BOND
     1     1     2    1
     2     2     3    1
     3     3     4    2
     4     4     5    1
     5     4     6    1
     6     6     7    1
     7     6     8    1
     8     8     9    1
     9     9    10    1
    10    10    11    1
    11    10    12    1
    12     8    13    1
    13    13    14   ar
    14    14    15   ar
    15    15    16   ar
    16    16    17    1
    17    16    18   ar
    18    18    19   ar
    19     7     1    1
    20    19    13   ar
    21    10     1    1
    22     1    20    1
    23     2    21    1
    24     2    22    1
    25     3    23    1
    26     5    24    1
    27     5    25    1
    28     5    26    1
    29     6    27    1
    30     7    28    1
    31     7    29    1
    32     8    30    1
    33    11    31    1
    34    11    32    1
    35    11    33    1
    36    12    34    1
    37    12    35    1
    38    12    36    1
    39    14    37    1
    40    15    38    1
    41    17    39    1
    42    18    40    1
    43    19    41    1
