
     RDKit          3D

 52 54  0  0  0  0  0  0  0  0999 V2000
    4.7678    1.7215    2.8850 C   0  0  0  0  0  0  0  0  0  0  0  0
    4.0976    0.4585    3.3766 C   0  0  2  0  0  0  0  0  0  0  0  0
    4.8203   -0.6277    2.9828 O   0  0  0  0  0  0  0  0  0  0  0  0
    2.6788    0.4747    2.9496 C   0  0  0  0  0  0  0  0  0  0  0  0
    1.9326    1.4231    3.4086 O   0  0  0  0  0  0  0  0  0  0  0  0
    2.0534   -0.4467    2.0861 N   0  0  0  0  0  0  0  0  0  0  0  0
    2.6293   -1.5530    1.4127 C   0  0  0  0  0  0  0  0  0  0  0  0
    1.8909   -1.5574    0.0503 C   0  0  0  0  0  0  0  0  0  0  0  0
    0.5479   -1.1967    0.4397 C   0  0  2  0  0  0  0  0  0  0  0  0
   -0.3913   -0.6307   -0.5073 N   0  0  0  0  0  0  0  0  0  0  0  0
   -1.1045   -1.6485   -1.2125 C   0  0  0  0  0  0  0  0  0  0  0  0
   -2.3702   -1.4946   -1.8707 C   0  0  0  0  0  0  0  0  0  0  0  0
   -2.4670   -1.4346   -3.2264 C   0  0  0  0  0  0  0  0  0  0  0  0
   -3.6876   -1.3445   -3.8659 C   0  0  0  0  0  0  0  0  0  0  0  0
   -4.8496   -1.3159   -3.0837 C   0  0  0  0  0  0  0  0  0  0  0  0
   -4.7273   -1.3789   -1.7165 C   0  0  0  0  0  0  0  0  0  0  0  0
   -3.5215   -1.4698   -1.0379 C   0  0  0  0  0  0  0  0  0  0  0  0
   -3.4517   -1.5390    0.4245 C   0  0  0  0  0  0  0  0  0  0  0  0
   -2.8587   -2.6961    0.9105 F   0  0  0  0  0  0  0  0  0  0  0  0
   -2.8777   -0.4101    0.9903 F   0  0  0  0  0  0  0  0  0  0  0  0
   -4.7609   -1.5808    0.9260 F   0  0  0  0  0  0  0  0  0  0  0  0
   -0.4282    0.7468   -0.8186 C   0  0  0  0  0  0  0  0  0  0  0  0
    0.5833    1.5855   -0.4326 C   0  0  0  0  0  0  0  0  0  0  0  0
    0.5690    2.9070   -0.6538 C   0  0  0  0  0  0  0  0  0  0  0  0
   -0.4961    3.5433   -1.3104 C   0  0  0  0  0  0  0  0  0  0  0  0
   -0.5020    4.9093   -1.5307 C   0  0  0  0  0  0  0  0  0  0  0  0
   -0.5211    6.1392   -1.7463 N   0  0  0  0  0  0  0  0  0  0  0  0
   -1.5526    2.7357   -1.7286 C   0  0  0  0  0  0  0  0  0  0  0  0
   -2.9001    3.4604   -2.5534 Cl  0  0  0  0  0  0  0  0  0  0  0  0
   -1.4832    1.3632   -1.4670 C   0  0  0  0  0  0  0  0  0  0  0  0
    0.6318   -0.4557    1.7170 C   0  0  0  0  0  0  0  0  0  0  0  0
    5.6883    1.4446    2.3182 H   0  0  0  0  0  0  0  0  0  0  0  0
    5.0719    2.4036    3.7298 H   0  0  0  0  0  0  0  0  0  0  0  0
    4.0960    2.2242    2.1830 H   0  0  0  0  0  0  0  0  0  0  0  0
    4.1085    0.5411    4.5015 H   0  0  0  0  0  0  0  0  0  0  0  0
    5.5623   -0.4123    2.3665 H   0  0  0  0  0  0  0  0  0  0  0  0
    3.7054   -1.5524    1.2532 H   0  0  0  0  0  0  0  0  0  0  0  0
    2.3229   -2.5127    1.9263 H   0  0  0  0  0  0  0  0  0  0  0  0
    2.4823   -0.8888   -0.5868 H   0  0  0  0  0  0  0  0  0  0  0  0
    2.0301   -2.6413   -0.2648 H   0  0  0  0  0  0  0  0  0  0  0  0
    0.0516   -2.2492    0.6949 H   0  0  0  0  0  0  0  0  0  0  0  0
   -0.4072   -2.0889   -2.0399 H   0  0  0  0  0  0  0  0  0  0  0  0
   -1.1180   -2.6146   -0.5517 H   0  0  0  0  0  0  0  0  0  0  0  0
   -1.6027   -1.4548   -3.9002 H   0  0  0  0  0  0  0  0  0  0  0  0
   -3.7573   -1.2960   -4.9433 H   0  0  0  0  0  0  0  0  0  0  0  0
   -5.8061   -1.2485   -3.5848 H   0  0  0  0  0  0  0  0  0  0  0  0
   -5.6211   -1.3598   -1.1092 H   0  0  0  0  0  0  0  0  0  0  0  0
    1.4843    1.1192    0.0412 H   0  0  0  0  0  0  0  0  0  0  0  0
    1.3712    3.5453   -0.3409 H   0  0  0  0  0  0  0  0  0  0  0  0
   -2.3502    0.8456   -1.8163 H   0  0  0  0  0  0  0  0  0  0  0  0
    0.1722   -1.0577    2.5770 H   0  0  0  0  0  0  0  0  0  0  0  0
    0.2640    0.5657    1.7494 H   0  0  0  0  0  0  0  0  0  0  0  0
  1  2  1  0
  2  3  1  0
  2  4  1  0
  4  5  2  0
  4  6  1  0
  6  7  1  0
  7  8  1  0
  8  9  1  0
  9 10  1  0
 10 11  1  0
 11 12  1  0
 12 13  2  0
 13 14  1  0
 14 15  2  0
 15 16  1  0
 16 17  2  0
 17 18  1  0
 18 19  1  0
 18 20  1  0
 18 21  1  0
 10 22  1  0
 22 23  2  0
 23 24  1  0
 24 25  2  0
 25 26  1  0
 26 27  3  0
 25 28  1  0
 28 29  1  0
 28 30  2  0
  9 31  1  0
 31  6  1  0
 17 12  1  0
 30 22  1  0
  1 32  1  0
  1 33  1  0
  1 34  1  0
  2 35  1  1
  3 36  1  0
  7 37  1  0
  7 38  1  0
  8 39  1  0
  8 40  1  0
  9 41  1  1
 11 42  1  0
 11 43  1  0
 13 44  1  0
 14 45  1  0
 15 46  1  0
 16 47  1  0
 23 48  1  0
 24 49  1  0
 30 50  1  0
 31 51  1  0
 31 52  1  0
M  END
$$$$
