@<TRIPOS>MOLECULE
*****
 52 54 0 0 0
SMALL
GASTEIGER

@<TRIPOS>ATOM
      1 C           4.7678    1.7215    2.8850 C.3     1  UNL1       -0.0303
      2 C           4.0976    0.4585    3.3766 C.3     1  UNL1        0.1283
      3 O           4.8203   -0.6277    2.9828 O.3     1  UNL1       -0.3828
      4 C           2.6788    0.4747    2.9496 C.2     1  UNL1        0.2440
      5 O           1.9326    1.4231    3.4086 O.2     1  UNL1       -0.2728
      6 N           2.0534   -0.4467    2.0861 N.am    1  UNL1       -0.2975
      7 C           2.6293   -1.5530    1.4127 C.3     1  UNL1        0.0165
      8 C           1.8909   -1.5574    0.0503 C.3     1  UNL1       -0.0170
      9 C           0.5479   -1.1967    0.4397 C.3     1  UNL1        0.0410
     10 N          -0.3913   -0.6307   -0.5073 N.pl3   1  UNL1       -0.3209
     11 C          -1.1045   -1.6485   -1.2125 C.3     1  UNL1        0.0381
     12 C          -2.3702   -1.4946   -1.8707 C.ar    1  UNL1       -0.0186
     13 C          -2.4670   -1.4346   -3.2264 C.ar    1  UNL1       -0.0565
     14 C          -3.6876   -1.3445   -3.8659 C.ar    1  UNL1       -0.0614
     15 C          -4.8496   -1.3159   -3.0837 C.ar    1  UNL1       -0.0612
     16 C          -4.7273   -1.3789   -1.7165 C.ar    1  UNL1       -0.0498
     17 C          -3.5215   -1.4698   -1.0379 C.ar    1  UNL1        0.0595
     18 C          -3.4517   -1.5390    0.4245 C.3     1  UNL1        0.4177
     19 F          -2.8587   -2.6961    0.9105 F       1  UNL1       -0.1659
     20 F          -2.8777   -0.4101    0.9903 F       1  UNL1       -0.1659
     21 F          -4.7609   -1.5808    0.9260 F       1  UNL1       -0.1659
     22 C          -0.4282    0.7468   -0.8186 C.ar    1  UNL1        0.0317
     23 C           0.5833    1.5855   -0.4326 C.ar    1  UNL1       -0.0393
     24 C           0.5690    2.9070   -0.6538 C.ar    1  UNL1       -0.0412
     25 C          -0.4961    3.5433   -1.3104 C.ar    1  UNL1        0.0701
     26 C          -0.5020    4.9093   -1.5307 C.1     1  UNL1        0.1006
     27 N          -0.5211    6.1392   -1.7463 N.1     1  UNL1       -0.1908
     28 C          -1.5526    2.7357   -1.7286 C.ar    1  UNL1        0.0600
     29 CL         -2.9001    3.4604   -2.5534 Cl      1  UNL1       -0.0822
     30 C          -1.4832    1.3632   -1.4670 C.ar    1  UNL1       -0.0210
     31 C           0.6318   -0.4557    1.7170 C.3     1  UNL1        0.0333
     32 H           5.6883    1.4446    2.3182 H       1  UNL1        0.0259
     33 H           5.0719    2.4036    3.7298 H       1  UNL1        0.0259
     34 H           4.0960    2.2242    2.1830 H       1  UNL1        0.0259
     35 H           4.1085    0.5411    4.5015 H       1  UNL1        0.0687
     36 H           5.5623   -0.4123    2.3665 H       1  UNL1        0.2104
     37 H           3.7054   -1.5524    1.2532 H       1  UNL1        0.0465
     38 H           2.3229   -2.5127    1.9263 H       1  UNL1        0.0465
     39 H           2.4823   -0.8888   -0.5868 H       1  UNL1        0.0299
     40 H           2.0301   -2.6413   -0.2648 H       1  UNL1        0.0299
     41 H           0.0516   -2.2492    0.6949 H       1  UNL1        0.0516
     42 H          -0.4072   -2.0889   -2.0399 H       1  UNL1        0.0513
     43 H          -1.1180   -2.6146   -0.5517 H       1  UNL1        0.0513
     44 H          -1.6027   -1.4548   -3.9002 H       1  UNL1        0.0621
     45 H          -3.7573   -1.2960   -4.9433 H       1  UNL1        0.0618
     46 H          -5.8061   -1.2485   -3.5848 H       1  UNL1        0.0618
     47 H          -5.6211   -1.3598   -1.1092 H       1  UNL1        0.0623
     48 H           1.4843    1.1192    0.0412 H       1  UNL1        0.0636
     49 H           1.3712    3.5453   -0.3409 H       1  UNL1        0.0631
     50 H          -2.3502    0.8456   -1.8163 H       1  UNL1        0.0651
     51 H           0.1722   -1.0577    2.5770 H       1  UNL1        0.0483
     52 H           0.2640    0.5657    1.7494 H       1  UNL1        0.0483
@<TRIPOS>BOND
     1     1     2    1
     2     2     3    1
     3     2     4    1
     4     4     5    2
     5     4     6   am
     6     6     7    1
     7     7     8    1
     8     8     9    1
     9     9    10    1
    10    10    11    1
    11    11    12    1
    12    12    13   ar
    13    13    14   ar
    14    14    15   ar
    15    15    16   ar
    16    16    17   ar
    17    17    18    1
    18    18    19    1
    19    18    20    1
    20    18    21    1
    21    10    22    1
    22    22    23   ar
    23    23    24   ar
    24    24    25   ar
    25    25    26    1
    26    26    27    3
    27    25    28   ar
    28    28    29    1
    29    28    30   ar
    30     9    31    1
    31    31     6    1
    32    17    12   ar
    33    30    22   ar
    34     1    32    1
    35     1    33    1
    36     1    34    1
    37     2    35    1
    38     3    36    1
    39     7    37    1
    40     7    38    1
    41     8    39    1
    42     8    40    1
    43     9    41    1
    44    11    42    1
    45    11    43    1
    46    13    44    1
    47    14    45    1
    48    15    46    1
    49    16    47    1
    50    23    48    1
    51    24    49    1
    52    30    50    1
    53    31    51    1
    54    31    52    1
