@<TRIPOS>MOLECULE
*****
 74 80 0 0 0
SMALL
GASTEIGER

@<TRIPOS>ATOM
      1 C           5.6913   -3.5178    2.1609 C.3     1  UNL1        0.0788
      2 O           5.6354   -2.6445    1.0492 O.3     1  UNL1       -0.4951
      3 C           6.5025   -1.5341    1.0283 C.ar    1  UNL1        0.1205
      4 C           7.3823   -1.3024    2.0623 C.ar    1  UNL1       -0.0182
      5 C           8.2136   -0.2105    2.0081 C.ar    1  UNL1       -0.0367
      6 C           8.2032    0.6801    0.9409 C.ar    1  UNL1        0.0378
      7 C           7.3334    0.4686   -0.0983 C.ar    1  UNL1       -0.0072
      8 C           6.5007   -0.6441   -0.0239 C.ar    1  UNL1       -0.0140
      9 C           7.4898    1.5282   -1.0675 C.3     1  UNL1        0.0813
     10 C           7.4925    1.3424   -2.5348 C.3     1  UNL1       -0.0262
     11 C           6.4180    2.1911   -1.8430 C.3     1  UNL1        0.0035
     12 C           5.0309    1.7332   -1.8780 C.ar    1  UNL1       -0.0409
     13 C           4.0985    2.4040   -1.0780 C.ar    1  UNL1       -0.0575
     14 C           2.7640    2.0610   -1.0821 C.ar    1  UNL1       -0.0502
     15 C           2.3005    1.0391   -1.8793 C.ar    1  UNL1        0.0268
     16 C           1.0802    0.4665   -2.1121 C.ar    1  UNL1        0.0931
     17 C          -0.1964    0.8414   -1.5036 C.2     1  UNL1       -0.0334
     18 C          -1.2769    0.1768   -1.8460 C.2     1  UNL1       -0.0525
     19 C          -2.6081    0.4676   -1.2995 C.ar    1  UNL1       -0.0249
     20 C          -3.6729   -0.3109   -1.7405 C.ar    1  UNL1       -0.0543
     21 C          -4.9267   -0.0674   -1.2582 C.ar    1  UNL1       -0.0568
     22 C          -5.2143    0.9314   -0.3330 C.ar    1  UNL1       -0.0333
     23 C          -6.5650    1.1779    0.1741 C.3     1  UNL1        0.0242
     24 N          -6.9215    0.4764    1.3645 N.3     1  UNL1       -0.2933
     25 C          -8.2314    0.6880    1.8257 C.3     1  UNL1        0.0254
     26 C          -8.8916   -0.5549    2.3146 C.3     1  UNL1        0.0690
     27 C          -8.4215   -0.9058    3.7136 C.3     1  UNL1       -0.0375
     28 O          -8.7073   -1.6356    1.4957 O.3     1  UNL1       -0.3714
     29 C          -7.4283   -1.9073    1.1072 C.3     1  UNL1        0.0690
     30 C          -6.9813   -3.2042    1.7600 C.3     1  UNL1       -0.0375
     31 C          -6.4422   -0.8353    1.5192 C.3     1  UNL1        0.0254
     32 C          -4.1341    1.6807    0.0798 C.ar    1  UNL1       -0.0568
     33 C          -2.8425    1.4600   -0.3915 C.ar    1  UNL1       -0.0543
     34 N           1.2908   -0.5007   -3.0112 N.ar    1  UNL1       -0.1733
     35 N           2.5528   -0.5809   -3.3638 N.ar    1  UNL1       -0.2764
     36 C           3.1999    0.3713   -2.6690 C.ar    1  UNL1        0.0666
     37 C           4.5233    0.7279   -2.6506 C.ar    1  UNL1       -0.0328
     38 C           8.6142    2.3566   -0.5581 C.2     1  UNL1        0.2284
     39 O           9.1209    3.3614   -1.1653 O.2     1  UNL1       -0.2745
     40 N           9.0046    1.8437    0.6799 N.am    1  UNL1       -0.2845
     41 H           6.6211   -4.1547    2.1435 H       1  UNL1        0.0660
     42 H           5.6396   -2.8929    3.0718 H       1  UNL1        0.0660
     43 H           4.8302   -4.2144    2.1361 H       1  UNL1        0.0660
     44 H           7.4402   -1.9500    2.9128 H       1  UNL1        0.0655
     45 H           8.9289   -0.0039    2.8263 H       1  UNL1        0.0637
     46 H           5.7855   -0.8950   -0.8106 H       1  UNL1        0.0658
     47 H           7.2012    0.3829   -3.0017 H       1  UNL1        0.0285
     48 H           8.2553    1.8777   -3.1304 H       1  UNL1        0.0285
     49 H           6.5743    3.3244   -1.9305 H       1  UNL1        0.0362
     50 H           4.4098    3.2013   -0.4447 H       1  UNL1        0.0621
     51 H           2.0290    2.5702   -0.4680 H       1  UNL1        0.0625
     52 H          -0.2290    1.6418   -0.7970 H       1  UNL1        0.0640
     53 H          -1.1598   -0.6279   -2.5735 H       1  UNL1        0.0624
     54 H          -3.4892   -1.1097   -2.4715 H       1  UNL1        0.0624
     55 H          -5.7776   -0.6718   -1.5950 H       1  UNL1        0.0621
     56 H          -6.6774    2.2805    0.3816 H       1  UNL1        0.0476
     57 H          -7.3123    0.9715   -0.6427 H       1  UNL1        0.0476
     58 H          -8.8832    1.1827    1.0498 H       1  UNL1        0.0452
     59 H          -8.1696    1.4184    2.6974 H       1  UNL1        0.0452
     60 H          -9.9921   -0.3040    2.4089 H       1  UNL1        0.0606
     61 H          -7.7131   -0.1721    4.1309 H       1  UNL1        0.0255
     62 H          -7.9609   -1.9035    3.7839 H       1  UNL1        0.0255
     63 H          -9.2892   -0.9445    4.4294 H       1  UNL1        0.0255
     64 H          -7.3713   -2.0564   -0.0046 H       1  UNL1        0.0606
     65 H          -7.8118   -3.7432    2.2595 H       1  UNL1        0.0255
     66 H          -6.5907   -3.9212    0.9836 H       1  UNL1        0.0255
     67 H          -6.2138   -3.0138    2.5342 H       1  UNL1        0.0255
     68 H          -6.1257   -1.0191    2.5766 H       1  UNL1        0.0452
     69 H          -5.5132   -1.0495    0.9102 H       1  UNL1        0.0452
     70 H          -4.2730    2.4910    0.8086 H       1  UNL1        0.0621
     71 H          -2.0216    2.0664   -0.0455 H       1  UNL1        0.0624
     72 H           2.9233   -1.2731   -4.0557 H       1  UNL1        0.1889
     73 H           5.2010    0.1857   -3.2818 H       1  UNL1        0.0642
     74 H           9.7538    2.2073    1.3503 H       1  UNL1        0.1548
@<TRIPOS>BOND
     1     1     2    1
     2     2     3    1
     3     3     4   ar
     4     4     5   ar
     5     5     6   ar
     6     6     7   ar
     7     7     8   ar
     8     7     9    1
     9     9    10    1
    10    10    11    1
    11    11    12    1
    12    12    13   ar
    13    13    14   ar
    14    14    15   ar
    15    15    16   ar
    16    16    17    1
    17    17    18    2
    18    18    19    1
    19    19    20   ar
    20    20    21   ar
    21    21    22   ar
    22    22    23    1
    23    23    24    1
    24    24    25    1
    25    25    26    1
    26    26    27    1
    27    26    28    1
    28    28    29    1
    29    29    30    1
    30    29    31    1
    31    22    32   ar
    32    32    33   ar
    33    16    34   ar
    34    34    35   ar
    35    35    36   ar
    36    36    37   ar
    37     9    38    1
    38    38    39    2
    39    38    40   am
    40     8     3   ar
    41    11     9    1
    42    37    12   ar
    43    40     6    1
    44    36    15   ar
    45    33    19   ar
    46    31    24    1
    47     1    41    1
    48     1    42    1
    49     1    43    1
    50     4    44    1
    51     5    45    1
    52     8    46    1
    53    10    47    1
    54    10    48    1
    55    11    49    1
    56    13    50    1
    57    14    51    1
    58    17    52    1
    59    18    53    1
    60    20    54    1
    61    21    55    1
    62    23    56    1
    63    23    57    1
    64    25    58    1
    65    25    59    1
    66    26    60    1
    67    27    61    1
    68    27    62    1
    69    27    63    1
    70    29    64    1
    71    30    65    1
    72    30    66    1
    73    30    67    1
    74    31    68    1
    75    31    69    1
    76    32    70    1
    77    33    71    1
    78    35    72    1
    79    37    73    1
    80    40    74    1
