
     RDKit          3D

 74 80  0  0  0  0  0  0  0  0999 V2000
    5.6913   -3.5178    2.1609 C   0  0  0  0  0  0  0  0  0  0  0  0
    5.6354   -2.6445    1.0492 O   0  0  0  0  0  0  0  0  0  0  0  0
    6.5025   -1.5341    1.0283 C   0  0  0  0  0  0  0  0  0  0  0  0
    7.3823   -1.3024    2.0623 C   0  0  0  0  0  0  0  0  0  0  0  0
    8.2136   -0.2105    2.0081 C   0  0  0  0  0  0  0  0  0  0  0  0
    8.2032    0.6801    0.9409 C   0  0  0  0  0  0  0  0  0  0  0  0
    7.3334    0.4686   -0.0983 C   0  0  0  0  0  0  0  0  0  0  0  0
    6.5007   -0.6441   -0.0239 C   0  0  0  0  0  0  0  0  0  0  0  0
    7.4898    1.5282   -1.0675 C   0  0  1  0  0  0  0  0  0  0  0  0
    7.4925    1.3424   -2.5348 C   0  0  0  0  0  0  0  0  0  0  0  0
    6.4180    2.1911   -1.8430 C   0  0  1  0  0  0  0  0  0  0  0  0
    5.0309    1.7332   -1.8780 C   0  0  0  0  0  0  0  0  0  0  0  0
    4.0985    2.4040   -1.0780 C   0  0  0  0  0  0  0  0  0  0  0  0
    2.7640    2.0610   -1.0821 C   0  0  0  0  0  0  0  0  0  0  0  0
    2.3005    1.0391   -1.8793 C   0  0  0  0  0  0  0  0  0  0  0  0
    1.0802    0.4665   -2.1121 C   0  0  0  0  0  0  0  0  0  0  0  0
   -0.1964    0.8414   -1.5036 C   0  0  0  0  0  0  0  0  0  0  0  0
   -1.2769    0.1768   -1.8460 C   0  0  0  0  0  0  0  0  0  0  0  0
   -2.6081    0.4676   -1.2995 C   0  0  0  0  0  0  0  0  0  0  0  0
   -3.6729   -0.3109   -1.7405 C   0  0  0  0  0  0  0  0  0  0  0  0
   -4.9267   -0.0674   -1.2582 C   0  0  0  0  0  0  0  0  0  0  0  0
   -5.2143    0.9314   -0.3330 C   0  0  0  0  0  0  0  0  0  0  0  0
   -6.5650    1.1779    0.1741 C   0  0  0  0  0  0  0  0  0  0  0  0
   -6.9215    0.4764    1.3645 N   0  0  0  0  0  0  0  0  0  0  0  0
   -8.2314    0.6880    1.8257 C   0  0  0  0  0  0  0  0  0  0  0  0
   -8.8916   -0.5549    2.3146 C   0  0  2  0  0  0  0  0  0  0  0  0
   -8.4215   -0.9058    3.7136 C   0  0  0  0  0  0  0  0  0  0  0  0
   -8.7073   -1.6356    1.4957 O   0  0  0  0  0  0  0  0  0  0  0  0
   -7.4283   -1.9073    1.1072 C   0  0  2  0  0  0  0  0  0  0  0  0
   -6.9813   -3.2042    1.7600 C   0  0  0  0  0  0  0  0  0  0  0  0
   -6.4422   -0.8353    1.5192 C   0  0  0  0  0  0  0  0  0  0  0  0
   -4.1341    1.6807    0.0798 C   0  0  0  0  0  0  0  0  0  0  0  0
   -2.8425    1.4600   -0.3915 C   0  0  0  0  0  0  0  0  0  0  0  0
    1.2908   -0.5007   -3.0112 N   0  0  0  0  0  0  0  0  0  0  0  0
    2.5528   -0.5809   -3.3638 N   0  0  0  0  0  0  0  0  0  0  0  0
    3.1999    0.3713   -2.6690 C   0  0  0  0  0  0  0  0  0  0  0  0
    4.5233    0.7279   -2.6506 C   0  0  0  0  0  0  0  0  0  0  0  0
    8.6142    2.3566   -0.5581 C   0  0  0  0  0  0  0  0  0  0  0  0
    9.1209    3.3614   -1.1653 O   0  0  0  0  0  0  0  0  0  0  0  0
    9.0046    1.8437    0.6799 N   0  0  0  0  0  0  0  0  0  0  0  0
    6.6211   -4.1547    2.1435 H   0  0  0  0  0  0  0  0  0  0  0  0
    5.6396   -2.8929    3.0718 H   0  0  0  0  0  0  0  0  0  0  0  0
    4.8302   -4.2144    2.1361 H   0  0  0  0  0  0  0  0  0  0  0  0
    7.4402   -1.9500    2.9128 H   0  0  0  0  0  0  0  0  0  0  0  0
    8.9289   -0.0039    2.8263 H   0  0  0  0  0  0  0  0  0  0  0  0
    5.7855   -0.8950   -0.8106 H   0  0  0  0  0  0  0  0  0  0  0  0
    7.2012    0.3829   -3.0017 H   0  0  0  0  0  0  0  0  0  0  0  0
    8.2553    1.8777   -3.1304 H   0  0  0  0  0  0  0  0  0  0  0  0
    6.5743    3.3244   -1.9305 H   0  0  0  0  0  0  0  0  0  0  0  0
    4.4098    3.2013   -0.4447 H   0  0  0  0  0  0  0  0  0  0  0  0
    2.0290    2.5702   -0.4680 H   0  0  0  0  0  0  0  0  0  0  0  0
   -0.2290    1.6418   -0.7970 H   0  0  0  0  0  0  0  0  0  0  0  0
   -1.1598   -0.6279   -2.5735 H   0  0  0  0  0  0  0  0  0  0  0  0
   -3.4892   -1.1097   -2.4715 H   0  0  0  0  0  0  0  0  0  0  0  0
   -5.7776   -0.6718   -1.5950 H   0  0  0  0  0  0  0  0  0  0  0  0
   -6.6774    2.2805    0.3816 H   0  0  0  0  0  0  0  0  0  0  0  0
   -7.3123    0.9715   -0.6427 H   0  0  0  0  0  0  0  0  0  0  0  0
   -8.8832    1.1827    1.0498 H   0  0  0  0  0  0  0  0  0  0  0  0
   -8.1696    1.4184    2.6974 H   0  0  0  0  0  0  0  0  0  0  0  0
   -9.9921   -0.3040    2.4089 H   0  0  0  0  0  0  0  0  0  0  0  0
   -7.7131   -0.1721    4.1309 H   0  0  0  0  0  0  0  0  0  0  0  0
   -7.9609   -1.9035    3.7839 H   0  0  0  0  0  0  0  0  0  0  0  0
   -9.2892   -0.9445    4.4294 H   0  0  0  0  0  0  0  0  0  0  0  0
   -7.3713   -2.0564   -0.0046 H   0  0  0  0  0  0  0  0  0  0  0  0
   -7.8118   -3.7432    2.2595 H   0  0  0  0  0  0  0  0  0  0  0  0
   -6.5907   -3.9212    0.9836 H   0  0  0  0  0  0  0  0  0  0  0  0
   -6.2138   -3.0138    2.5342 H   0  0  0  0  0  0  0  0  0  0  0  0
   -6.1257   -1.0191    2.5766 H   0  0  0  0  0  0  0  0  0  0  0  0
   -5.5132   -1.0495    0.9102 H   0  0  0  0  0  0  0  0  0  0  0  0
   -4.2730    2.4910    0.8086 H   0  0  0  0  0  0  0  0  0  0  0  0
   -2.0216    2.0664   -0.0455 H   0  0  0  0  0  0  0  0  0  0  0  0
    2.9233   -1.2731   -4.0557 H   0  0  0  0  0  0  0  0  0  0  0  0
    5.2010    0.1857   -3.2818 H   0  0  0  0  0  0  0  0  0  0  0  0
    9.7538    2.2073    1.3503 H   0  0  0  0  0  0  0  0  0  0  0  0
  1  2  1  0
  2  3  1  0
  3  4  2  0
  4  5  1  0
  5  6  2  0
  6  7  1  0
  7  8  2  0
  7  9  1  0
  9 10  1  6
 10 11  1  0
 11 12  1  0
 12 13  2  0
 13 14  1  0
 14 15  2  0
 15 16  1  0
 16 17  1  0
 17 18  2  0
 18 19  1  0
 19 20  2  0
 20 21  1  0
 21 22  2  0
 22 23  1  0
 23 24  1  0
 24 25  1  0
 25 26  1  0
 26 27  1  0
 26 28  1  0
 28 29  1  0
 29 30  1  0
 29 31  1  0
 22 32  1  0
 32 33  2  0
 16 34  2  0
 34 35  1  0
 35 36  1  0
 36 37  2  0
  9 38  1  0
 38 39  2  0
 38 40  1  0
  8  3  1  0
 11  9  1  0
 37 12  1  0
 40  6  1  0
 36 15  1  0
 33 19  1  0
 31 24  1  0
  1 41  1  0
  1 42  1  0
  1 43  1  0
  4 44  1  0
  5 45  1  0
  8 46  1  0
 10 47  1  0
 10 48  1  0
 11 49  1  6
 13 50  1  0
 14 51  1  0
 17 52  1  0
 18 53  1  0
 20 54  1  0
 21 55  1  0
 23 56  1  0
 23 57  1  0
 25 58  1  0
 25 59  1  0
 26 60  1  1
 27 61  1  0
 27 62  1  0
 27 63  1  0
 29 64  1  6
 30 65  1  0
 30 66  1  0
 30 67  1  0
 31 68  1  0
 31 69  1  0
 32 70  1  0
 33 71  1  0
 35 72  1  0
 37 73  1  0
 40 74  1  0
M  END
$$$$
