@<TRIPOS>MOLECULE
*****
 39 39 0 0 0
SMALL
GASTEIGER

@<TRIPOS>ATOM
      1 O           5.1872    0.6338   -0.6735 O.2     1  UNL1       -0.2737
      2 C           4.9747   -0.5203   -0.2559 C.2     1  UNL1        0.2354
      3 C           3.7282   -0.8275    0.4651 C.3     1  UNL1        0.0259
      4 C           2.9077    0.4668    0.5401 C.3     1  UNL1       -0.0447
      5 C           1.6196    0.2500    1.2584 C.3     1  UNL1       -0.0526
      6 C           0.8539    1.5403    1.3187 C.3     1  UNL1       -0.0526
      7 C           0.5311    2.0857   -0.0497 C.3     1  UNL1       -0.0448
      8 C          -0.2846    1.1191   -0.8422 C.3     1  UNL1        0.0243
      9 C          -1.5901    0.7751   -0.2900 C.2     1  UNL1        0.2172
     10 O          -1.9930    1.3405    0.7576 O.2     1  UNL1       -0.2755
     11 N          -2.4762   -0.1767   -0.8535 N.am    1  UNL1       -0.2855
     12 C          -3.7410   -0.4862   -0.2872 C.ar    1  UNL1        0.0334
     13 C          -3.8373   -1.5030    0.6491 C.ar    1  UNL1       -0.0405
     14 C          -5.0200   -1.8736    1.2517 C.ar    1  UNL1       -0.0600
     15 C          -6.1598   -1.1755    0.8834 C.ar    1  UNL1       -0.0616
     16 C          -6.0973   -0.1581   -0.0458 C.ar    1  UNL1       -0.0600
     17 C          -4.8952    0.1844   -0.6275 C.ar    1  UNL1       -0.0405
     18 N           5.9837   -1.4986   -0.5116 N.am    1  UNL1       -0.1975
     19 O           7.1257   -1.1767   -1.1830 O.3     1  UNL1       -0.2952
     20 H           3.8818   -1.2231    1.4753 H       1  UNL1        0.0359
     21 H           3.1585   -1.5579   -0.1695 H       1  UNL1        0.0359
     22 H           2.7508    0.7614   -0.5371 H       1  UNL1        0.0270
     23 H           3.4829    1.2591    1.0211 H       1  UNL1        0.0270
     24 H           1.0309   -0.5762    0.8031 H       1  UNL1        0.0265
     25 H           1.8634   -0.0959    2.2856 H       1  UNL1        0.0265
     26 H           1.5356    2.2910    1.8003 H       1  UNL1        0.0265
     27 H          -0.0470    1.3695    1.9189 H       1  UNL1        0.0265
     28 H           0.0034    3.0641    0.0880 H       1  UNL1        0.0270
     29 H           1.4937    2.3246   -0.5545 H       1  UNL1        0.0270
     30 H           0.2853    0.1490   -0.9491 H       1  UNL1        0.0358
     31 H          -0.3296    1.5118   -1.8834 H       1  UNL1        0.0358
     32 H          -2.1851   -0.6691   -1.7200 H       1  UNL1        0.1548
     33 H          -2.9430   -2.0349    0.9239 H       1  UNL1        0.0636
     34 H          -5.0785   -2.6744    1.9853 H       1  UNL1        0.0618
     35 H          -7.0869   -1.4772    1.3658 H       1  UNL1        0.0618
     36 H          -7.0172    0.3776   -0.3182 H       1  UNL1        0.0618
     37 H          -4.8482    0.9769   -1.3509 H       1  UNL1        0.0636
     38 H           5.7992   -2.4652   -0.1586 H       1  UNL1        0.1822
     39 H           7.4328   -0.3110   -0.7679 H       1  UNL1        0.2414
@<TRIPOS>BOND
     1     1     2    2
     2     2     3    1
     3     3     4    1
     4     4     5    1
     5     5     6    1
     6     6     7    1
     7     7     8    1
     8     8     9    1
     9     9    10    2
    10     9    11   am
    11    11    12    1
    12    12    13   ar
    13    13    14   ar
    14    14    15   ar
    15    15    16   ar
    16    16    17   ar
    17     2    18   am
    18    18    19    1
    19    17    12   ar
    20     3    20    1
    21     3    21    1
    22     4    22    1
    23     4    23    1
    24     5    24    1
    25     5    25    1
    26     6    26    1
    27     6    27    1
    28     7    28    1
    29     7    29    1
    30     8    30    1
    31     8    31    1
    32    11    32    1
    33    13    33    1
    34    14    34    1
    35    15    35    1
    36    16    36    1
    37    17    37    1
    38    18    38    1
    39    19    39    1
