
     RDKit          3D

 39 39  0  0  0  0  0  0  0  0999 V2000
    5.1872    0.6338   -0.6735 O   0  0  0  0  0  0  0  0  0  0  0  0
    4.9747   -0.5203   -0.2559 C   0  0  0  0  0  0  0  0  0  0  0  0
    3.7282   -0.8275    0.4651 C   0  0  0  0  0  0  0  0  0  0  0  0
    2.9077    0.4668    0.5401 C   0  0  0  0  0  0  0  0  0  0  0  0
    1.6196    0.2500    1.2584 C   0  0  0  0  0  0  0  0  0  0  0  0
    0.8539    1.5403    1.3187 C   0  0  0  0  0  0  0  0  0  0  0  0
    0.5311    2.0857   -0.0497 C   0  0  0  0  0  0  0  0  0  0  0  0
   -0.2846    1.1191   -0.8422 C   0  0  0  0  0  0  0  0  0  0  0  0
   -1.5901    0.7751   -0.2900 C   0  0  0  0  0  0  0  0  0  0  0  0
   -1.9930    1.3405    0.7576 O   0  0  0  0  0  0  0  0  0  0  0  0
   -2.4762   -0.1767   -0.8535 N   0  0  0  0  0  0  0  0  0  0  0  0
   -3.7410   -0.4862   -0.2872 C   0  0  0  0  0  0  0  0  0  0  0  0
   -3.8373   -1.5030    0.6491 C   0  0  0  0  0  0  0  0  0  0  0  0
   -5.0200   -1.8736    1.2517 C   0  0  0  0  0  0  0  0  0  0  0  0
   -6.1598   -1.1755    0.8834 C   0  0  0  0  0  0  0  0  0  0  0  0
   -6.0973   -0.1581   -0.0458 C   0  0  0  0  0  0  0  0  0  0  0  0
   -4.8952    0.1844   -0.6275 C   0  0  0  0  0  0  0  0  0  0  0  0
    5.9837   -1.4986   -0.5116 N   0  0  0  0  0  0  0  0  0  0  0  0
    7.1257   -1.1767   -1.1830 O   0  0  0  0  0  0  0  0  0  0  0  0
    3.8818   -1.2231    1.4753 H   0  0  0  0  0  0  0  0  0  0  0  0
    3.1585   -1.5579   -0.1695 H   0  0  0  0  0  0  0  0  0  0  0  0
    2.7508    0.7614   -0.5371 H   0  0  0  0  0  0  0  0  0  0  0  0
    3.4829    1.2591    1.0211 H   0  0  0  0  0  0  0  0  0  0  0  0
    1.0309   -0.5762    0.8031 H   0  0  0  0  0  0  0  0  0  0  0  0
    1.8634   -0.0959    2.2856 H   0  0  0  0  0  0  0  0  0  0  0  0
    1.5356    2.2910    1.8003 H   0  0  0  0  0  0  0  0  0  0  0  0
   -0.0470    1.3695    1.9189 H   0  0  0  0  0  0  0  0  0  0  0  0
    0.0034    3.0641    0.0880 H   0  0  0  0  0  0  0  0  0  0  0  0
    1.4937    2.3246   -0.5545 H   0  0  0  0  0  0  0  0  0  0  0  0
    0.2853    0.1490   -0.9491 H   0  0  0  0  0  0  0  0  0  0  0  0
   -0.3296    1.5118   -1.8834 H   0  0  0  0  0  0  0  0  0  0  0  0
   -2.1851   -0.6691   -1.7200 H   0  0  0  0  0  0  0  0  0  0  0  0
   -2.9430   -2.0349    0.9239 H   0  0  0  0  0  0  0  0  0  0  0  0
   -5.0785   -2.6744    1.9853 H   0  0  0  0  0  0  0  0  0  0  0  0
   -7.0869   -1.4772    1.3658 H   0  0  0  0  0  0  0  0  0  0  0  0
   -7.0172    0.3776   -0.3182 H   0  0  0  0  0  0  0  0  0  0  0  0
   -4.8482    0.9769   -1.3509 H   0  0  0  0  0  0  0  0  0  0  0  0
    5.7992   -2.4652   -0.1586 H   0  0  0  0  0  0  0  0  0  0  0  0
    7.4328   -0.3110   -0.7679 H   0  0  0  0  0  0  0  0  0  0  0  0
  1  2  2  0
  2  3  1  0
  3  4  1  0
  4  5  1  0
  5  6  1  0
  6  7  1  0
  7  8  1  0
  8  9  1  0
  9 10  2  0
  9 11  1  0
 11 12  1  0
 12 13  2  0
 13 14  1  0
 14 15  2  0
 15 16  1  0
 16 17  2  0
  2 18  1  0
 18 19  1  0
 17 12  1  0
  3 20  1  0
  3 21  1  0
  4 22  1  0
  4 23  1  0
  5 24  1  0
  5 25  1  0
  6 26  1  0
  6 27  1  0
  7 28  1  0
  7 29  1  0
  8 30  1  0
  8 31  1  0
 11 32  1  0
 13 33  1  0
 14 34  1  0
 15 35  1  0
 16 36  1  0
 17 37  1  0
 18 38  1  0
 19 39  1  0
M  END
$$$$
