@<TRIPOS>MOLECULE
*****
 55 59 0 0 0
SMALL
GASTEIGER

@<TRIPOS>ATOM
      1 C           3.8814    4.9223   -0.0093 C.3     1  UNL1        0.0132
      2 N           2.8100    3.9240    0.0466 N.ar    1  UNL1       -0.3343
      3 C           2.8917    2.6978    0.5550 C.ar    1  UNL1        0.0141
      4 C           1.6532    2.0446    0.4272 C.ar    1  UNL1        0.0059
      5 C           1.3795    0.6856    0.8325 C.2     1  UNL1       -0.0062
      6 C           2.3055   -0.2541    0.5070 C.2     1  UNL1        0.1763
      7 O           3.4767   -0.0512   -0.1684 O.3     1  UNL1       -0.4513
      8 C           4.1703   -1.2616   -0.3160 C.ar    1  UNL1        0.1430
      9 C           5.3852   -1.5294   -0.9267 C.ar    1  UNL1       -0.0184
     10 C           5.8638   -2.8252   -0.9413 C.ar    1  UNL1       -0.0548
     11 C           5.1676   -3.8757   -0.3631 C.ar    1  UNL1       -0.0192
     12 C           3.9612   -3.5691    0.2353 C.ar    1  UNL1        0.1313
     13 O           3.2032   -4.5593    0.8358 O.3     1  UNL1       -0.5059
     14 C           3.4647   -2.2853    0.2621 C.ar    1  UNL1        0.1088
     15 C           2.2541   -1.6819    0.8060 C.2     1  UNL1        0.2350
     16 O           1.3400   -2.2901    1.4191 O.2     1  UNL1       -0.2831
     17 C           0.8142    2.9347   -0.1836 C.ar    1  UNL1        0.0338
     18 C          -0.5008    2.8516   -0.5823 C.ar    1  UNL1       -0.0052
     19 C          -1.3403    1.6918   -0.3259 C.ar    1  UNL1       -0.0171
     20 C          -1.7577    0.8482   -1.3524 C.ar    1  UNL1       -0.0533
     21 C          -2.6091   -0.2196   -1.1031 C.ar    1  UNL1       -0.0491
     22 C          -3.0787   -0.4955    0.1613 C.ar    1  UNL1        0.0367
     23 C          -3.9730   -1.6200    0.4234 C.2     1  UNL1        0.2441
     24 O          -4.3213   -1.8253    1.6344 O.2     1  UNL1       -0.2702
     25 N          -4.4867   -2.4985   -0.5371 N.am    1  UNL1       -0.3092
     26 C          -5.3654   -3.6020   -0.2447 C.3     1  UNL1        0.0351
     27 C          -6.6532   -3.1379    0.4120 C.3     1  UNL1        0.0597
     28 O          -7.3137   -2.2634   -0.4451 O.3     1  UNL1       -0.3935
     29 C          -2.6636    0.3439    1.1836 C.ar    1  UNL1       -0.0491
     30 C          -1.8193    1.4021    0.9305 C.ar    1  UNL1       -0.0533
     31 C          -1.0606    3.9707   -1.2236 C.ar    1  UNL1       -0.0351
     32 C          -0.3097    5.0775   -1.4266 C.ar    1  UNL1        0.0305
     33 N           0.9656    5.1265   -1.0252 N.ar    1  UNL1       -0.2372
     34 C           1.5584    4.0943   -0.4101 C.ar    1  UNL1        0.1416
     35 H           3.6999    5.5520   -0.9202 H       1  UNL1        0.0456
     36 H           4.8520    4.4190   -0.0244 H       1  UNL1        0.0456
     37 H           3.8672    5.5979    0.8674 H       1  UNL1        0.0456
     38 H           3.7339    2.2026    1.0128 H       1  UNL1        0.0815
     39 H           0.5645    0.3037    1.3699 H       1  UNL1        0.0662
     40 H           5.9717   -0.7357   -1.3957 H       1  UNL1        0.0654
     41 H           6.8014   -3.0748   -1.4038 H       1  UNL1        0.0620
     42 H           5.5346   -4.9073   -0.3685 H       1  UNL1        0.0654
     43 H           3.6230   -5.2037    1.5245 H       1  UNL1        0.2922
     44 H          -1.3842    1.0722   -2.3383 H       1  UNL1        0.0624
     45 H          -2.9078   -0.8471   -1.9353 H       1  UNL1        0.0625
     46 H          -4.2121   -2.3401   -1.5308 H       1  UNL1        0.1491
     47 H          -4.8715   -4.2939    0.4740 H       1  UNL1        0.0485
     48 H          -5.5835   -4.1770   -1.1622 H       1  UNL1        0.0485
     49 H          -6.4825   -2.7392    1.4171 H       1  UNL1        0.0573
     50 H          -7.3307   -4.0266    0.5379 H       1  UNL1        0.0573
     51 H          -7.7166   -1.5043    0.0820 H       1  UNL1        0.2095
     52 H          -3.0403    0.1157    2.1747 H       1  UNL1        0.0625
     53 H          -1.5252    2.0293    1.7636 H       1  UNL1        0.0624
     54 H          -2.0956    3.8574   -1.5204 H       1  UNL1        0.0639
     55 H          -0.7913    5.9295   -1.9338 H       1  UNL1        0.0830
@<TRIPOS>BOND
     1     1     2    1
     2     2     3   ar
     3     3     4   ar
     4     4     5    1
     5     5     6    2
     6     6     7    1
     7     7     8    1
     8     8     9   ar
     9     9    10   ar
    10    10    11   ar
    11    11    12   ar
    12    12    13    1
    13    12    14   ar
    14    14    15    1
    15    15    16    2
    16     4    17   ar
    17    17    18   ar
    18    18    19    1
    19    19    20   ar
    20    20    21   ar
    21    21    22   ar
    22    22    23    1
    23    23    24    2
    24    23    25   am
    25    25    26    1
    26    26    27    1
    27    27    28    1
    28    22    29   ar
    29    29    30   ar
    30    18    31   ar
    31    31    32   ar
    32    32    33   ar
    33    33    34   ar
    34    34     2   ar
    35    15     6    1
    36    34    17   ar
    37    14     8   ar
    38    30    19   ar
    39     1    35    1
    40     1    36    1
    41     1    37    1
    42     3    38    1
    43     5    39    1
    44     9    40    1
    45    10    41    1
    46    11    42    1
    47    13    43    1
    48    20    44    1
    49    21    45    1
    50    25    46    1
    51    26    47    1
    52    26    48    1
    53    27    49    1
    54    27    50    1
    55    28    51    1
    56    29    52    1
    57    30    53    1
    58    31    54    1
    59    32    55    1
