
     RDKit          3D

 55 59  0  0  0  0  0  0  0  0999 V2000
    3.8814    4.9223   -0.0093 C   0  0  0  0  0  0  0  0  0  0  0  0
    2.8100    3.9240    0.0466 N   0  0  0  0  0  0  0  0  0  0  0  0
    2.8917    2.6978    0.5550 C   0  0  0  0  0  0  0  0  0  0  0  0
    1.6532    2.0446    0.4272 C   0  0  0  0  0  0  0  0  0  0  0  0
    1.3795    0.6856    0.8325 C   0  0  0  0  0  0  0  0  0  0  0  0
    2.3055   -0.2541    0.5070 C   0  0  0  0  0  0  0  0  0  0  0  0
    3.4767   -0.0512   -0.1684 O   0  0  0  0  0  0  0  0  0  0  0  0
    4.1703   -1.2616   -0.3160 C   0  0  0  0  0  0  0  0  0  0  0  0
    5.3852   -1.5294   -0.9267 C   0  0  0  0  0  0  0  0  0  0  0  0
    5.8638   -2.8252   -0.9413 C   0  0  0  0  0  0  0  0  0  0  0  0
    5.1676   -3.8757   -0.3631 C   0  0  0  0  0  0  0  0  0  0  0  0
    3.9612   -3.5691    0.2353 C   0  0  0  0  0  0  0  0  0  0  0  0
    3.2032   -4.5593    0.8358 O   0  0  0  0  0  0  0  0  0  0  0  0
    3.4647   -2.2853    0.2621 C   0  0  0  0  0  0  0  0  0  0  0  0
    2.2541   -1.6819    0.8060 C   0  0  0  0  0  0  0  0  0  0  0  0
    1.3400   -2.2901    1.4191 O   0  0  0  0  0  0  0  0  0  0  0  0
    0.8142    2.9347   -0.1836 C   0  0  0  0  0  0  0  0  0  0  0  0
   -0.5008    2.8516   -0.5823 C   0  0  0  0  0  0  0  0  0  0  0  0
   -1.3403    1.6918   -0.3259 C   0  0  0  0  0  0  0  0  0  0  0  0
   -1.7577    0.8482   -1.3524 C   0  0  0  0  0  0  0  0  0  0  0  0
   -2.6091   -0.2196   -1.1031 C   0  0  0  0  0  0  0  0  0  0  0  0
   -3.0787   -0.4955    0.1613 C   0  0  0  0  0  0  0  0  0  0  0  0
   -3.9730   -1.6200    0.4234 C   0  0  0  0  0  0  0  0  0  0  0  0
   -4.3213   -1.8253    1.6344 O   0  0  0  0  0  0  0  0  0  0  0  0
   -4.4867   -2.4985   -0.5371 N   0  0  0  0  0  0  0  0  0  0  0  0
   -5.3654   -3.6020   -0.2447 C   0  0  0  0  0  0  0  0  0  0  0  0
   -6.6532   -3.1379    0.4120 C   0  0  0  0  0  0  0  0  0  0  0  0
   -7.3137   -2.2634   -0.4451 O   0  0  0  0  0  0  0  0  0  0  0  0
   -2.6636    0.3439    1.1836 C   0  0  0  0  0  0  0  0  0  0  0  0
   -1.8193    1.4021    0.9305 C   0  0  0  0  0  0  0  0  0  0  0  0
   -1.0606    3.9707   -1.2236 C   0  0  0  0  0  0  0  0  0  0  0  0
   -0.3097    5.0775   -1.4266 C   0  0  0  0  0  0  0  0  0  0  0  0
    0.9656    5.1265   -1.0252 N   0  0  0  0  0  0  0  0  0  0  0  0
    1.5584    4.0943   -0.4101 C   0  0  0  0  0  0  0  0  0  0  0  0
    3.6999    5.5520   -0.9202 H   0  0  0  0  0  0  0  0  0  0  0  0
    4.8520    4.4190   -0.0244 H   0  0  0  0  0  0  0  0  0  0  0  0
    3.8672    5.5979    0.8674 H   0  0  0  0  0  0  0  0  0  0  0  0
    3.7339    2.2026    1.0128 H   0  0  0  0  0  0  0  0  0  0  0  0
    0.5645    0.3037    1.3699 H   0  0  0  0  0  0  0  0  0  0  0  0
    5.9717   -0.7357   -1.3957 H   0  0  0  0  0  0  0  0  0  0  0  0
    6.8014   -3.0748   -1.4038 H   0  0  0  0  0  0  0  0  0  0  0  0
    5.5346   -4.9073   -0.3685 H   0  0  0  0  0  0  0  0  0  0  0  0
    3.6230   -5.2037    1.5245 H   0  0  0  0  0  0  0  0  0  0  0  0
   -1.3842    1.0722   -2.3383 H   0  0  0  0  0  0  0  0  0  0  0  0
   -2.9078   -0.8471   -1.9353 H   0  0  0  0  0  0  0  0  0  0  0  0
   -4.2121   -2.3401   -1.5308 H   0  0  0  0  0  0  0  0  0  0  0  0
   -4.8715   -4.2939    0.4740 H   0  0  0  0  0  0  0  0  0  0  0  0
   -5.5835   -4.1770   -1.1622 H   0  0  0  0  0  0  0  0  0  0  0  0
   -6.4825   -2.7392    1.4171 H   0  0  0  0  0  0  0  0  0  0  0  0
   -7.3307   -4.0266    0.5379 H   0  0  0  0  0  0  0  0  0  0  0  0
   -7.7166   -1.5043    0.0820 H   0  0  0  0  0  0  0  0  0  0  0  0
   -3.0403    0.1157    2.1747 H   0  0  0  0  0  0  0  0  0  0  0  0
   -1.5252    2.0293    1.7636 H   0  0  0  0  0  0  0  0  0  0  0  0
   -2.0956    3.8574   -1.5204 H   0  0  0  0  0  0  0  0  0  0  0  0
   -0.7913    5.9295   -1.9338 H   0  0  0  0  0  0  0  0  0  0  0  0
  1  2  1  0
  2  3  1  0
  3  4  2  0
  4  5  1  0
  5  6  2  0
  6  7  1  0
  7  8  1  0
  8  9  2  0
  9 10  1  0
 10 11  2  0
 11 12  1  0
 12 13  1  0
 12 14  2  0
 14 15  1  0
 15 16  2  0
  4 17  1  0
 17 18  2  0
 18 19  1  0
 19 20  2  0
 20 21  1  0
 21 22  2  0
 22 23  1  0
 23 24  2  0
 23 25  1  0
 25 26  1  0
 26 27  1  0
 27 28  1  0
 22 29  1  0
 29 30  2  0
 18 31  1  0
 31 32  2  0
 32 33  1  0
 33 34  2  0
 34  2  1  0
 15  6  1  0
 34 17  1  0
 14  8  1  0
 30 19  1  0
  1 35  1  0
  1 36  1  0
  1 37  1  0
  3 38  1  0
  5 39  1  0
  9 40  1  0
 10 41  1  0
 11 42  1  0
 13 43  1  0
 20 44  1  0
 21 45  1  0
 25 46  1  0
 26 47  1  0
 26 48  1  0
 27 49  1  0
 27 50  1  0
 28 51  1  0
 29 52  1  0
 30 53  1  0
 31 54  1  0
 32 55  1  0
M  END
$$$$
