@<TRIPOS>MOLECULE
*****
 53 57 0 0 0
SMALL
GASTEIGER

@<TRIPOS>ATOM
      1 C           2.4982   -0.8185   -1.4771 C.3     1  UNL1        0.0435
      2 N           1.9688   -1.8320   -2.3628 N.3     1  UNL1       -0.3242
      3 C           1.6670    0.4134   -1.4215 C.3     1  UNL1        0.1050
      4 O           0.3897    0.1572   -0.9900 O.3     1  UNL1       -0.4889
      5 C          -0.0853   -0.3402    0.1825 C.ar    1  UNL1        0.1392
      6 C           0.4131   -0.7750    1.3779 C.ar    1  UNL1        0.0692
      7 N          -0.3257   -1.2283    2.3840 N.ar    1  UNL1       -0.2590
      8 C          -1.6581   -1.2894    2.2859 C.ar    1  UNL1        0.0355
      9 C          -2.2804   -0.8813    1.1366 C.ar    1  UNL1        0.0037
     10 C          -1.4880   -0.4064    0.0847 C.ar    1  UNL1       -0.0093
     11 C          -3.7155   -0.9800    1.1152 C.ar    1  UNL1       -0.0156
     12 C          -4.4596   -1.9268    1.7588 C.ar    1  UNL1       -0.0520
     13 C          -5.8341   -1.8506    1.6215 C.ar    1  UNL1       -0.0357
     14 C          -6.5053   -0.8873    0.8816 C.ar    1  UNL1        0.0660
     15 N          -7.7892   -0.6302    0.6190 N.ar    1  UNL1       -0.2767
     16 N          -7.8656    0.4465   -0.1671 N.ar    1  UNL1       -0.1780
     17 C          -6.6221    0.8994   -0.4225 C.ar    1  UNL1        0.0674
     18 C          -6.2149    2.0710   -1.2469 C.3     1  UNL1       -0.0200
     19 C          -5.7265    0.0577    0.2414 C.ar    1  UNL1        0.0230
     20 C          -4.3437    0.0079    0.3600 C.ar    1  UNL1       -0.0430
     21 C           3.8414   -0.4060   -2.0915 C.3     1  UNL1       -0.0073
     22 C           4.3817    0.6375   -1.1846 C.ar    1  UNL1       -0.0208
     23 C           4.3892    2.0057   -1.4551 C.ar    1  UNL1        0.0060
     24 N           4.9585    2.6599   -0.4064 N.ar    1  UNL1       -0.3604
     25 C           5.3259    1.7721    0.5446 C.ar    1  UNL1        0.0467
     26 C           5.9304    1.9104    1.7772 C.ar    1  UNL1       -0.0378
     27 C           6.1802    0.7756    2.5369 C.ar    1  UNL1       -0.0598
     28 C           5.8177   -0.4650    2.0410 C.ar    1  UNL1       -0.0611
     29 C           5.2050   -0.6259    0.7961 C.ar    1  UNL1       -0.0523
     30 C           4.9667    0.5246    0.0574 C.ar    1  UNL1        0.0029
     31 H           2.6526   -1.2746   -0.5030 H       1  UNL1        0.0495
     32 H           0.9871   -1.6785   -2.6575 H       1  UNL1        0.1186
     33 H           2.2016   -2.7940   -2.0848 H       1  UNL1        0.1186
     34 H           1.7134    1.0076   -2.3639 H       1  UNL1        0.0712
     35 H           2.1343    1.1147   -0.6594 H       1  UNL1        0.0712
     36 H           1.4815   -0.6964    1.4094 H       1  UNL1        0.0867
     37 H          -2.1439   -1.6751    3.1683 H       1  UNL1        0.0836
     38 H          -2.1298   -0.1215   -0.7580 H       1  UNL1        0.0661
     39 H          -3.9598   -2.6718    2.3294 H       1  UNL1        0.0624
     40 H          -6.4413   -2.5855    2.1191 H       1  UNL1        0.0639
     41 H          -8.5841   -1.1838    0.9740 H       1  UNL1        0.1889
     42 H          -5.8022    2.8530   -0.5856 H       1  UNL1        0.0293
     43 H          -5.3675    1.7540   -1.9085 H       1  UNL1        0.0293
     44 H          -7.0871    2.4175   -1.8454 H       1  UNL1        0.0293
     45 H          -3.8516    0.8018   -0.1868 H       1  UNL1        0.0631
     46 H           4.5272   -1.2512   -2.1476 H       1  UNL1        0.0330
     47 H           3.6968   -0.0052   -3.1089 H       1  UNL1        0.0330
     48 H           3.9989    2.4824   -2.3684 H       1  UNL1        0.0810
     49 H           5.0836    3.6804   -0.3598 H       1  UNL1        0.1653
     50 H           6.2178    2.8814    2.1734 H       1  UNL1        0.0638
     51 H           6.6591    0.8747    3.5161 H       1  UNL1        0.0618
     52 H           6.0466   -1.2969    2.6936 H       1  UNL1        0.0618
     53 H           4.9472   -1.6290    0.4701 H       1  UNL1        0.0624
@<TRIPOS>BOND
     1     1     2    1
     2     1     3    1
     3     3     4    1
     4     4     5    1
     5     5     6   ar
     6     6     7   ar
     7     7     8   ar
     8     8     9   ar
     9     9    10   ar
    10     9    11    1
    11    11    12   ar
    12    12    13   ar
    13    13    14   ar
    14    14    15   ar
    15    15    16   ar
    16    16    17   ar
    17    17    18    1
    18    17    19   ar
    19    19    20   ar
    20     1    21    1
    21    21    22    1
    22    22    23   ar
    23    23    24   ar
    24    24    25   ar
    25    25    26   ar
    26    26    27   ar
    27    27    28   ar
    28    28    29   ar
    29    29    30   ar
    30    10     5   ar
    31    20    11   ar
    32    30    22   ar
    33    19    14   ar
    34    30    25   ar
    35     1    31    1
    36     2    32    1
    37     2    33    1
    38     3    34    1
    39     3    35    1
    40     6    36    1
    41     8    37    1
    42    10    38    1
    43    12    39    1
    44    13    40    1
    45    15    41    1
    46    18    42    1
    47    18    43    1
    48    18    44    1
    49    20    45    1
    50    21    46    1
    51    21    47    1
    52    23    48    1
    53    24    49    1
    54    26    50    1
    55    27    51    1
    56    28    52    1
    57    29    53    1
