
     RDKit          3D

 75 78  0  0  0  0  0  0  0  0999 V2000
    4.4949   -1.4407    2.8893 C   0  0  0  0  0  0  0  0  0  0  0  0
    4.2383   -0.9961    1.4141 C   0  0  0  0  0  0  0  0  0  0  0  0
    3.8561   -2.2718    0.7353 C   0  0  0  0  0  0  0  0  0  0  0  0
    5.5932   -0.5226    0.9311 C   0  0  0  0  0  0  0  0  0  0  0  0
    3.0514    0.2657    1.5121 S   0  0  0  0  0  6  0  0  0  0  0  0
    3.6364    1.3460    2.4363 O   0  0  0  0  0  0  0  0  0  0  0  0
    1.8726   -0.2929    2.2817 O   0  0  0  0  0  0  0  0  0  0  0  0
    2.5380    1.0606    0.0661 C   0  0  0  0  0  0  0  0  0  0  0  0
    1.7732    0.3454   -0.9832 C   0  0  2  0  0  0  0  0  0  0  0  0
    1.5803    1.2380   -2.2165 C   0  0  0  0  0  0  0  0  0  0  0  0
    2.7644    1.7365   -2.9465 C   0  0  0  0  0  0  0  0  0  0  0  0
    1.8484    0.6811   -3.5842 C   0  0  0  0  0  0  0  0  0  0  0  0
    0.3927   -0.0308   -0.5948 N   0  0  0  0  0  0  0  0  0  0  0  0
    0.0311   -1.4214   -0.5296 C   0  0  0  0  0  0  0  0  0  0  0  0
    0.7750   -2.1917    0.1031 O   0  0  0  0  0  0  0  0  0  0  0  0
   -1.2067   -1.9784   -1.1949 C   0  0  1  0  0  0  0  0  0  0  0  0
   -0.7755   -2.6212   -2.4686 C   0  0  0  0  0  0  0  0  0  0  0  0
   -1.8963   -2.9703   -0.3283 C   0  0  0  0  0  0  0  0  0  0  0  0
   -3.0991   -3.4904   -1.0634 C   0  0  0  0  0  0  0  0  0  0  0  0
   -3.3632   -3.1195   -2.2397 O   0  0  0  0  0  0  0  0  0  0  0  0
   -4.0050   -4.4435   -0.4422 C   0  0  0  0  0  0  0  0  0  0  0  0
   -4.9953   -4.8555   -1.0813 O   0  0  0  0  0  0  0  0  0  0  0  0
   -3.8091   -4.9165    0.8444 O   0  0  0  0  0  0  0  0  0  0  0  0
   -2.0865   -0.7577   -1.4064 C   0  0  0  0  0  0  0  0  0  0  0  0
   -1.9148    0.0656   -0.1433 C   0  0  2  0  0  0  0  0  0  0  0  0
   -3.0861    0.8919    0.1086 C   0  0  0  0  0  0  0  0  0  0  0  0
   -3.7157    0.7757    1.3334 C   0  0  0  0  0  0  0  0  0  0  0  0
   -4.8306    1.5073    1.6796 C   0  0  0  0  0  0  0  0  0  0  0  0
   -5.3294    2.3933    0.7482 C   0  0  0  0  0  0  0  0  0  0  0  0
   -4.7071    2.5135   -0.4728 C   0  0  0  0  0  0  0  0  0  0  0  0
   -5.3293    3.6426   -1.6819 Cl  0  0  0  0  0  0  0  0  0  0  0  0
   -3.6064    1.7883   -0.8091 C   0  0  0  0  0  0  0  0  0  0  0  0
   -0.6462    0.9214   -0.4035 C   0  0  1  0  0  0  0  0  0  0  0  0
   -0.5625    1.9678    0.5962 C   0  0  0  0  0  0  0  0  0  0  0  0
   -0.5407    3.3325    0.2638 C   0  0  0  0  0  0  0  0  0  0  0  0
   -0.5164    4.3310    1.2000 C   0  0  0  0  0  0  0  0  0  0  0  0
   -0.5121    4.0317    2.5415 C   0  0  0  0  0  0  0  0  0  0  0  0
   -0.4803    5.3033    3.7653 Cl  0  0  0  0  0  0  0  0  0  0  0  0
   -0.5335    2.7018    2.9008 C   0  0  0  0  0  0  0  0  0  0  0  0
   -0.5583    1.7113    1.9408 C   0  0  0  0  0  0  0  0  0  0  0  0
    4.7422   -0.5823    3.5110 H   0  0  0  0  0  0  0  0  0  0  0  0
    5.4068   -2.0771    2.8114 H   0  0  0  0  0  0  0  0  0  0  0  0
    3.6806   -2.0767    3.2424 H   0  0  0  0  0  0  0  0  0  0  0  0
    3.0922   -2.8128    1.3417 H   0  0  0  0  0  0  0  0  0  0  0  0
    4.7741   -2.9498    0.6876 H   0  0  0  0  0  0  0  0  0  0  0  0
    3.5107   -2.1959   -0.2900 H   0  0  0  0  0  0  0  0  0  0  0  0
    5.7460    0.5492    1.0655 H   0  0  0  0  0  0  0  0  0  0  0  0
    5.6373   -0.7524   -0.1537 H   0  0  0  0  0  0  0  0  0  0  0  0
    6.3851   -1.1533    1.4063 H   0  0  0  0  0  0  0  0  0  0  0  0
    3.3948    1.6536   -0.3943 H   0  0  0  0  0  0  0  0  0  0  0  0
    1.8710    1.9110    0.4177 H   0  0  0  0  0  0  0  0  0  0  0  0
    2.3785   -0.5031   -1.2846 H   0  0  0  0  0  0  0  0  0  0  0  0
    0.7412    1.9418   -2.1679 H   0  0  0  0  0  0  0  0  0  0  0  0
    3.7754    1.3621   -2.7743 H   0  0  0  0  0  0  0  0  0  0  0  0
    2.7385    2.7573   -3.3786 H   0  0  0  0  0  0  0  0  0  0  0  0
    1.3060    1.0359   -4.4588 H   0  0  0  0  0  0  0  0  0  0  0  0
    2.2341   -0.3524   -3.6930 H   0  0  0  0  0  0  0  0  0  0  0  0
    0.2862   -2.3780   -2.7022 H   0  0  0  0  0  0  0  0  0  0  0  0
   -1.4434   -2.3615   -3.3259 H   0  0  0  0  0  0  0  0  0  0  0  0
   -0.8021   -3.7226   -2.3391 H   0  0  0  0  0  0  0  0  0  0  0  0
   -1.2815   -3.8050    0.0019 H   0  0  0  0  0  0  0  0  0  0  0  0
   -2.3220   -2.5054    0.6080 H   0  0  0  0  0  0  0  0  0  0  0  0
   -4.5507   -5.2951    1.4296 H   0  0  0  0  0  0  0  0  0  0  0  0
   -3.1469   -0.9686   -1.4964 H   0  0  0  0  0  0  0  0  0  0  0  0
   -1.7207   -0.2287   -2.3084 H   0  0  0  0  0  0  0  0  0  0  0  0
   -1.6768   -0.5644    0.7080 H   0  0  0  0  0  0  0  0  0  0  0  0
   -3.3514    0.0833    2.1017 H   0  0  0  0  0  0  0  0  0  0  0  0
   -5.3348    1.4278    2.6338 H   0  0  0  0  0  0  0  0  0  0  0  0
   -6.1956    2.9811    0.9797 H   0  0  0  0  0  0  0  0  0  0  0  0
   -3.1033    1.8627   -1.7519 H   0  0  0  0  0  0  0  0  0  0  0  0
   -0.9428    1.4312   -1.3778 H   0  0  0  0  0  0  0  0  0  0  0  0
   -0.5447    3.5442   -0.8145 H   0  0  0  0  0  0  0  0  0  0  0  0
   -0.5007    5.3452    0.8865 H   0  0  0  0  0  0  0  0  0  0  0  0
   -0.5299    2.4791    3.9594 H   0  0  0  0  0  0  0  0  0  0  0  0
   -0.5937    0.6885    2.2817 H   0  0  0  0  0  0  0  0  0  0  0  0
  1  2  1  0
  2  3  1  0
  2  4  1  0
  2  5  1  0
  5  6  2  0
  5  7  2  0
  5  8  1  0
  8  9  1  0
  9 10  1  0
 10 11  1  0
 11 12  1  0
  9 13  1  0
 13 14  1  0
 14 15  2  0
 14 16  1  0
 16 17  1  6
 16 18  1  0
 18 19  1  0
 19 20  2  0
 19 21  1  0
 21 22  2  0
 21 23  1  0
 16 24  1  0
 24 25  1  0
 25 26  1  0
 26 27  2  0
 27 28  1  0
 28 29  2  0
 29 30  1  0
 30 31  1  0
 30 32  2  0
 25 33  1  0
 33 34  1  0
 34 35  2  0
 35 36  1  0
 36 37  2  0
 37 38  1  0
 37 39  1  0
 39 40  2  0
 12 10  1  0
 33 13  1  0
 40 34  1  0
 32 26  1  0
  1 41  1  0
  1 42  1  0
  1 43  1  0
  3 44  1  0
  3 45  1  0
  3 46  1  0
  4 47  1  0
  4 48  1  0
  4 49  1  0
  8 50  1  0
  8 51  1  0
  9 52  1  6
 10 53  1  0
 11 54  1  0
 11 55  1  0
 12 56  1  0
 12 57  1  0
 17 58  1  0
 17 59  1  0
 17 60  1  0
 18 61  1  0
 18 62  1  0
 23 63  1  0
 24 64  1  0
 24 65  1  0
 25 66  1  1
 27 67  1  0
 28 68  1  0
 29 69  1  0
 32 70  1  0
 33 71  1  6
 35 72  1  0
 36 73  1  0
 39 74  1  0
 40 75  1  0
M  END
$$$$
