@<TRIPOS>MOLECULE
*****
 75 78 0 0 0
SMALL
GASTEIGER

@<TRIPOS>ATOM
      1 C           4.4949   -1.4407    2.8893 C.3     1  UNL1       -0.0405
      2 C           4.2383   -0.9961    1.4141 C.3     1  UNL1        0.0795
      3 C           3.8561   -2.2718    0.7353 C.3     1  UNL1       -0.0405
      4 C           5.5932   -0.5226    0.9311 C.3     1  UNL1       -0.0405
      5 S           3.0514    0.2657    1.5121 S.O2    1  UNL1       -0.0245
      6 O           3.6364    1.3460    2.4363 O.2     1  UNL1       -0.1738
      7 O           1.8726   -0.2929    2.2817 O.2     1  UNL1       -0.1738
      8 C           2.5380    1.0606    0.0661 C.3     1  UNL1        0.0851
      9 C           1.7732    0.3454   -0.9832 C.3     1  UNL1        0.0488
     10 C           1.5803    1.2380   -2.2165 C.3     1  UNL1       -0.0208
     11 C           2.7644    1.7365   -2.9465 C.3     1  UNL1       -0.0482
     12 C           1.8484    0.6811   -3.5842 C.3     1  UNL1       -0.0482
     13 N           0.3927   -0.0308   -0.5948 N.am    1  UNL1       -0.2885
     14 C           0.0311   -1.4214   -0.5296 C.2     1  UNL1        0.2227
     15 O           0.7750   -2.1917    0.1031 O.2     1  UNL1       -0.2750
     16 C          -1.2067   -1.9784   -1.1949 C.3     1  UNL1        0.0522
     17 C          -0.7755   -2.6212   -2.4686 C.3     1  UNL1       -0.0508
     18 C          -1.8963   -2.9703   -0.3283 C.3     1  UNL1        0.0307
     19 C          -3.0991   -3.4904   -1.0634 C.2     1  UNL1        0.2400
     20 O          -3.3632   -3.1195   -2.2397 O.2     1  UNL1       -0.2851
     21 C          -4.0050   -4.4435   -0.4422 C.2     1  UNL1        0.3726
     22 O          -4.9953   -4.8555   -1.0813 O.2     1  UNL1       -0.2419
     23 O          -3.8091   -4.9165    0.8444 O.3     1  UNL1       -0.4751
     24 C          -2.0865   -0.7577   -1.4064 C.3     1  UNL1       -0.0300
     25 C          -1.9148    0.0656   -0.1433 C.3     1  UNL1        0.0079
     26 C          -3.0861    0.8919    0.1086 C.ar    1  UNL1       -0.0408
     27 C          -3.7157    0.7757    1.3334 C.ar    1  UNL1       -0.0582
     28 C          -4.8306    1.5073    1.6796 C.ar    1  UNL1       -0.0601
     29 C          -5.3294    2.3933    0.7482 C.ar    1  UNL1       -0.0434
     30 C          -4.7071    2.5135   -0.4728 C.ar    1  UNL1        0.0412
     31 CL         -5.3293    3.6426   -1.6819 Cl      1  UNL1       -0.0835
     32 C          -3.6064    1.7883   -0.8091 C.ar    1  UNL1       -0.0399
     33 C          -0.6462    0.9214   -0.4035 C.3     1  UNL1        0.0583
     34 C          -0.5625    1.9678    0.5962 C.ar    1  UNL1       -0.0263
     35 C          -0.5407    3.3325    0.2638 C.ar    1  UNL1       -0.0554
     36 C          -0.5164    4.3310    1.2000 C.ar    1  UNL1       -0.0431
     37 C          -0.5121    4.0317    2.5415 C.ar    1  UNL1        0.0410
     38 CL         -0.4803    5.3033    3.7653 Cl      1  UNL1       -0.0835
     39 C          -0.5335    2.7018    2.9008 C.ar    1  UNL1       -0.0431
     40 C          -0.5583    1.7113    1.9408 C.ar    1  UNL1       -0.0554
     41 H           4.7422   -0.5823    3.5110 H       1  UNL1        0.0251
     42 H           5.4068   -2.0771    2.8114 H       1  UNL1        0.0251
     43 H           3.6806   -2.0767    3.2424 H       1  UNL1        0.0251
     44 H           3.0922   -2.8128    1.3417 H       1  UNL1        0.0251
     45 H           4.7741   -2.9498    0.6876 H       1  UNL1        0.0251
     46 H           3.5107   -2.1959   -0.2900 H       1  UNL1        0.0251
     47 H           5.7460    0.5492    1.0655 H       1  UNL1        0.0251
     48 H           5.6373   -0.7524   -0.1537 H       1  UNL1        0.0251
     49 H           6.3851   -1.1533    1.4063 H       1  UNL1        0.0251
     50 H           3.3948    1.6536   -0.3943 H       1  UNL1        0.0519
     51 H           1.8710    1.9110    0.4177 H       1  UNL1        0.0519
     52 H           2.3785   -0.5031   -1.2846 H       1  UNL1        0.0519
     53 H           0.7412    1.9418   -2.1679 H       1  UNL1        0.0319
     54 H           3.7754    1.3621   -2.7743 H       1  UNL1        0.0269
     55 H           2.7385    2.7573   -3.3786 H       1  UNL1        0.0269
     56 H           1.3060    1.0359   -4.4588 H       1  UNL1        0.0269
     57 H           2.2341   -0.3524   -3.6930 H       1  UNL1        0.0269
     58 H           0.2862   -2.3780   -2.7022 H       1  UNL1        0.0240
     59 H          -1.4434   -2.3615   -3.3259 H       1  UNL1        0.0240
     60 H          -0.8021   -3.7226   -2.3391 H       1  UNL1        0.0240
     61 H          -1.2815   -3.8050    0.0019 H       1  UNL1        0.0357
     62 H          -2.3220   -2.5054    0.6080 H       1  UNL1        0.0357
     63 H          -4.5507   -5.2951    1.4296 H       1  UNL1        0.2955
     64 H          -3.1469   -0.9686   -1.4964 H       1  UNL1        0.0282
     65 H          -1.7207   -0.2287   -2.3084 H       1  UNL1        0.0282
     66 H          -1.6768   -0.5644    0.7080 H       1  UNL1        0.0370
     67 H          -3.3514    0.0833    2.1017 H       1  UNL1        0.0620
     68 H          -5.3348    1.4278    2.6338 H       1  UNL1        0.0618
     69 H          -6.1956    2.9811    0.9797 H       1  UNL1        0.0632
     70 H          -3.1033    1.8627   -1.7519 H       1  UNL1        0.0635
     71 H          -0.9428    1.4312   -1.3778 H       1  UNL1        0.0556
     72 H          -0.5447    3.5442   -0.8145 H       1  UNL1        0.0621
     73 H          -0.5007    5.3452    0.8865 H       1  UNL1        0.0632
     74 H          -0.5299    2.4791    3.9594 H       1  UNL1        0.0632
     75 H          -0.5937    0.6885    2.2817 H       1  UNL1        0.0621
@<TRIPOS>BOND
     1     1     2    1
     2     2     3    1
     3     2     4    1
     4     2     5    1
     5     5     6    2
     6     5     7    2
     7     5     8    1
     8     8     9    1
     9     9    10    1
    10    10    11    1
    11    11    12    1
    12     9    13    1
    13    13    14   am
    14    14    15    2
    15    14    16    1
    16    16    17    1
    17    16    18    1
    18    18    19    1
    19    19    20    2
    20    19    21    1
    21    21    22    2
    22    21    23    1
    23    16    24    1
    24    24    25    1
    25    25    26    1
    26    26    27   ar
    27    27    28   ar
    28    28    29   ar
    29    29    30   ar
    30    30    31    1
    31    30    32   ar
    32    25    33    1
    33    33    34    1
    34    34    35   ar
    35    35    36   ar
    36    36    37   ar
    37    37    38    1
    38    37    39   ar
    39    39    40   ar
    40    12    10    1
    41    33    13    1
    42    40    34   ar
    43    32    26   ar
    44     1    41    1
    45     1    42    1
    46     1    43    1
    47     3    44    1
    48     3    45    1
    49     3    46    1
    50     4    47    1
    51     4    48    1
    52     4    49    1
    53     8    50    1
    54     8    51    1
    55     9    52    1
    56    10    53    1
    57    11    54    1
    58    11    55    1
    59    12    56    1
    60    12    57    1
    61    17    58    1
    62    17    59    1
    63    17    60    1
    64    18    61    1
    65    18    62    1
    66    23    63    1
    67    24    64    1
    68    24    65    1
    69    25    66    1
    70    27    67    1
    71    28    68    1
    72    29    69    1
    73    32    70    1
    74    33    71    1
    75    35    72    1
    76    36    73    1
    77    39    74    1
    78    40    75    1
