@<TRIPOS>MOLECULE
*****
 55 57 0 0 0
SMALL
GASTEIGER

@<TRIPOS>ATOM
      1 C          -4.1842   -2.9750   -1.7035 C.3     1  UNL1        0.0036
      2 N          -4.2931   -1.6835   -0.9677 N.am    1  UNL1       -0.2973
      3 C          -3.2794   -0.7497   -1.1798 C.3     1  UNL1        0.0536
      4 C          -1.9721   -0.9480   -0.4198 C.3     1  UNL1        0.1917
      5 O          -1.5123   -2.2178   -0.8687 O.3     1  UNL1       -0.3774
      6 C          -0.9543    0.0452   -0.9154 C.3     1  UNL1        0.0508
      7 N           0.3510   -0.2624   -0.4575 N.am    1  UNL1       -0.3081
      8 C           1.4981    0.5503   -0.7718 C.2     1  UNL1        0.2490
      9 O           1.3263    1.5692   -1.4791 O.2     1  UNL1       -0.2700
     10 C           2.8179    0.1877   -0.2749 C.ar    1  UNL1        0.0958
     11 C           3.1622   -0.8904    0.5081 C.ar    1  UNL1        0.0638
     12 N           4.4755   -0.8246    0.7184 N.ar    1  UNL1       -0.1723
     13 N           5.0135    0.2334    0.1194 N.ar    1  UNL1       -0.2182
     14 C           6.3766    0.6478    0.1074 C.ar    1  UNL1        0.0676
     15 C           6.8589    1.6110    0.9738 C.ar    1  UNL1       -0.0335
     16 C           8.1800    2.0053    0.9549 C.ar    1  UNL1       -0.0244
     17 C           9.0847    1.4577    0.0702 C.ar    1  UNL1        0.1235
     18 F          10.3908    1.8516    0.0552 F       1  UNL1       -0.2055
     19 C           8.6107    0.4959   -0.7975 C.ar    1  UNL1       -0.0244
     20 C           7.2883    0.1040   -0.7756 C.ar    1  UNL1       -0.0335
     21 C           3.9992    0.8630   -0.4951 C.ar    1  UNL1        0.1320
     22 N           4.1484    2.0505   -1.2551 N.pl3   1  UNL1       -0.3424
     23 C          -2.0925   -0.9769    1.0420 C.3     1  UNL1        0.4212
     24 F          -2.9055   -1.9942    1.5122 F       1  UNL1       -0.1675
     25 F          -2.6934    0.2229    1.4397 F       1  UNL1       -0.1675
     26 F          -0.8962   -1.1322    1.7111 F       1  UNL1       -0.1675
     27 C          -5.3790   -1.5897   -0.1028 C.2     1  UNL1        0.2520
     28 O          -6.1971   -2.5674    0.0783 O.2     1  UNL1       -0.2698
     29 C          -5.7109   -0.4139    0.6656 C.ar    1  UNL1        0.1070
     30 C          -6.0278    0.7572    0.0085 C.ar    1  UNL1        0.1383
     31 F          -6.0532    0.7837   -1.3571 F       1  UNL1       -0.2046
     32 C          -6.3572    1.9111    0.6490 C.ar    1  UNL1       -0.0255
     33 C          -6.3804    1.9242    2.0189 C.ar    1  UNL1       -0.0563
     34 C          -6.0730    0.7785    2.7161 C.ar    1  UNL1       -0.0255
     35 C          -5.7369   -0.3972    2.0375 C.ar    1  UNL1        0.1383
     36 F          -5.4671   -1.5146    2.7608 F       1  UNL1       -0.2046
     37 H          -4.1266   -3.8134   -1.0021 H       1  UNL1        0.0429
     38 H          -5.0771   -3.0074   -2.3630 H       1  UNL1        0.0429
     39 H          -3.2989   -2.9979   -2.3462 H       1  UNL1        0.0429
     40 H          -3.0179   -0.7103   -2.2818 H       1  UNL1        0.0496
     41 H          -3.5430    0.3221   -0.9606 H       1  UNL1        0.0496
     42 H          -1.1601   -2.7387   -0.1072 H       1  UNL1        0.2106
     43 H          -0.9420   -0.0408   -2.0448 H       1  UNL1        0.0494
     44 H          -1.2708    1.0943   -0.6945 H       1  UNL1        0.0494
     45 H           0.5690   -1.0968    0.1159 H       1  UNL1        0.1491
     46 H           2.4355   -1.6290    0.8583 H       1  UNL1        0.0856
     47 H           6.1483    2.0564    1.6851 H       1  UNL1        0.0640
     48 H           8.5469    2.7695    1.6473 H       1  UNL1        0.0647
     49 H           9.3266    0.0716   -1.4876 H       1  UNL1        0.0647
     50 H           6.9170   -0.6610   -1.4682 H       1  UNL1        0.0640
     51 H           4.5848    2.8719   -0.8092 H       1  UNL1        0.1437
     52 H           3.8343    2.1232   -2.2445 H       1  UNL1        0.1437
     53 H          -6.6082    2.8412    0.1314 H       1  UNL1        0.0646
     54 H          -6.6429    2.8444    2.5481 H       1  UNL1        0.0619
     55 H          -6.0915    0.7881    3.8058 H       1  UNL1        0.0646
@<TRIPOS>BOND
     1     1     2    1
     2     2     3    1
     3     3     4    1
     4     4     5    1
     5     4     6    1
     6     6     7    1
     7     7     8   am
     8     8     9    2
     9     8    10    1
    10    10    11   ar
    11    11    12   ar
    12    12    13   ar
    13    13    14    1
    14    14    15   ar
    15    15    16   ar
    16    16    17   ar
    17    17    18    1
    18    17    19   ar
    19    19    20   ar
    20    13    21   ar
    21    21    22    1
    22     4    23    1
    23    23    24    1
    24    23    25    1
    25    23    26    1
    26     2    27   am
    27    27    28    2
    28    27    29    1
    29    29    30   ar
    30    30    31    1
    31    30    32   ar
    32    32    33   ar
    33    33    34   ar
    34    34    35   ar
    35    35    36    1
    36    21    10   ar
    37    35    29   ar
    38    20    14   ar
    39     1    37    1
    40     1    38    1
    41     1    39    1
    42     3    40    1
    43     3    41    1
    44     5    42    1
    45     6    43    1
    46     6    44    1
    47     7    45    1
    48    11    46    1
    49    15    47    1
    50    16    48    1
    51    19    49    1
    52    20    50    1
    53    22    51    1
    54    22    52    1
    55    32    53    1
    56    33    54    1
    57    34    55    1
