@<TRIPOS>MOLECULE
*****
 45 48 0 0 0
SMALL
GASTEIGER

@<TRIPOS>ATOM
      1 C          -2.5903   -1.1710   -1.0256 C.3     1  UNL1        0.0941
      2 O          -1.6945   -2.1427   -0.5620 O.3     1  UNL1       -0.4746
      3 C          -0.3337   -1.9516   -0.4124 C.ar    1  UNL1        0.2456
      4 C           0.4504   -2.9803    0.0527 C.ar    1  UNL1        0.1475
      5 N           0.1574   -4.2383    0.4254 N.ar    1  UNL1       -0.3389
      6 C           1.3235   -4.7968    0.7938 C.ar    1  UNL1        0.0963
      7 N           2.3454   -3.9045    0.6570 N.ar    1  UNL1       -0.2163
      8 C           1.7990   -2.7670    0.1929 C.ar    1  UNL1        0.1862
      9 N           2.2859   -1.5622   -0.1317 N.ar    1  UNL1       -0.1927
     10 C           1.5653   -0.5328   -0.5870 C.ar    1  UNL1        0.2246
     11 N           2.0455    0.7495   -0.9384 N.pl3   1  UNL1       -0.2835
     12 C           3.3781    1.2242   -0.8877 C.ar    1  UNL1        0.0336
     13 C           3.6925    2.5130   -1.2671 C.ar    1  UNL1       -0.0405
     14 C           4.9638    3.0275   -1.2392 C.ar    1  UNL1       -0.0600
     15 C           6.0212    2.2550   -0.8166 C.ar    1  UNL1       -0.0616
     16 C           5.7597    0.9656   -0.4287 C.ar    1  UNL1       -0.0600
     17 C           4.4669    0.4992   -0.4760 C.ar    1  UNL1       -0.0405
     18 N           0.2534   -0.7860   -0.7083 N.ar    1  UNL1       -0.1773
     19 C          -2.6018    0.0483   -0.1474 C.3     1  UNL1       -0.0067
     20 C          -3.0221   -0.3963    1.2521 C.3     1  UNL1       -0.0471
     21 C          -3.0230    0.7953    2.1527 C.3     1  UNL1       -0.0527
     22 C          -3.9166    1.9080    1.6615 C.3     1  UNL1       -0.0530
     23 C          -3.7648    2.1622    0.1864 C.3     1  UNL1       -0.0527
     24 C          -3.7684    0.9136   -0.6342 C.3     1  UNL1       -0.0471
     25 H          -2.3720   -0.8477   -2.0729 H       1  UNL1        0.0700
     26 H          -3.6201   -1.6141   -0.9409 H       1  UNL1        0.0700
     27 H          -0.7968   -4.6573    0.4153 H       1  UNL1        0.1670
     28 H           1.4416   -5.8158    1.1513 H       1  UNL1        0.1027
     29 H           1.3345    1.4555   -1.2847 H       1  UNL1        0.1550
     30 H           2.9055    3.1850   -1.6139 H       1  UNL1        0.0636
     31 H           5.1446    4.0477   -1.5502 H       1  UNL1        0.0618
     32 H           6.9981    2.7110   -0.8153 H       1  UNL1        0.0618
     33 H           6.5927    0.3609   -0.0971 H       1  UNL1        0.0618
     34 H           4.3566   -0.5098   -0.1577 H       1  UNL1        0.0636
     35 H          -1.6783    0.6353   -0.1501 H       1  UNL1        0.0334
     36 H          -2.2315   -1.0879    1.6433 H       1  UNL1        0.0269
     37 H          -4.0012   -0.8683    1.1814 H       1  UNL1        0.0269
     38 H          -3.4395    0.4489    3.1369 H       1  UNL1        0.0265
     39 H          -1.9989    1.1472    2.3577 H       1  UNL1        0.0265
     40 H          -4.9614    1.7040    1.9402 H       1  UNL1        0.0265
     41 H          -3.6091    2.8317    2.1989 H       1  UNL1        0.0265
     42 H          -4.6693    2.7593   -0.1246 H       1  UNL1        0.0265
     43 H          -2.8920    2.7585   -0.0741 H       1  UNL1        0.0265
     44 H          -3.5899    1.1987   -1.6869 H       1  UNL1        0.0269
     45 H          -4.7066    0.3256   -0.5693 H       1  UNL1        0.0269
@<TRIPOS>BOND
     1     1     2    1
     2     2     3    1
     3     3     4   ar
     4     4     5   ar
     5     5     6   ar
     6     6     7   ar
     7     7     8   ar
     8     8     9   ar
     9     9    10   ar
    10    10    11    1
    11    11    12    1
    12    12    13   ar
    13    13    14   ar
    14    14    15   ar
    15    15    16   ar
    16    16    17   ar
    17    10    18   ar
    18     1    19    1
    19    19    20    1
    20    20    21    1
    21    21    22    1
    22    22    23    1
    23    23    24    1
    24    18     3   ar
    25    24    19    1
    26     8     4   ar
    27    17    12   ar
    28     1    25    1
    29     1    26    1
    30     5    27    1
    31     6    28    1
    32    11    29    1
    33    13    30    1
    34    14    31    1
    35    15    32    1
    36    16    33    1
    37    17    34    1
    38    19    35    1
    39    20    36    1
    40    20    37    1
    41    21    38    1
    42    21    39    1
    43    22    40    1
    44    22    41    1
    45    23    42    1
    46    23    43    1
    47    24    44    1
    48    24    45    1
