@<TRIPOS>MOLECULE
*****
 63 66 0 0 0
SMALL
GASTEIGER

@<TRIPOS>ATOM
      1 C          -6.5474   -0.0141    4.3919 C.3     1  UNL1        0.0788
      2 O          -5.5861   -0.7409    3.6539 O.3     1  UNL1       -0.4951
      3 C          -5.2180   -0.2664    2.4076 C.ar    1  UNL1        0.1219
      4 C          -5.7720    0.8854    1.8941 C.ar    1  UNL1       -0.0198
      5 C          -5.3688    1.3211    0.6367 C.ar    1  UNL1       -0.0566
      6 C          -4.4289    0.6221   -0.0990 C.ar    1  UNL1       -0.0403
      7 C          -3.8693   -0.5315    0.4072 C.ar    1  UNL1        0.0348
      8 N          -2.8969   -1.2846   -0.3140 N.pl3   1  UNL1       -0.3132
      9 C          -2.4297   -0.9155   -1.5915 C.ar    1  UNL1        0.0544
     10 C          -3.1000   -1.4085   -2.7108 C.ar    1  UNL1        0.0762
     11 C          -4.2565   -2.2842   -2.5856 C.2     1  UNL1        0.2448
     12 N          -4.8739   -2.7371   -3.7796 N.am    1  UNL1       -0.3253
     13 O          -4.7380   -2.6609   -1.4931 O.2     1  UNL1       -0.2703
     14 C          -2.6009   -1.0163   -3.9344 C.ar    1  UNL1        0.0422
     15 N          -1.5329   -0.2077   -4.0515 N.ar    1  UNL1       -0.2538
     16 C          -0.8669    0.2829   -2.9913 C.ar    1  UNL1        0.0758
     17 C           0.2214    1.1079   -3.1672 C.ar    1  UNL1       -0.0227
     18 C           0.7147    1.4972   -4.5188 C.3     1  UNL1       -0.0376
     19 C           0.8824    1.5943   -2.0714 C.ar    1  UNL1       -0.0315
     20 C           0.4428    1.2467   -0.8092 C.ar    1  UNL1        0.0946
     21 S           1.2574    1.8444    0.6308 S.O2    1  UNL1        0.0251
     22 O           0.2966    1.9839    1.7775 O.2     1  UNL1       -0.1643
     23 O           1.9039    3.1752    0.3825 O.2     1  UNL1       -0.1643
     24 C           2.4999    0.7122    1.0721 C.ar    1  UNL1        0.0943
     25 C           2.2165   -0.3257    1.9316 C.ar    1  UNL1       -0.0364
     26 C           3.2126   -1.2381    2.2888 C.ar    1  UNL1       -0.0592
     27 C           4.4944   -1.1290    1.7977 C.ar    1  UNL1       -0.0495
     28 C           4.7885   -0.1039    0.9442 C.ar    1  UNL1        0.0387
     29 C           6.1416    0.0207    0.4192 C.2     1  UNL1        0.2462
     30 O           6.3128    0.0005   -0.8236 O.2     1  UNL1       -0.2700
     31 N           7.2554    0.1625    1.2726 N.am    1  UNL1       -0.3036
     32 C           7.0588    0.1858    2.7089 C.3     1  UNL1        0.0031
     33 C           8.6125    0.2888    0.7788 C.3     1  UNL1        0.0031
     34 C           3.7880    0.7937    0.5995 C.ar    1  UNL1       -0.0243
     35 C          -0.6557    0.4143   -0.6541 C.ar    1  UNL1       -0.0255
     36 C          -1.3361   -0.0869   -1.7479 C.ar    1  UNL1        0.0243
     37 C          -4.2769   -0.9527    1.6537 C.ar    1  UNL1        0.0012
     38 H          -6.8268   -0.5356    5.3320 H       1  UNL1        0.0660
     39 H          -7.4371    0.1957    3.7562 H       1  UNL1        0.0660
     40 H          -6.0702    0.9787    4.6221 H       1  UNL1        0.0660
     41 H          -6.5089    1.4535    2.4449 H       1  UNL1        0.0654
     42 H          -5.8081    2.2298    0.2354 H       1  UNL1        0.0619
     43 H          -4.1222    0.9797   -1.0890 H       1  UNL1        0.0636
     44 H          -2.5011   -2.1515    0.1056 H       1  UNL1        0.1522
     45 H          -5.4219   -2.1294   -4.4229 H       1  UNL1        0.1453
     46 H          -4.7461   -3.7666   -3.9959 H       1  UNL1        0.1453
     47 H          -3.0897   -1.3750   -4.8230 H       1  UNL1        0.0838
     48 H           0.0365    2.2490   -4.9658 H       1  UNL1        0.0278
     49 H           0.6186    0.5791   -5.1515 H       1  UNL1        0.0278
     50 H           1.7674    1.8130   -4.4825 H       1  UNL1        0.0278
     51 H           1.7477    2.2500   -2.1977 H       1  UNL1        0.0640
     52 H           1.2239   -0.4313    2.3275 H       1  UNL1        0.0637
     53 H           3.0022   -2.0637    2.9679 H       1  UNL1        0.0618
     54 H           5.2778   -1.8495    2.0808 H       1  UNL1        0.0625
     55 H           6.0372    0.5495    2.8998 H       1  UNL1        0.0428
     56 H           7.1952   -0.8410    3.1462 H       1  UNL1        0.0428
     57 H           7.7865    0.8516    3.2162 H       1  UNL1        0.0428
     58 H           8.6480    0.7153   -0.2463 H       1  UNL1        0.0428
     59 H           9.0885   -0.7156    0.7189 H       1  UNL1        0.0428
     60 H           9.1973    0.8787    1.4962 H       1  UNL1        0.0428
     61 H           4.0099    1.6080   -0.0746 H       1  UNL1        0.0644
     62 H          -1.0047    0.1386    0.3316 H       1  UNL1        0.0644
     63 H          -3.8454   -1.8468    2.0497 H       1  UNL1        0.0673
@<TRIPOS>BOND
     1     1     2    1
     2     2     3    1
     3     3     4   ar
     4     4     5   ar
     5     5     6   ar
     6     6     7   ar
     7     7     8    1
     8     8     9    1
     9     9    10   ar
    10    10    11    1
    11    11    12   am
    12    11    13    2
    13    10    14   ar
    14    14    15   ar
    15    15    16   ar
    16    16    17   ar
    17    17    18    1
    18    17    19   ar
    19    19    20   ar
    20    20    21    1
    21    21    22    2
    22    21    23    2
    23    21    24    1
    24    24    25   ar
    25    25    26   ar
    26    26    27   ar
    27    27    28   ar
    28    28    29    1
    29    29    30    2
    30    29    31   am
    31    31    32    1
    32    31    33    1
    33    28    34   ar
    34    20    35   ar
    35    35    36   ar
    36     7    37   ar
    37    37     3   ar
    38    36     9   ar
    39    36    16   ar
    40    34    24   ar
    41     1    38    1
    42     1    39    1
    43     1    40    1
    44     4    41    1
    45     5    42    1
    46     6    43    1
    47     8    44    1
    48    12    45    1
    49    12    46    1
    50    14    47    1
    51    18    48    1
    52    18    49    1
    53    18    50    1
    54    19    51    1
    55    25    52    1
    56    26    53    1
    57    27    54    1
    58    32    55    1
    59    32    56    1
    60    32    57    1
    61    33    58    1
    62    33    59    1
    63    33    60    1
    64    34    61    1
    65    35    62    1
    66    37    63    1
