@<TRIPOS>MOLECULE
*****
 59 63 0 0 0
SMALL
GASTEIGER

@<TRIPOS>ATOM
      1 C          -9.1156    0.8562   -1.0612 C.3     1  UNL1        0.0596
      2 S          -8.6205   -0.7226   -0.3665 S.O2    1  UNL1       -0.0059
      3 O          -9.1651   -1.7750   -1.2635 O.2     1  UNL1       -0.1696
      4 O          -9.1595   -0.7965    1.0302 O.2     1  UNL1       -0.1696
      5 C          -6.8753   -0.7942   -0.3706 C.ar    1  UNL1        0.0883
      6 C          -6.2149   -1.2741   -1.5099 C.ar    1  UNL1       -0.0334
      7 C          -4.8429   -1.3506   -1.5567 C.ar    1  UNL1       -0.0178
      8 C          -4.0901   -0.9511   -0.4695 C.ar    1  UNL1        0.1246
      9 C          -4.7240   -0.4678    0.6826 C.ar    1  UNL1       -0.0038
     10 C          -6.0771   -0.4154    0.6699 C.ar    1  UNL1       -0.0302
     11 C          -3.8405   -0.0668    1.8046 C.3     1  UNL1       -0.0206
     12 C          -2.6123    0.6229    1.3122 C.3     1  UNL1       -0.0087
     13 C          -1.8741   -0.0908    0.2113 C.3     1  UNL1        0.1138
     14 C          -1.4003    0.9489   -0.7785 C.3     1  UNL1        0.0030
     15 C          -0.0369    0.6426   -1.3294 C.3     1  UNL1        0.0197
     16 N           0.9318    0.5210   -0.2497 N.am    1  UNL1       -0.2854
     17 C           2.2970    0.8105   -0.5049 C.2     1  UNL1        0.3024
     18 O           2.6538    1.1788   -1.6556 O.2     1  UNL1       -0.2526
     19 N           3.3178    0.7101    0.4754 N.am    1  UNL1       -0.2958
     20 C           4.6853    1.0151    0.1698 C.3     1  UNL1        0.0320
     21 C           5.5546    1.7345    1.1256 C.3     1  UNL1       -0.0254
     22 C           5.7175    0.2315    0.8694 C.3     1  UNL1        0.0043
     23 C           7.0012   -0.1109    0.2687 C.ar    1  UNL1       -0.0425
     24 C           7.4751    0.4838   -0.8673 C.ar    1  UNL1       -0.0582
     25 C           8.6904    0.1709   -1.4453 C.ar    1  UNL1       -0.0615
     26 C           9.4710   -0.7963   -0.8437 C.ar    1  UNL1       -0.0617
     27 C           9.0342   -1.4089    0.2851 C.ar    1  UNL1       -0.0615
     28 C           7.7979   -1.0729    0.8506 C.ar    1  UNL1       -0.0582
     29 C           0.4319    0.1123    1.0446 C.3     1  UNL1        0.0197
     30 C          -0.7086   -0.8483    0.8181 C.3     1  UNL1        0.0030
     31 O          -2.7094   -1.0015   -0.4526 O.3     1  UNL1       -0.4853
     32 H         -10.1130    1.1486   -0.6782 H       1  UNL1        0.0468
     33 H          -8.3960    1.6450   -0.7105 H       1  UNL1        0.0468
     34 H          -9.0634    0.8237   -2.1620 H       1  UNL1        0.0468
     35 H          -6.7931   -1.5919   -2.3646 H       1  UNL1        0.0638
     36 H          -4.3330   -1.7175   -2.4331 H       1  UNL1        0.0655
     37 H          -6.5702   -0.0382    1.5630 H       1  UNL1        0.0640
     38 H          -3.6270   -0.9133    2.4887 H       1  UNL1        0.0316
     39 H          -4.3973    0.6789    2.4364 H       1  UNL1        0.0316
     40 H          -1.9099    0.7594    2.1650 H       1  UNL1        0.0307
     41 H          -2.9155    1.6249    0.9300 H       1  UNL1        0.0307
     42 H          -1.3795    1.9353   -0.2925 H       1  UNL1        0.0319
     43 H          -2.1235    0.9816   -1.6079 H       1  UNL1        0.0319
     44 H          -0.0268   -0.2174   -2.0150 H       1  UNL1        0.0466
     45 H           0.2898    1.5196   -1.9287 H       1  UNL1        0.0466
     46 H           3.0918    0.4065    1.4522 H       1  UNL1        0.1505
     47 H           4.8525    1.2994   -0.9052 H       1  UNL1        0.0505
     48 H           5.2706    1.9625    2.1600 H       1  UNL1        0.0290
     49 H           6.3155    2.4315    0.7292 H       1  UNL1        0.0290
     50 H           5.4019   -0.4458    1.7123 H       1  UNL1        0.0367
     51 H           6.8974    1.2536   -1.3810 H       1  UNL1        0.0620
     52 H           9.0643    0.6377   -2.3397 H       1  UNL1        0.0618
     53 H          10.4365   -1.0966   -1.2379 H       1  UNL1        0.0618
     54 H           9.6349   -2.1708    0.7669 H       1  UNL1        0.0618
     55 H           7.5261   -1.6074    1.7474 H       1  UNL1        0.0620
     56 H           0.0022    1.0422    1.5096 H       1  UNL1        0.0466
     57 H           1.2234   -0.3265    1.6879 H       1  UNL1        0.0466
     58 H          -0.9772   -1.3366    1.7665 H       1  UNL1        0.0319
     59 H          -0.3740   -1.5835    0.0484 H       1  UNL1        0.0319
@<TRIPOS>BOND
     1     1     2    1
     2     2     3    2
     3     2     4    2
     4     2     5    1
     5     5     6   ar
     6     6     7   ar
     7     7     8   ar
     8     8     9   ar
     9     9    10   ar
    10     9    11    1
    11    11    12    1
    12    12    13    1
    13    13    14    1
    14    14    15    1
    15    15    16    1
    16    16    17   am
    17    17    18    2
    18    17    19   am
    19    19    20    1
    20    20    21    1
    21    21    22    1
    22    22    23    1
    23    23    24   ar
    24    24    25   ar
    25    25    26   ar
    26    26    27   ar
    27    27    28   ar
    28    16    29    1
    29    29    30    1
    30    13    31    1
    31    10     5   ar
    32    30    13    1
    33    31     8    1
    34    22    20    1
    35    28    23   ar
    36     1    32    1
    37     1    33    1
    38     1    34    1
    39     6    35    1
    40     7    36    1
    41    10    37    1
    42    11    38    1
    43    11    39    1
    44    12    40    1
    45    12    41    1
    46    14    42    1
    47    14    43    1
    48    15    44    1
    49    15    45    1
    50    19    46    1
    51    20    47    1
    52    21    48    1
    53    21    49    1
    54    22    50    1
    55    24    51    1
    56    25    52    1
    57    26    53    1
    58    27    54    1
    59    28    55    1
    60    29    56    1
    61    29    57    1
    62    30    58    1
    63    30    59    1
