
     RDKit          3D

 46 50  0  0  0  0  0  0  0  0999 V2000
    2.4181    2.9377   -1.7009 O   0  0  0  0  0  0  0  0  0  0  0  0
    3.3562    2.3375   -1.1157 C   0  0  0  0  0  0  0  0  0  0  0  0
    4.6648    2.8603   -1.0157 N   0  0  0  0  0  0  0  0  0  0  0  0
    5.4050    2.0374   -0.3698 C   0  0  0  0  0  0  0  0  0  0  0  0
    6.7231    1.9426    0.0582 C   0  0  0  0  0  0  0  0  0  0  0  0
    7.2847    0.9174    0.7593 C   0  0  0  0  0  0  0  0  0  0  0  0
    6.4786   -0.1751    1.1036 C   0  0  0  0  0  0  0  0  0  0  0  0
    5.1712   -0.1044    0.6913 C   0  0  0  0  0  0  0  0  0  0  0  0
    4.5027   -1.6415    1.3091 S   0  0  0  0  0  0  0  0  0  0  0  0
    6.1820   -2.1495    2.0585 C   0  0  0  0  0  0  0  0  0  0  0  0
    6.8297   -1.2547    1.7730 N   0  0  0  0  0  0  0  0  0  0  0  0
    4.6216    0.9509   -0.0222 C   0  0  0  0  0  0  0  0  0  0  0  0
    3.3712    1.0445   -0.4302 C   0  0  0  0  0  0  0  0  0  0  0  0
    2.1760    0.2062   -0.3316 C   0  0  0  0  0  0  0  0  0  0  0  0
    1.0935    0.8922    0.3634 N   0  0  0  0  0  0  0  0  0  0  0  0
   -0.1299    0.1467    0.5113 C   0  0  0  0  0  0  0  0  0  0  0  0
   -0.2233   -1.1359    0.0088 C   0  0  0  0  0  0  0  0  0  0  0  0
   -1.4070   -1.8555    0.1525 C   0  0  0  0  0  0  0  0  0  0  0  0
   -2.5000   -1.2754    0.8070 C   0  0  0  0  0  0  0  0  0  0  0  0
   -2.3879    0.0040    1.3013 C   0  0  0  0  0  0  0  0  0  0  0  0
   -1.2163    0.7183    1.1598 C   0  0  0  0  0  0  0  0  0  0  0  0
   -3.8832   -2.3320    0.8878 S   0  0  0  0  0  0  0  0  0  0  0  0
   -4.7371   -2.0075    2.1051 O   0  0  0  0  0  0  0  0  0  0  0  0
   -3.4827   -3.7704    0.9986 O   0  0  0  0  0  0  0  0  0  0  0  0
   -4.8258   -2.0895   -0.5367 N   0  0  0  0  0  0  0  0  0  0  0  0
   -5.4132   -0.8344   -0.8517 C   0  0  0  0  0  0  0  0  0  0  0  0
   -6.1534   -0.6647   -1.9817 C   0  0  0  0  0  0  0  0  0  0  0  0
   -6.7542    0.5199   -2.3551 C   0  0  0  0  0  0  0  0  0  0  0  0
   -6.6148    1.6316   -1.5484 C   0  0  0  0  0  0  0  0  0  0  0  0
   -5.8631    1.4365   -0.4126 C   0  0  0  0  0  0  0  0  0  0  0  0
   -5.3105    0.2618   -0.1133 N   0  0  0  0  0  0  0  0  0  0  0  0
    7.3308    2.8068   -0.2227 H   0  0  0  0  0  0  0  0  0  0  0  0
    8.3386    1.0266    1.0042 H   0  0  0  0  0  0  0  0  0  0  0  0
    6.1408   -3.1832    2.5911 H   0  0  0  0  0  0  0  0  0  0  0  0
    2.4001   -0.6995    0.2543 H   0  0  0  0  0  0  0  0  0  0  0  0
    1.8643   -0.1158   -1.3399 H   0  0  0  0  0  0  0  0  0  0  0  0
    1.1460    1.8504    0.7453 H   0  0  0  0  0  0  0  0  0  0  0  0
    0.6296   -1.5914   -0.5032 H   0  0  0  0  0  0  0  0  0  0  0  0
   -1.3982   -2.8680   -0.2752 H   0  0  0  0  0  0  0  0  0  0  0  0
   -3.2712    0.3743    1.7904 H   0  0  0  0  0  0  0  0  0  0  0  0
   -1.1763    1.7300    1.5689 H   0  0  0  0  0  0  0  0  0  0  0  0
   -4.9712   -2.8867   -1.1895 H   0  0  0  0  0  0  0  0  0  0  0  0
   -6.3367   -1.4596   -2.6963 H   0  0  0  0  0  0  0  0  0  0  0  0
   -7.3472    0.6465   -3.2654 H   0  0  0  0  0  0  0  0  0  0  0  0
   -7.0496    2.5846   -1.7689 H   0  0  0  0  0  0  0  0  0  0  0  0
   -5.6757    2.2303    0.3081 H   0  0  0  0  0  0  0  0  0  0  0  0
  1  2  2  0
  2  3  1  0
  3  4  2  0
  4  5  1  0
  5  6  2  0
  6  7  1  0
  7  8  2  0
  8  9  1  0
  9 10  1  0
 10 11  2  0
  8 12  1  0
 12 13  2  0
 13 14  1  0
 14 15  1  0
 15 16  1  0
 16 17  2  0
 17 18  1  0
 18 19  2  0
 19 20  1  0
 20 21  2  0
 19 22  1  0
 22 23  2  0
 22 24  2  0
 22 25  1  0
 25 26  1  0
 26 27  2  0
 27 28  1  0
 28 29  2  0
 29 30  1  0
 30 31  2  0
 13  2  1  0
 21 16  1  0
 31 26  1  0
 12  4  1  0
 11  7  1  0
  5 32  1  0
  6 33  1  0
 10 34  1  0
 14 35  1  0
 14 36  1  0
 15 37  1  0
 17 38  1  0
 18 39  1  0
 20 40  1  0
 21 41  1  0
 25 42  1  0
 27 43  1  0
 28 44  1  0
 29 45  1  0
 30 46  1  0
M  END
$$$$
