
     RDKit          3D

 52 55  0  0  0  0  0  0  0  0999 V2000
    8.0919    1.5053   -0.4767 C   0  0  0  0  0  0  0  0  0  0  0  0
    6.8287    0.7292   -0.4383 C   0  0  0  0  0  0  0  0  0  0  0  0
    6.0256    0.5987    0.6675 C   0  0  0  0  0  0  0  0  0  0  0  0
    4.8486   -0.1376    0.6639 C   0  0  0  0  0  0  0  0  0  0  0  0
    3.9195   -0.4054    1.5947 N   0  0  0  0  0  0  0  0  0  0  0  0
    2.9840   -1.1640    1.0750 N   0  0  0  0  0  0  0  0  0  0  0  0
    1.7812   -1.6966    1.7265 C   0  0  0  0  0  0  0  0  0  0  0  0
    0.6377   -0.7678    1.5909 C   0  0  0  0  0  0  0  0  0  0  0  0
   -0.4010   -0.9634    0.7099 C   0  0  0  0  0  0  0  0  0  0  0  0
   -1.4610   -0.0870    0.5953 C   0  0  0  0  0  0  0  0  0  0  0  0
   -2.5906   -0.2861   -0.3538 C   0  0  2  0  0  0  0  0  0  0  0  0
   -2.9499    0.8184   -1.0223 O   0  0  0  0  0  0  0  0  0  0  0  0
   -4.2302    1.1206   -1.2493 C   0  0  2  0  0  0  0  0  0  0  0  0
   -4.5838    2.3682   -0.4223 C   0  0  0  0  0  0  0  0  0  0  0  0
   -5.9419    2.6320   -0.7063 O   0  0  0  0  0  0  0  0  0  0  0  0
   -5.2724    0.0962   -1.0468 C   0  0  1  0  0  0  0  0  0  0  0  0
   -6.1214   -0.0620   -2.1536 O   0  0  0  0  0  0  0  0  0  0  0  0
   -4.7526   -1.2721   -0.6782 C   0  0  2  0  0  0  0  0  0  0  0  0
   -5.7978   -2.0387   -0.1832 O   0  0  0  0  0  0  0  0  0  0  0  0
   -3.6879   -1.0165    0.3867 C   0  0  1  0  0  0  0  0  0  0  0  0
   -3.1632   -2.2164    0.8606 O   0  0  0  0  0  0  0  0  0  0  0  0
   -1.4723    1.0244    1.3979 C   0  0  0  0  0  0  0  0  0  0  0  0
   -0.4459    1.2551    2.2959 C   0  0  0  0  0  0  0  0  0  0  0  0
    0.6078    0.3538    2.3877 C   0  0  0  0  0  0  0  0  0  0  0  0
    1.8718    0.7169    3.5521 Cl  0  0  0  0  0  0  0  0  0  0  0  0
    3.3228   -1.3814   -0.2034 C   0  0  0  0  0  0  0  0  0  0  0  0
    2.6596   -2.0750   -1.0368 O   0  0  0  0  0  0  0  0  0  0  0  0
    4.4865   -0.7526   -0.4950 N   0  0  0  0  0  0  0  0  0  0  0  0
    5.2451   -0.6472   -1.5924 C   0  0  0  0  0  0  0  0  0  0  0  0
    6.4069    0.0787   -1.5917 C   0  0  0  0  0  0  0  0  0  0  0  0
    7.4087    0.2214   -3.0301 Cl  0  0  0  0  0  0  0  0  0  0  0  0
    8.0441    2.3344    0.2545 H   0  0  0  0  0  0  0  0  0  0  0  0
    8.2784    1.9030   -1.4989 H   0  0  0  0  0  0  0  0  0  0  0  0
    8.9177    0.7882   -0.2253 H   0  0  0  0  0  0  0  0  0  0  0  0
    6.3202    1.0908    1.5863 H   0  0  0  0  0  0  0  0  0  0  0  0
    1.9787   -1.9562    2.7886 H   0  0  0  0  0  0  0  0  0  0  0  0
    1.5520   -2.6645    1.2143 H   0  0  0  0  0  0  0  0  0  0  0  0
   -0.4040   -1.8308    0.0749 H   0  0  0  0  0  0  0  0  0  0  0  0
   -2.1996   -1.0345   -1.1081 H   0  0  0  0  0  0  0  0  0  0  0  0
   -4.3243    1.4832   -2.3189 H   0  0  0  0  0  0  0  0  0  0  0  0
   -4.5593    2.0514    0.6301 H   0  0  0  0  0  0  0  0  0  0  0  0
   -3.9522    3.2215   -0.6707 H   0  0  0  0  0  0  0  0  0  0  0  0
   -6.5351    2.4178    0.0353 H   0  0  0  0  0  0  0  0  0  0  0  0
   -5.9583    0.3922   -0.2016 H   0  0  0  0  0  0  0  0  0  0  0  0
   -7.0285   -0.3332   -1.8983 H   0  0  0  0  0  0  0  0  0  0  0  0
   -4.2375   -1.7636   -1.5488 H   0  0  0  0  0  0  0  0  0  0  0  0
   -5.4485   -2.8937    0.2183 H   0  0  0  0  0  0  0  0  0  0  0  0
   -4.1504   -0.3991    1.1632 H   0  0  0  0  0  0  0  0  0  0  0  0
   -2.7400   -2.0886    1.7446 H   0  0  0  0  0  0  0  0  0  0  0  0
   -2.2893    1.7463    1.3433 H   0  0  0  0  0  0  0  0  0  0  0  0
   -0.4549    2.1280    2.9264 H   0  0  0  0  0  0  0  0  0  0  0  0
    4.9364   -1.1414   -2.4894 H   0  0  0  0  0  0  0  0  0  0  0  0
  1  2  1  0
  2  3  2  0
  3  4  1  0
  4  5  2  0
  5  6  1  0
  6  7  1  0
  7  8  1  0
  8  9  2  0
  9 10  1  0
 10 11  1  0
 11 12  1  0
 12 13  1  0
 13 14  1  0
 14 15  1  0
 13 16  1  0
 16 17  1  0
 16 18  1  0
 18 19  1  0
 18 20  1  0
 20 21  1  0
 10 22  2  0
 22 23  1  0
 23 24  2  0
 24 25  1  0
  6 26  1  0
 26 27  2  0
 26 28  1  0
 28 29  1  0
 29 30  2  0
 30 31  1  0
 30  2  1  0
 28  4  1  0
 24  8  1  0
 20 11  1  0
  1 32  1  0
  1 33  1  0
  1 34  1  0
  3 35  1  0
  7 36  1  0
  7 37  1  0
  9 38  1  0
 11 39  1  6
 13 40  1  6
 14 41  1  0
 14 42  1  0
 15 43  1  0
 16 44  1  1
 17 45  1  0
 18 46  1  6
 19 47  1  0
 20 48  1  1
 21 49  1  0
 22 50  1  0
 23 51  1  0
 29 52  1  0
M  END
$$$$
