@<TRIPOS>MOLECULE
*****
 52 55 0 0 0
SMALL
GASTEIGER

@<TRIPOS>ATOM
      1 C           8.0919    1.5053   -0.4767 C.3     1  UNL1       -0.0382
      2 C           6.8287    0.7292   -0.4383 C.ar    1  UNL1       -0.0272
      3 C           6.0256    0.5987    0.6675 C.ar    1  UNL1       -0.0127
      4 C           4.8486   -0.1376    0.6639 C.ar    1  UNL1        0.1621
      5 N           3.9195   -0.4054    1.5947 N.ar    1  UNL1       -0.1485
      6 N           2.9840   -1.1640    1.0750 N.ar    1  UNL1       -0.2079
      7 C           1.7812   -1.6966    1.7265 C.3     1  UNL1        0.0731
      8 C           0.6377   -0.7678    1.5909 C.ar    1  UNL1       -0.0073
      9 C          -0.4010   -0.9634    0.7099 C.ar    1  UNL1       -0.0497
     10 C          -1.4610   -0.0870    0.5953 C.ar    1  UNL1       -0.0159
     11 C          -2.5906   -0.2861   -0.3538 C.3     1  UNL1        0.1125
     12 O          -2.9499    0.8184   -1.0223 O.3     1  UNL1       -0.3612
     13 C          -4.2302    1.1206   -1.2493 C.3     1  UNL1        0.1108
     14 C          -4.5838    2.3682   -0.4223 C.3     1  UNL1        0.0729
     15 O          -5.9419    2.6320   -0.7063 O.3     1  UNL1       -0.3924
     16 C          -5.2724    0.0962   -1.0468 C.3     1  UNL1        0.1117
     17 O          -6.1214   -0.0620   -2.1536 O.3     1  UNL1       -0.3865
     18 C          -4.7526   -1.2721   -0.6782 C.3     1  UNL1        0.1121
     19 O          -5.7978   -2.0387   -0.1832 O.3     1  UNL1       -0.3865
     20 C          -3.6879   -1.0165    0.3867 C.3     1  UNL1        0.1137
     21 O          -3.1632   -2.2164    0.8606 O.3     1  UNL1       -0.3862
     22 C          -1.4723    1.0244    1.3979 C.ar    1  UNL1       -0.0546
     23 C          -0.4459    1.2551    2.2959 C.ar    1  UNL1       -0.0427
     24 C           0.6078    0.3538    2.3877 C.ar    1  UNL1        0.0459
     25 CL          1.8718    0.7169    3.5521 Cl      1  UNL1       -0.0832
     26 C           3.3228   -1.3814   -0.2034 C.ar    1  UNL1        0.3514
     27 O           2.6596   -2.0750   -1.0368 O.2     1  UNL1       -0.2444
     28 N           4.4865   -0.7526   -0.4950 N.ar    1  UNL1       -0.2494
     29 C           5.2451   -0.6472   -1.5924 C.ar    1  UNL1        0.0347
     30 C           6.4069    0.0787   -1.5917 C.ar    1  UNL1        0.0606
     31 CL          7.4087    0.2214   -3.0301 Cl      1  UNL1       -0.0818
     32 H           8.0441    2.3344    0.2545 H       1  UNL1        0.0278
     33 H           8.2784    1.9030   -1.4989 H       1  UNL1        0.0278
     34 H           8.9177    0.7882   -0.2253 H       1  UNL1        0.0278
     35 H           6.3202    1.0908    1.5863 H       1  UNL1        0.0658
     36 H           1.9787   -1.9562    2.7886 H       1  UNL1        0.0561
     37 H           1.5520   -2.6645    1.2143 H       1  UNL1        0.0561
     38 H          -0.4040   -1.8308    0.0749 H       1  UNL1        0.0625
     39 H          -2.1996   -1.0345   -1.1081 H       1  UNL1        0.0673
     40 H          -4.3243    1.4832   -2.3189 H       1  UNL1        0.0646
     41 H          -4.5593    2.0514    0.6301 H       1  UNL1        0.0584
     42 H          -3.9522    3.2215   -0.6707 H       1  UNL1        0.0584
     43 H          -6.5351    2.4178    0.0353 H       1  UNL1        0.2095
     44 H          -5.9583    0.3922   -0.2016 H       1  UNL1        0.0647
     45 H          -7.0285   -0.3332   -1.8983 H       1  UNL1        0.2100
     46 H          -4.2375   -1.7636   -1.5488 H       1  UNL1        0.0647
     47 H          -5.4485   -2.8937    0.2183 H       1  UNL1        0.2100
     48 H          -4.1504   -0.3991    1.1632 H       1  UNL1        0.0649
     49 H          -2.7400   -2.0886    1.7446 H       1  UNL1        0.2100
     50 H          -2.2893    1.7463    1.3433 H       1  UNL1        0.0622
     51 H          -0.4549    2.1280    2.9264 H       1  UNL1        0.0632
     52 H           4.9364   -1.1414   -2.4894 H       1  UNL1        0.0830
@<TRIPOS>BOND
     1     1     2    1
     2     2     3   ar
     3     3     4   ar
     4     4     5   ar
     5     5     6   ar
     6     6     7    1
     7     7     8    1
     8     8     9   ar
     9     9    10   ar
    10    10    11    1
    11    11    12    1
    12    12    13    1
    13    13    14    1
    14    14    15    1
    15    13    16    1
    16    16    17    1
    17    16    18    1
    18    18    19    1
    19    18    20    1
    20    20    21    1
    21    10    22   ar
    22    22    23   ar
    23    23    24   ar
    24    24    25    1
    25     6    26   ar
    26    26    27    2
    27    26    28   ar
    28    28    29   ar
    29    29    30   ar
    30    30    31    1
    31    30     2   ar
    32    28     4   ar
    33    24     8   ar
    34    20    11    1
    35     1    32    1
    36     1    33    1
    37     1    34    1
    38     3    35    1
    39     7    36    1
    40     7    37    1
    41     9    38    1
    42    11    39    1
    43    13    40    1
    44    14    41    1
    45    14    42    1
    46    15    43    1
    47    16    44    1
    48    17    45    1
    49    18    46    1
    50    19    47    1
    51    20    48    1
    52    21    49    1
    53    22    50    1
    54    23    51    1
    55    29    52    1
