
     RDKit          3D

 40 43  0  0  0  0  0  0  0  0999 V2000
    7.7552    0.6832   -0.8350 N   0  0  0  0  0  0  0  0  0  0  0  0
    6.6418    1.4926    0.1774 S   0  0  0  0  0  0  0  0  0  0  0  0
    7.1333    1.6362    1.5904 O   0  0  0  0  0  0  0  0  0  0  0  0
    6.5091    2.9026   -0.3925 O   0  0  0  0  0  0  0  0  0  0  0  0
    5.0762    0.7120    0.1531 C   0  0  0  0  0  0  0  0  0  0  0  0
    4.1824    1.1920   -0.7710 C   0  0  0  0  0  0  0  0  0  0  0  0
    2.9496    0.5311   -0.6949 C   0  0  0  0  0  0  0  0  0  0  0  0
    2.6859   -0.4973    0.2271 C   0  0  0  0  0  0  0  0  0  0  0  0
    1.4033   -1.0568    0.1691 N   0  0  0  0  0  0  0  0  0  0  0  0
    0.0883   -1.4172    0.3070 C   0  0  0  0  0  0  0  0  0  0  0  0
   -0.9464   -0.6465   -0.0638 N   0  0  0  0  0  0  0  0  0  0  0  0
   -2.2474   -0.9594    0.0249 C   0  0  0  0  0  0  0  0  0  0  0  0
   -2.3750   -2.2015    0.5548 C   0  0  0  0  0  0  0  0  0  0  0  0
   -1.4198   -3.0897    0.9728 C   0  0  0  0  0  0  0  0  0  0  0  0
   -0.1390   -2.6363    0.8244 N   0  0  0  0  0  0  0  0  0  0  0  0
   -3.1793    0.0429   -0.3995 C   0  0  0  0  0  0  0  0  0  0  0  0
   -2.7351    1.2786   -0.8924 C   0  0  0  0  0  0  0  0  0  0  0  0
   -3.7666    2.0615   -1.1872 N   0  0  0  0  0  0  0  0  0  0  0  0
   -4.8912    1.3974   -0.9111 C   0  0  0  0  0  0  0  0  0  0  0  0
   -6.2189    1.7413   -1.0214 C   0  0  0  0  0  0  0  0  0  0  0  0
   -7.2115    0.8618   -0.6547 C   0  0  0  0  0  0  0  0  0  0  0  0
   -6.7596   -0.3451   -0.1869 C   0  0  0  0  0  0  0  0  0  0  0  0
   -5.4245   -0.6539   -0.0901 C   0  0  0  0  0  0  0  0  0  0  0  0
   -4.4794    0.2135   -0.4506 N   0  0  0  0  0  0  0  0  0  0  0  0
    3.7096   -0.8721    1.1052 C   0  0  0  0  0  0  0  0  0  0  0  0
    4.9599   -0.2804    1.1070 C   0  0  0  0  0  0  0  0  0  0  0  0
    8.5827    1.2902   -1.0584 H   0  0  0  0  0  0  0  0  0  0  0  0
    7.3571    0.2136   -1.6501 H   0  0  0  0  0  0  0  0  0  0  0  0
    4.4097    1.9716   -1.4594 H   0  0  0  0  0  0  0  0  0  0  0  0
    2.1695    0.8433   -1.3934 H   0  0  0  0  0  0  0  0  0  0  0  0
    1.2205   -0.3734    0.9933 H   0  0  0  0  0  0  0  0  0  0  0  0
   -3.3690   -2.5720    0.6722 H   0  0  0  0  0  0  0  0  0  0  0  0
   -1.6835   -4.0500    1.3779 H   0  0  0  0  0  0  0  0  0  0  0  0
   -1.7551    1.7212   -1.0784 H   0  0  0  0  0  0  0  0  0  0  0  0
   -6.4681    2.7295   -1.4019 H   0  0  0  0  0  0  0  0  0  0  0  0
   -8.2509    1.0825   -0.7176 H   0  0  0  0  0  0  0  0  0  0  0  0
   -7.5178   -1.0728    0.1168 H   0  0  0  0  0  0  0  0  0  0  0  0
   -5.1996   -1.6268    0.2871 H   0  0  0  0  0  0  0  0  0  0  0  0
    3.4651   -1.6667    1.7986 H   0  0  0  0  0  0  0  0  0  0  0  0
    5.7384   -0.5805    1.7876 H   0  0  0  0  0  0  0  0  0  0  0  0
  1  2  1  0
  2  3  2  0
  2  4  2  0
  2  5  1  0
  5  6  2  0
  6  7  1  0
  7  8  2  0
  8  9  1  0
  9 10  1  0
 10 11  2  0
 11 12  1  0
 12 13  2  0
 13 14  1  0
 14 15  2  0
 12 16  1  0
 16 17  2  0
 17 18  1  0
 18 19  2  0
 19 20  1  0
 20 21  2  0
 21 22  1  0
 22 23  2  0
 23 24  1  0
  8 25  1  0
 25 26  2  0
 26  5  1  0
 15 10  1  0
 24 16  1  0
 24 19  1  0
  1 27  1  0
  1 28  1  0
  6 29  1  0
  7 30  1  0
  9 31  1  0
 13 32  1  0
 14 33  1  0
 17 34  1  0
 20 35  1  0
 21 36  1  0
 22 37  1  0
 23 38  1  0
 25 39  1  0
 26 40  1  0
M  END
$$$$
