@<TRIPOS>MOLECULE
*****
 40 43 0 0 0
SMALL
GASTEIGER

@<TRIPOS>ATOM
      1 N           7.7552    0.6832   -0.8350 N.3     1  UNL1       -0.2035
      2 S           6.6418    1.4926    0.1774 S.O2    1  UNL1        0.0559
      3 O           7.1333    1.6362    1.5904 O.2     1  UNL1       -0.1533
      4 O           6.5091    2.9026   -0.3925 O.2     1  UNL1       -0.1533
      5 C           5.0762    0.7120    0.1531 C.ar    1  UNL1        0.1051
      6 C           4.1824    1.1920   -0.7710 C.ar    1  UNL1       -0.0336
      7 C           2.9496    0.5311   -0.6949 C.ar    1  UNL1       -0.0386
      8 C           2.6859   -0.4973    0.2271 C.ar    1  UNL1        0.0337
      9 N           1.4033   -1.0568    0.1691 N.pl3   1  UNL1       -0.2836
     10 C           0.0883   -1.4172    0.3070 C.ar    1  UNL1        0.2200
     11 N          -0.9464   -0.6465   -0.0638 N.ar    1  UNL1       -0.2127
     12 C          -2.2474   -0.9594    0.0249 C.ar    1  UNL1        0.0942
     13 C          -2.3750   -2.2015    0.5548 C.ar    1  UNL1       -0.0159
     14 C          -1.4198   -3.0897    0.9728 C.ar    1  UNL1        0.0333
     15 N          -0.1390   -2.6363    0.8244 N.ar    1  UNL1       -0.2226
     16 C          -3.1793    0.0429   -0.3995 C.ar    1  UNL1        0.0916
     17 C          -2.7351    1.2786   -0.8924 C.ar    1  UNL1        0.0558
     18 N          -3.7666    2.0615   -1.1872 N.ar    1  UNL1       -0.2354
     19 C          -4.8912    1.3974   -0.9111 C.ar    1  UNL1        0.1380
     20 C          -6.2189    1.7413   -1.0214 C.ar    1  UNL1       -0.0188
     21 C          -7.2115    0.8618   -0.6547 C.ar    1  UNL1       -0.0569
     22 C          -6.7596   -0.3451   -0.1869 C.ar    1  UNL1       -0.0450
     23 C          -5.4245   -0.6539   -0.0901 C.ar    1  UNL1        0.0118
     24 N          -4.4794    0.2135   -0.4506 N.ar    1  UNL1       -0.2979
     25 C           3.7096   -0.8721    1.1052 C.ar    1  UNL1       -0.0386
     26 C           4.9599   -0.2804    1.1070 C.ar    1  UNL1       -0.0336
     27 H           8.5827    1.2902   -1.0584 H       1  UNL1        0.1442
     28 H           7.3571    0.2136   -1.6501 H       1  UNL1        0.1442
     29 H           4.4097    1.9716   -1.4594 H       1  UNL1        0.0638
     30 H           2.1695    0.8433   -1.3934 H       1  UNL1        0.0637
     31 H           1.2205   -0.3734    0.9933 H       1  UNL1        0.1550
     32 H          -3.3690   -2.5720    0.6722 H       1  UNL1        0.0655
     33 H          -1.6835   -4.0500    1.3779 H       1  UNL1        0.0831
     34 H          -1.7551    1.7212   -1.0784 H       1  UNL1        0.0852
     35 H          -6.4681    2.7295   -1.4019 H       1  UNL1        0.0654
     36 H          -8.2509    1.0825   -0.7176 H       1  UNL1        0.0619
     37 H          -7.5178   -1.0728    0.1168 H       1  UNL1        0.0632
     38 H          -5.1996   -1.6268    0.2871 H       1  UNL1        0.0813
     39 H           3.4651   -1.6667    1.7986 H       1  UNL1        0.0637
     40 H           5.7384   -0.5805    1.7876 H       1  UNL1        0.0638
@<TRIPOS>BOND
     1     1     2    1
     2     2     3    2
     3     2     4    2
     4     2     5    1
     5     5     6   ar
     6     6     7   ar
     7     7     8   ar
     8     8     9    1
     9     9    10    1
    10    10    11   ar
    11    11    12   ar
    12    12    13   ar
    13    13    14   ar
    14    14    15   ar
    15    12    16    1
    16    16    17   ar
    17    17    18   ar
    18    18    19   ar
    19    19    20   ar
    20    20    21   ar
    21    21    22   ar
    22    22    23   ar
    23    23    24   ar
    24     8    25   ar
    25    25    26   ar
    26    26     5   ar
    27    15    10   ar
    28    24    16   ar
    29    24    19   ar
    30     1    27    1
    31     1    28    1
    32     6    29    1
    33     7    30    1
    34     9    31    1
    35    13    32    1
    36    14    33    1
    37    17    34    1
    38    20    35    1
    39    21    36    1
    40    22    37    1
    41    23    38    1
    42    25    39    1
    43    26    40    1
