@<TRIPOS>MOLECULE
*****
 64 67 0 0 0
SMALL
GASTEIGER

@<TRIPOS>ATOM
      1 C          -0.0720   -0.0470   -0.8727 C.3     1  UNL1       -0.0253
      2 C          -0.7692    0.2041   -2.1623 C.3     1  UNL1       -0.0426
      3 C          -2.2074    0.3433   -1.6264 C.3     1  UNL1        0.0041
      4 C          -2.9649    1.1653   -2.5972 C.3     1  UNL1       -0.0583
      5 C          -2.1084    0.8478   -0.2325 C.3     1  UNL1        0.1799
      6 O          -2.3373   -0.2006    0.7316 O.3     1  UNL1       -0.4495
      7 C          -3.5158   -0.9079    0.7603 C.2     1  UNL1        0.3078
      8 O          -4.4526   -0.6629   -0.0752 O.2     1  UNL1       -0.2508
      9 C          -3.8285   -1.9942    1.7230 C.3     1  UNL1        0.0421
     10 C          -5.2206   -2.5273    1.4270 C.3     1  UNL1       -0.0552
     11 C          -2.9548    1.9590    0.1501 C.2     1  UNL1        0.1918
     12 O          -3.3451    1.3532    1.1373 O.2     1  UNL1       -0.2919
     13 C          -3.5159    3.2980   -0.0322 C.3     1  UNL1        0.0849
     14 CL         -5.0800    3.2549   -0.8747 Cl      1  UNL1       -0.1172
     15 C          -0.6211    1.0933   -0.0381 C.3     1  UNL1        0.0207
     16 C          -0.1217    2.3816   -0.5604 C.3     1  UNL1       -0.0551
     17 C          -0.1837    0.7755    1.3708 C.3     1  UNL1       -0.0141
     18 C           1.3223    0.7071    1.4642 C.3     1  UNL1        0.0910
     19 O           1.9032    1.9710    1.4511 O.3     1  UNL1       -0.3886
     20 C           1.8998   -0.2746    0.5220 C.3     1  UNL1        0.1526
     21 F           1.4757   -1.5393    0.9601 F       1  UNL1       -0.2377
     22 C           1.3991   -0.1708   -0.8948 C.3     1  UNL1        0.0003
     23 C           1.7670   -1.4201   -1.6408 C.3     1  UNL1       -0.0432
     24 C           3.1295   -1.9682   -1.4050 C.3     1  UNL1       -0.0301
     25 C           3.7020   -1.6631   -0.0957 C.2     1  UNL1       -0.0532
     26 C           4.4435   -2.5504    0.5427 C.2     1  UNL1       -0.0148
     27 C           5.0043   -2.2331    1.8511 C.2     1  UNL1        0.1787
     28 O           5.6945   -3.1076    2.4026 O.2     1  UNL1       -0.2879
     29 C           4.7551   -0.9416    2.4684 C.2     1  UNL1       -0.0180
     30 C           4.0033   -0.0825    1.7826 C.2     1  UNL1       -0.0674
     31 C           3.3863   -0.2942    0.4436 C.3     1  UNL1        0.0443
     32 C           3.9448    0.6930   -0.5616 C.3     1  UNL1       -0.0493
     33 H          -0.4938   -1.0018   -0.4655 H       1  UNL1        0.0311
     34 H          -0.6874   -0.6370   -2.8858 H       1  UNL1        0.0272
     35 H          -0.4608    1.1099   -2.6920 H       1  UNL1        0.0272
     36 H          -2.5918   -0.7077   -1.6887 H       1  UNL1        0.0341
     37 H          -4.0542    1.0082   -2.5915 H       1  UNL1        0.0234
     38 H          -2.8017    2.2518   -2.5063 H       1  UNL1        0.0234
     39 H          -2.6215    0.9194   -3.6454 H       1  UNL1        0.0234
     40 H          -3.1013   -2.8027    1.6259 H       1  UNL1        0.0375
     41 H          -3.8021   -1.6218    2.7781 H       1  UNL1        0.0375
     42 H          -5.1545   -3.4814    0.8523 H       1  UNL1        0.0235
     43 H          -5.7445   -1.8230    0.7494 H       1  UNL1        0.0235
     44 H          -5.8390   -2.6526    2.3287 H       1  UNL1        0.0235
     45 H          -3.6934    3.7691    0.9554 H       1  UNL1        0.0509
     46 H          -2.8787    4.0026   -0.5818 H       1  UNL1        0.0509
     47 H          -0.0432    3.1845    0.2328 H       1  UNL1        0.0237
     48 H          -0.7556    2.7201   -1.4020 H       1  UNL1        0.0237
     49 H           0.9080    2.3547   -0.9723 H       1  UNL1        0.0237
     50 H          -0.5884    1.4123    2.1495 H       1  UNL1        0.0298
     51 H          -0.5586   -0.2544    1.5842 H       1  UNL1        0.0298
     52 H           1.5251    0.3105    2.5006 H       1  UNL1        0.0626
     53 H           1.4219    2.4833    2.1670 H       1  UNL1        0.2099
     54 H           1.9296    0.6580   -1.3891 H       1  UNL1        0.0336
     55 H           1.0402   -2.2433   -1.3776 H       1  UNL1        0.0272
     56 H           1.5801   -1.2511   -2.7411 H       1  UNL1        0.0272
     57 H           3.1581   -3.0941   -1.5687 H       1  UNL1        0.0310
     58 H           3.8124   -1.5916   -2.1880 H       1  UNL1        0.0310
     59 H           4.6001   -3.4940    0.0462 H       1  UNL1        0.0656
     60 H           5.1513   -0.6803    3.4287 H       1  UNL1        0.0653
     61 H           3.8122    0.8735    2.2332 H       1  UNL1        0.0583
     62 H           3.4724    1.6781   -0.5479 H       1  UNL1        0.0242
     63 H           3.9087    0.3092   -1.5950 H       1  UNL1        0.0242
     64 H           5.0190    0.8299   -0.3122 H       1  UNL1        0.0242
@<TRIPOS>BOND
     1     1     2    1
     2     2     3    1
     3     3     4    1
     4     3     5    1
     5     5     6    1
     6     6     7    1
     7     7     8    2
     8     7     9    1
     9     9    10    1
    10     5    11    1
    11    11    12    2
    12    11    13    1
    13    13    14    1
    14     5    15    1
    15    15    16    1
    16    15    17    1
    17    17    18    1
    18    18    19    1
    19    18    20    1
    20    20    21    1
    21    20    22    1
    22    22    23    1
    23    23    24    1
    24    24    25    1
    25    25    26    2
    26    26    27    1
    27    27    28    2
    28    27    29    1
    29    29    30    2
    30    30    31    1
    31    31    32    1
    32    15     1    1
    33    31    20    1
    34    22     1    1
    35    31    25    1
    36     1    33    1
    37     2    34    1
    38     2    35    1
    39     3    36    1
    40     4    37    1
    41     4    38    1
    42     4    39    1
    43     9    40    1
    44     9    41    1
    45    10    42    1
    46    10    43    1
    47    10    44    1
    48    13    45    1
    49    13    46    1
    50    16    47    1
    51    16    48    1
    52    16    49    1
    53    17    50    1
    54    17    51    1
    55    18    52    1
    56    19    53    1
    57    22    54    1
    58    23    55    1
    59    23    56    1
    60    24    57    1
    61    24    58    1
    62    26    59    1
    63    29    60    1
    64    30    61    1
    65    32    62    1
    66    32    63    1
    67    32    64    1
