@<TRIPOS>MOLECULE
*****
 45 48 0 0 0
SMALL
GASTEIGER

@<TRIPOS>ATOM
      1 C          -7.8142    2.7997   -1.3659 C.3     1  UNL1        0.0302
      2 N          -7.3349    1.4923   -0.9665 N.ar    1  UNL1       -0.2739
      3 C          -6.0936    1.2520   -0.5121 C.ar    1  UNL1        0.0329
      4 C          -5.9485   -0.0867   -0.2154 C.ar    1  UNL1        0.0211
      5 C          -4.7310   -0.7127    0.3017 C.ar    1  UNL1        0.0052
      6 C          -4.8000   -1.8069    1.1412 C.ar    1  UNL1        0.0362
      7 N          -3.6682   -2.3728    1.6147 N.ar    1  UNL1       -0.2528
      8 C          -2.4350   -1.9219    1.3091 C.ar    1  UNL1        0.0893
      9 C          -1.2955   -2.5112    1.8045 C.ar    1  UNL1       -0.0310
     10 C          -0.0397   -1.9922    1.4503 C.ar    1  UNL1       -0.0194
     11 C           0.0458   -0.9116    0.6210 C.ar    1  UNL1        0.1268
     12 N           1.2916   -0.3398    0.2460 N.am    1  UNL1       -0.2542
     13 C           2.5664   -0.6597    0.6964 C.2     1  UNL1        0.3052
     14 O           2.7109   -1.5445    1.5666 O.2     1  UNL1       -0.2525
     15 N           3.7600   -0.0094    0.2018 N.am    1  UNL1       -0.2950
     16 C           5.0432   -0.4082    0.7390 C.3     1  UNL1        0.0383
     17 C           6.1732    0.2110    0.0706 C.ar    1  UNL1       -0.0303
     18 C           6.6852    1.4191    0.4821 C.ar    1  UNL1       -0.0571
     19 C           7.7777    1.9968   -0.1730 C.ar    1  UNL1       -0.0615
     20 C           8.3584    1.3674   -1.2377 C.ar    1  UNL1       -0.0617
     21 C           7.8559    0.1575   -1.6600 C.ar    1  UNL1       -0.0615
     22 C           6.7683   -0.4105   -1.0032 C.ar    1  UNL1       -0.0571
     23 N          -1.1054   -0.3695    0.1613 N.ar    1  UNL1       -0.2303
     24 C          -2.3157   -0.8322    0.4743 C.ar    1  UNL1        0.0919
     25 C          -3.4764   -0.2422   -0.0187 C.ar    1  UNL1       -0.0249
     26 C          -7.1766   -0.6355   -0.5189 C.ar    1  UNL1        0.0571
     27 N          -7.9844    0.3408   -0.9669 N.ar    1  UNL1       -0.1793
     28 H          -7.1161    3.2392   -2.1207 H       1  UNL1        0.0473
     29 H          -8.7881    2.6807   -1.8574 H       1  UNL1        0.0473
     30 H          -7.8300    3.5117   -0.5141 H       1  UNL1        0.0473
     31 H          -5.2901    1.9668   -0.3787 H       1  UNL1        0.0832
     32 H          -5.7706   -2.2218    1.4281 H       1  UNL1        0.0836
     33 H          -1.3582   -3.3750    2.4670 H       1  UNL1        0.0640
     34 H           0.8368   -2.5049    1.8689 H       1  UNL1        0.0653
     35 H           1.2733    0.4408   -0.5024 H       1  UNL1        0.1578
     36 H           3.6353    0.7205   -0.5241 H       1  UNL1        0.1506
     37 H           4.9940   -0.1640    1.8400 H       1  UNL1        0.0512
     38 H           5.0641   -1.5242    0.7142 H       1  UNL1        0.0512
     39 H           6.2361    1.9314    1.3243 H       1  UNL1        0.0621
     40 H           8.1764    2.9431    0.1513 H       1  UNL1        0.0618
     41 H           9.2111    1.8210   -1.7462 H       1  UNL1        0.0618
     42 H           8.3350   -0.3164   -2.5028 H       1  UNL1        0.0618
     43 H           6.4049   -1.3595   -1.3646 H       1  UNL1        0.0621
     44 H          -3.3902    0.6152   -0.6761 H       1  UNL1        0.0646
     45 H          -7.4411   -1.6734   -0.4133 H       1  UNL1        0.0854
@<TRIPOS>BOND
     1     1     2    1
     2     2     3   ar
     3     3     4   ar
     4     4     5    1
     5     5     6   ar
     6     6     7   ar
     7     7     8   ar
     8     8     9   ar
     9     9    10   ar
    10    10    11   ar
    11    11    12    1
    12    12    13   am
    13    13    14    2
    14    13    15   am
    15    15    16    1
    16    16    17    1
    17    17    18   ar
    18    18    19   ar
    19    19    20   ar
    20    20    21   ar
    21    21    22   ar
    22    11    23   ar
    23    23    24   ar
    24    24    25   ar
    25     4    26   ar
    26    26    27   ar
    27    27     2   ar
    28    25     5   ar
    29    24     8   ar
    30    22    17   ar
    31     1    28    1
    32     1    29    1
    33     1    30    1
    34     3    31    1
    35     6    32    1
    36     9    33    1
    37    10    34    1
    38    12    35    1
    39    15    36    1
    40    16    37    1
    41    16    38    1
    42    18    39    1
    43    19    40    1
    44    20    41    1
    45    21    42    1
    46    22    43    1
    47    25    44    1
    48    26    45    1
