
     RDKit          3D

 45 46  0  0  0  0  0  0  0  0999 V2000
    1.0454   -1.1217    0.1631 C   0  0  1  0  0  0  0  0  0  0  0  0
    1.8119   -2.2662   -0.0484 O   0  0  0  0  0  0  0  0  0  0  0  0
    1.5126   -0.0880   -0.6969 N   0  0  0  0  0  0  0  0  0  0  0  0
    2.8611    0.3459   -0.5701 C   0  0  0  0  0  0  0  0  0  0  0  0
    3.7582   -0.1718    0.3409 C   0  0  0  0  0  0  0  0  0  0  0  0
    5.0610    0.2705    0.4393 C   0  0  0  0  0  0  0  0  0  0  0  0
    5.5290    1.2693   -0.3867 C   0  0  0  0  0  0  0  0  0  0  0  0
    4.6753    1.8272   -1.3206 C   0  0  0  0  0  0  0  0  0  0  0  0
    3.3797    1.3571   -1.3874 C   0  0  0  0  0  0  0  0  0  0  0  0
    6.8844    1.7288   -0.2837 C   0  0  0  0  0  0  0  0  0  0  0  0
    7.9827    2.0907   -0.1916 N   0  0  0  0  0  0  0  0  0  0  0  0
    6.0226   -0.2929    1.4243 C   0  0  0  0  0  0  0  0  0  0  0  0
    6.4534    0.7344    2.2626 F   0  0  0  0  0  0  0  0  0  0  0  0
    7.0657   -0.9393    0.8113 F   0  0  0  0  0  0  0  0  0  0  0  0
    5.3825   -1.2104    2.2579 F   0  0  0  0  0  0  0  0  0  0  0  0
   -0.4041   -1.4707   -0.0347 C   0  0  1  0  0  0  0  0  0  0  0  0
   -0.6615   -2.0771   -1.3978 C   0  0  0  0  0  0  0  0  0  0  0  0
   -0.6733   -2.4979    0.8939 O   0  0  0  0  0  0  0  0  0  0  0  0
   -1.3360   -0.3433    0.2581 C   0  0  0  0  0  0  0  0  0  0  0  0
   -2.6544   -0.8452    0.1123 O   0  0  0  0  0  0  0  0  0  0  0  0
   -3.8017   -0.1221    0.2952 C   0  0  0  0  0  0  0  0  0  0  0  0
   -4.9871   -0.8088    0.1013 C   0  0  0  0  0  0  0  0  0  0  0  0
   -6.2046   -0.1717    0.2606 C   0  0  0  0  0  0  0  0  0  0  0  0
   -6.1559    1.1593    0.6165 C   0  0  0  0  0  0  0  0  0  0  0  0
   -5.0248    1.9181    0.8292 C   0  0  0  0  0  0  0  0  0  0  0  0
   -3.8253    1.2223    0.6540 C   0  0  0  0  0  0  0  0  0  0  0  0
   -7.4114    1.8079    0.7786 N   0  0  0  0  0  4  0  0  0  0  0  0
   -7.5806    3.1257    1.1287 O   0  0  0  0  0  1  0  0  0  0  0  0
   -8.5136    1.2539    0.6211 O   0  0  0  0  0  0  0  0  0  0  0  0
    1.2092   -0.8348    1.2129 H   0  0  0  0  0  0  0  0  0  0  0  0
    1.7275   -2.5055   -1.0006 H   0  0  0  0  0  0  0  0  0  0  0  0
    0.9258    0.3599   -1.4036 H   0  0  0  0  0  0  0  0  0  0  0  0
    3.4313   -0.9567    1.0077 H   0  0  0  0  0  0  0  0  0  0  0  0
    5.0040    2.6137   -1.9879 H   0  0  0  0  0  0  0  0  0  0  0  0
    2.7361    1.8149   -2.1295 H   0  0  0  0  0  0  0  0  0  0  0  0
   -1.7692   -2.1580   -1.5082 H   0  0  0  0  0  0  0  0  0  0  0  0
   -0.3296   -1.3906   -2.2124 H   0  0  0  0  0  0  0  0  0  0  0  0
   -0.2428   -3.1009   -1.4817 H   0  0  0  0  0  0  0  0  0  0  0  0
   -0.3862   -2.1632    1.7978 H   0  0  0  0  0  0  0  0  0  0  0  0
   -1.2457    0.5105   -0.4155 H   0  0  0  0  0  0  0  0  0  0  0  0
   -1.1441   -0.0274    1.3160 H   0  0  0  0  0  0  0  0  0  0  0  0
   -4.9988   -1.8514   -0.1772 H   0  0  0  0  0  0  0  0  0  0  0  0
   -7.1464   -0.6797    0.1167 H   0  0  0  0  0  0  0  0  0  0  0  0
   -5.0751    2.9465    1.1033 H   0  0  0  0  0  0  0  0  0  0  0  0
   -2.8873    1.7387    0.8003 H   0  0  0  0  0  0  0  0  0  0  0  0
  1  2  1  0
  1  3  1  0
  3  4  1  0
  4  5  2  0
  5  6  1  0
  6  7  2  0
  7  8  1  0
  8  9  2  0
  7 10  1  0
 10 11  3  0
  6 12  1  0
 12 13  1  0
 12 14  1  0
 12 15  1  0
  1 16  1  0
 16 17  1  0
 16 18  1  1
 16 19  1  0
 19 20  1  0
 20 21  1  0
 21 22  2  0
 22 23  1  0
 23 24  2  0
 24 25  1  0
 25 26  2  0
 24 27  1  0
 27 28  1  0
 27 29  2  0
  9  4  1  0
 26 21  1  0
  1 30  1  1
  2 31  1  0
  3 32  1  0
  5 33  1  0
  8 34  1  0
  9 35  1  0
 17 36  1  0
 17 37  1  0
 17 38  1  0
 18 39  1  0
 19 40  1  0
 19 41  1  0
 22 42  1  0
 23 43  1  0
 25 44  1  0
 26 45  1  0
M  CHG  2  27   1  28  -1
M  END
$$$$
