@<TRIPOS>MOLECULE
*****
 53 56 0 0 0
SMALL
GASTEIGER

@<TRIPOS>ATOM
      1 C          -4.2001   -1.2494    1.6647 C.3     1  UNL1       -0.0359
      2 C          -3.2603   -0.1576    1.3335 C.ar    1  UNL1       -0.0007
      3 C          -3.5909    1.0361    0.7366 C.ar    1  UNL1        0.0958
      4 C          -4.9141    1.4781    0.3080 C.ar    1  UNL1        0.0052
      5 C          -5.3591    2.7513    0.5873 C.ar    1  UNL1       -0.0343
      6 C          -6.5924    3.2156    0.2063 C.ar    1  UNL1        0.0282
      7 N          -7.3977    2.3741   -0.4741 N.ar    1  UNL1       -0.2632
      8 C          -7.0006    1.1224   -0.7669 C.ar    1  UNL1        0.0282
      9 C          -5.7657    0.6428   -0.3908 C.ar    1  UNL1       -0.0343
     10 N          -2.4317    1.7010    0.6369 N.ar    1  UNL1       -0.1733
     11 N          -1.4413    0.9698    1.1390 N.ar    1  UNL1       -0.2792
     12 C          -1.8786   -0.2079    1.5953 C.ar    1  UNL1        0.0565
     13 C          -1.1839   -1.3399    2.2535 C.3     1  UNL1        0.0512
     14 N          -1.0703   -2.4837    1.4011 N.pl3   1  UNL1       -0.3382
     15 C          -0.2055   -2.5208    0.2969 C.ar    1  UNL1        0.0281
     16 C          -0.2285   -3.6642   -0.5062 C.ar    1  UNL1       -0.0408
     17 C           0.6137   -3.7449   -1.5784 C.ar    1  UNL1       -0.0593
     18 C           1.4806   -2.7158   -1.8739 C.ar    1  UNL1       -0.0495
     19 C           1.5303   -1.5637   -1.0960 C.ar    1  UNL1        0.0384
     20 C           2.4767   -0.5213   -1.4776 C.2     1  UNL1        0.2444
     21 O           3.2279   -0.6694   -2.4849 O.2     1  UNL1       -0.2702
     22 N           2.6131    0.6923   -0.7646 N.am    1  UNL1       -0.3072
     23 C           3.5386    1.7477   -1.1070 C.3     1  UNL1        0.0371
     24 C           4.9400    1.4688   -0.7118 C.ar    1  UNL1       -0.0303
     25 C           5.8828    0.8866   -1.5276 C.ar    1  UNL1       -0.0571
     26 C           7.1865    0.6430   -1.0898 C.ar    1  UNL1       -0.0615
     27 C           7.5868    0.9754    0.1797 C.ar    1  UNL1       -0.0617
     28 C           6.6498    1.5596    1.0053 C.ar    1  UNL1       -0.0615
     29 C           5.3627    1.8018    0.5784 C.ar    1  UNL1       -0.0571
     30 C           0.6785   -1.5097   -0.0311 C.ar    1  UNL1       -0.0287
     31 H          -4.2214   -1.9877    0.8124 H       1  UNL1        0.0279
     32 H          -5.2323   -0.8432    1.7331 H       1  UNL1        0.0279
     33 H          -3.8881   -1.7158    2.6139 H       1  UNL1        0.0279
     34 H          -4.7021    3.4098    1.1321 H       1  UNL1        0.0639
     35 H          -6.9617    4.2160    0.4170 H       1  UNL1        0.0830
     36 H          -7.6848    0.4932   -1.3129 H       1  UNL1        0.0830
     37 H          -5.4189   -0.3589   -0.6116 H       1  UNL1        0.0639
     38 H          -0.4661    1.3150    1.1579 H       1  UNL1        0.1886
     39 H          -1.6859   -1.5901    3.2312 H       1  UNL1        0.0526
     40 H          -0.1837   -0.9342    2.5605 H       1  UNL1        0.0526
     41 H          -1.6599   -3.3153    1.6233 H       1  UNL1        0.1465
     42 H          -0.9155   -4.4503   -0.2511 H       1  UNL1        0.0636
     43 H           0.5917   -4.6317   -2.1966 H       1  UNL1        0.0618
     44 H           2.1400   -2.8194   -2.7433 H       1  UNL1        0.0625
     45 H           1.9756    0.8117    0.0816 H       1  UNL1        0.1493
     46 H           3.5048    1.9676   -2.2032 H       1  UNL1        0.0512
     47 H           3.1789    2.7009   -0.6240 H       1  UNL1        0.0512
     48 H           5.6041    0.6185   -2.5347 H       1  UNL1        0.0621
     49 H           7.8973    0.1802   -1.7712 H       1  UNL1        0.0618
     50 H           8.5997    0.7796    0.5026 H       1  UNL1        0.0618
     51 H           6.9651    1.8219    2.0059 H       1  UNL1        0.0618
     52 H           4.6179    2.2607    1.2207 H       1  UNL1        0.0621
     53 H           0.6979   -0.6466    0.6002 H       1  UNL1        0.0643
@<TRIPOS>BOND
     1     1     2    1
     2     2     3   ar
     3     3     4    1
     4     4     5   ar
     5     5     6   ar
     6     6     7   ar
     7     7     8   ar
     8     8     9   ar
     9     3    10   ar
    10    10    11   ar
    11    11    12   ar
    12    12    13    1
    13    13    14    1
    14    14    15    1
    15    15    16   ar
    16    16    17   ar
    17    17    18   ar
    18    18    19   ar
    19    19    20    1
    20    20    21    2
    21    20    22   am
    22    22    23    1
    23    23    24    1
    24    24    25   ar
    25    25    26   ar
    26    26    27   ar
    27    27    28   ar
    28    28    29   ar
    29    19    30   ar
    30    12     2   ar
    31    30    15   ar
    32     9     4   ar
    33    29    24   ar
    34     1    31    1
    35     1    32    1
    36     1    33    1
    37     5    34    1
    38     6    35    1
    39     8    36    1
    40     9    37    1
    41    11    38    1
    42    13    39    1
    43    13    40    1
    44    14    41    1
    45    16    42    1
    46    17    43    1
    47    18    44    1
    48    22    45    1
    49    23    46    1
    50    23    47    1
    51    25    48    1
    52    26    49    1
    53    27    50    1
    54    28    51    1
    55    29    52    1
    56    30    53    1
