
     RDKit          3D

 53 56  0  0  0  0  0  0  0  0999 V2000
   -4.2001   -1.2494    1.6647 C   0  0  0  0  0  0  0  0  0  0  0  0
   -3.2603   -0.1576    1.3335 C   0  0  0  0  0  0  0  0  0  0  0  0
   -3.5909    1.0361    0.7366 C   0  0  0  0  0  0  0  0  0  0  0  0
   -4.9141    1.4781    0.3080 C   0  0  0  0  0  0  0  0  0  0  0  0
   -5.3591    2.7513    0.5873 C   0  0  0  0  0  0  0  0  0  0  0  0
   -6.5924    3.2156    0.2063 C   0  0  0  0  0  0  0  0  0  0  0  0
   -7.3977    2.3741   -0.4741 N   0  0  0  0  0  0  0  0  0  0  0  0
   -7.0006    1.1224   -0.7669 C   0  0  0  0  0  0  0  0  0  0  0  0
   -5.7657    0.6428   -0.3908 C   0  0  0  0  0  0  0  0  0  0  0  0
   -2.4317    1.7010    0.6369 N   0  0  0  0  0  0  0  0  0  0  0  0
   -1.4413    0.9698    1.1390 N   0  0  0  0  0  0  0  0  0  0  0  0
   -1.8786   -0.2079    1.5953 C   0  0  0  0  0  0  0  0  0  0  0  0
   -1.1839   -1.3399    2.2535 C   0  0  0  0  0  0  0  0  0  0  0  0
   -1.0703   -2.4837    1.4011 N   0  0  0  0  0  0  0  0  0  0  0  0
   -0.2055   -2.5208    0.2969 C   0  0  0  0  0  0  0  0  0  0  0  0
   -0.2285   -3.6642   -0.5062 C   0  0  0  0  0  0  0  0  0  0  0  0
    0.6137   -3.7449   -1.5784 C   0  0  0  0  0  0  0  0  0  0  0  0
    1.4806   -2.7158   -1.8739 C   0  0  0  0  0  0  0  0  0  0  0  0
    1.5303   -1.5637   -1.0960 C   0  0  0  0  0  0  0  0  0  0  0  0
    2.4767   -0.5213   -1.4776 C   0  0  0  0  0  0  0  0  0  0  0  0
    3.2279   -0.6694   -2.4849 O   0  0  0  0  0  0  0  0  0  0  0  0
    2.6131    0.6923   -0.7646 N   0  0  0  0  0  0  0  0  0  0  0  0
    3.5386    1.7477   -1.1070 C   0  0  0  0  0  0  0  0  0  0  0  0
    4.9400    1.4688   -0.7118 C   0  0  0  0  0  0  0  0  0  0  0  0
    5.8828    0.8866   -1.5276 C   0  0  0  0  0  0  0  0  0  0  0  0
    7.1865    0.6430   -1.0898 C   0  0  0  0  0  0  0  0  0  0  0  0
    7.5868    0.9754    0.1797 C   0  0  0  0  0  0  0  0  0  0  0  0
    6.6498    1.5596    1.0053 C   0  0  0  0  0  0  0  0  0  0  0  0
    5.3627    1.8018    0.5784 C   0  0  0  0  0  0  0  0  0  0  0  0
    0.6785   -1.5097   -0.0311 C   0  0  0  0  0  0  0  0  0  0  0  0
   -4.2214   -1.9877    0.8124 H   0  0  0  0  0  0  0  0  0  0  0  0
   -5.2323   -0.8432    1.7331 H   0  0  0  0  0  0  0  0  0  0  0  0
   -3.8881   -1.7158    2.6139 H   0  0  0  0  0  0  0  0  0  0  0  0
   -4.7021    3.4098    1.1321 H   0  0  0  0  0  0  0  0  0  0  0  0
   -6.9617    4.2160    0.4170 H   0  0  0  0  0  0  0  0  0  0  0  0
   -7.6848    0.4932   -1.3129 H   0  0  0  0  0  0  0  0  0  0  0  0
   -5.4189   -0.3589   -0.6116 H   0  0  0  0  0  0  0  0  0  0  0  0
   -0.4661    1.3150    1.1579 H   0  0  0  0  0  0  0  0  0  0  0  0
   -1.6859   -1.5901    3.2312 H   0  0  0  0  0  0  0  0  0  0  0  0
   -0.1837   -0.9342    2.5605 H   0  0  0  0  0  0  0  0  0  0  0  0
   -1.6599   -3.3153    1.6233 H   0  0  0  0  0  0  0  0  0  0  0  0
   -0.9155   -4.4503   -0.2511 H   0  0  0  0  0  0  0  0  0  0  0  0
    0.5917   -4.6317   -2.1966 H   0  0  0  0  0  0  0  0  0  0  0  0
    2.1400   -2.8194   -2.7433 H   0  0  0  0  0  0  0  0  0  0  0  0
    1.9756    0.8117    0.0816 H   0  0  0  0  0  0  0  0  0  0  0  0
    3.5048    1.9676   -2.2032 H   0  0  0  0  0  0  0  0  0  0  0  0
    3.1789    2.7009   -0.6240 H   0  0  0  0  0  0  0  0  0  0  0  0
    5.6041    0.6185   -2.5347 H   0  0  0  0  0  0  0  0  0  0  0  0
    7.8973    0.1802   -1.7712 H   0  0  0  0  0  0  0  0  0  0  0  0
    8.5997    0.7796    0.5026 H   0  0  0  0  0  0  0  0  0  0  0  0
    6.9651    1.8219    2.0059 H   0  0  0  0  0  0  0  0  0  0  0  0
    4.6179    2.2607    1.2207 H   0  0  0  0  0  0  0  0  0  0  0  0
    0.6979   -0.6466    0.6002 H   0  0  0  0  0  0  0  0  0  0  0  0
  1  2  1  0
  2  3  1  0
  3  4  1  0
  4  5  2  0
  5  6  1  0
  6  7  2  0
  7  8  1  0
  8  9  2  0
  3 10  2  0
 10 11  1  0
 11 12  1  0
 12 13  1  0
 13 14  1  0
 14 15  1  0
 15 16  2  0
 16 17  1  0
 17 18  2  0
 18 19  1  0
 19 20  1  0
 20 21  2  0
 20 22  1  0
 22 23  1  0
 23 24  1  0
 24 25  2  0
 25 26  1  0
 26 27  2  0
 27 28  1  0
 28 29  2  0
 19 30  2  0
 12  2  2  0
 30 15  1  0
  9  4  1  0
 29 24  1  0
  1 31  1  0
  1 32  1  0
  1 33  1  0
  5 34  1  0
  6 35  1  0
  8 36  1  0
  9 37  1  0
 11 38  1  0
 13 39  1  0
 13 40  1  0
 14 41  1  0
 16 42  1  0
 17 43  1  0
 18 44  1  0
 22 45  1  0
 23 46  1  0
 23 47  1  0
 25 48  1  0
 26 49  1  0
 27 50  1  0
 28 51  1  0
 29 52  1  0
 30 53  1  0
M  END
$$$$
