@<TRIPOS>MOLECULE
*****
 40 41 0 0 0
SMALL
GASTEIGER

@<TRIPOS>ATOM
      1 C           5.3121    1.0340    0.0265 C.3     1  UNL1       -0.0499
      2 C           4.4775    0.0354    0.8182 C.3     1  UNL1        0.0021
      3 C           4.8492   -1.3374    0.3403 C.3     1  UNL1       -0.0499
      4 N           3.0734    0.2870    0.7595 N.3     1  UNL1       -0.3112
      5 C           2.5819    0.2362   -0.5870 C.3     1  UNL1        0.0254
      6 C           1.0813    0.5168   -0.5371 C.3     1  UNL1        0.1015
      7 O           0.8841    1.8001    0.0258 O.3     1  UNL1       -0.3872
      8 C           0.3599   -0.5185    0.2655 C.3     1  UNL1        0.1166
      9 O          -1.0096   -0.3746    0.3764 O.3     1  UNL1       -0.4888
     10 C          -2.0034   -0.3678   -0.5268 C.ar    1  UNL1        0.1283
     11 C          -2.0378   -0.5076   -1.8934 C.ar    1  UNL1       -0.0193
     12 C          -3.1678   -0.4755   -2.6814 C.ar    1  UNL1       -0.0577
     13 C          -4.3529   -0.2865   -2.0240 C.ar    1  UNL1       -0.0538
     14 C          -4.4300   -0.1357   -0.6576 C.ar    1  UNL1       -0.0144
     15 C          -3.2463   -0.1775    0.0881 C.ar    1  UNL1        0.0238
     16 C          -3.4368   -0.0152    1.4546 C.ar    1  UNL1       -0.0505
     17 C          -4.6799    0.1698    2.0193 C.ar    1  UNL1       -0.0611
     18 C          -5.7992    0.1998    1.2225 C.ar    1  UNL1       -0.0612
     19 C          -5.6816    0.0453   -0.1404 C.ar    1  UNL1       -0.0539
     20 H           5.3690    0.8093   -1.0385 H       1  UNL1        0.0245
     21 H           6.3494    1.0221    0.4614 H       1  UNL1        0.0245
     22 H           4.8756    2.0463    0.2081 H       1  UNL1        0.0245
     23 H           4.7828    0.1465    1.8783 H       1  UNL1        0.0455
     24 H           4.2426   -2.1307    0.8431 H       1  UNL1        0.0245
     25 H           4.7115   -1.3901   -0.7576 H       1  UNL1        0.0245
     26 H           5.9242   -1.4780    0.6260 H       1  UNL1        0.0245
     27 H           2.8315    1.1485    1.2590 H       1  UNL1        0.1223
     28 H           2.7961   -0.7429   -1.0310 H       1  UNL1        0.0450
     29 H           3.1077    1.0040   -1.1885 H       1  UNL1        0.0450
     30 H           0.7604    0.5852   -1.5725 H       1  UNL1        0.0640
     31 H           0.0000    1.8242    0.5090 H       1  UNL1        0.2100
     32 H           0.5893   -1.5051   -0.2180 H       1  UNL1        0.0723
     33 H           0.8655   -0.6086    1.2721 H       1  UNL1        0.0723
     34 H          -1.0689   -0.6603   -2.3414 H       1  UNL1        0.0654
     35 H          -3.0502   -0.5992   -3.7496 H       1  UNL1        0.0619
     36 H          -5.2411   -0.2611   -2.6418 H       1  UNL1        0.0624
     37 H          -2.5646   -0.0385    2.0760 H       1  UNL1        0.0625
     38 H          -4.7198    0.2862    3.0929 H       1  UNL1        0.0618
     39 H          -6.7768    0.3442    1.6561 H       1  UNL1        0.0618
     40 H          -6.5585    0.0697   -0.7551 H       1  UNL1        0.0624
@<TRIPOS>BOND
     1     1     2    1
     2     2     3    1
     3     2     4    1
     4     4     5    1
     5     5     6    1
     6     6     7    1
     7     6     8    1
     8     8     9    1
     9     9    10    1
    10    10    11   ar
    11    11    12   ar
    12    12    13   ar
    13    13    14   ar
    14    14    15   ar
    15    15    16   ar
    16    16    17   ar
    17    17    18   ar
    18    18    19   ar
    19    15    10   ar
    20    19    14   ar
    21     1    20    1
    22     1    21    1
    23     1    22    1
    24     2    23    1
    25     3    24    1
    26     3    25    1
    27     3    26    1
    28     4    27    1
    29     5    28    1
    30     5    29    1
    31     6    30    1
    32     7    31    1
    33     8    32    1
    34     8    33    1
    35    11    34    1
    36    12    35    1
    37    13    36    1
    38    16    37    1
    39    17    38    1
    40    18    39    1
    41    19    40    1
