@<TRIPOS>MOLECULE
*****
 56 60 0 0 0
SMALL
GASTEIGER

@<TRIPOS>ATOM
      1 O          -2.0439   -5.2766    0.7818 O.2     1  UNL1       -0.2520
      2 C          -1.2491   -4.3655    0.5104 C.2     1  UNL1        0.3123
      3 N          -0.6079   -3.6071    1.5536 N.am    1  UNL1       -0.2376
      4 C           0.3065   -2.5589    1.1917 C.2     1  UNL1        0.2545
      5 O           1.2767   -2.3876    1.9783 O.2     1  UNL1       -0.2724
      6 C          -0.0415   -1.8259   -0.0790 C.3     1  UNL1        0.2015
      7 N          -1.3350   -1.2851    0.0381 N.3     1  UNL1       -0.2750
      8 C          -1.5905   -0.3728    1.0601 C.3     1  UNL1        0.0164
      9 C          -3.0893   -0.1393    1.1550 C.3     1  UNL1        0.0277
     10 N          -3.5578    0.4095   -0.1000 N.pl3   1  UNL1       -0.2972
     11 C          -2.6657    0.1967   -1.2449 C.3     1  UNL1        0.0277
     12 C          -2.1394   -1.2335   -1.1266 C.3     1  UNL1        0.0164
     13 C          -4.7877    1.1086   -0.2453 C.ar    1  UNL1        0.2178
     14 N          -5.2561    1.6337   -1.3920 N.ar    1  UNL1       -0.2228
     15 C          -6.4333    2.2851   -1.4568 C.ar    1  UNL1        0.0326
     16 C          -7.1950    2.4218   -0.2984 C.ar    1  UNL1       -0.0253
     17 C          -6.7284    1.8894    0.8833 C.ar    1  UNL1        0.0326
     18 N          -5.5296    1.2472    0.8603 N.ar    1  UNL1       -0.2228
     19 C           0.0490   -2.8990   -1.1267 C.2     1  UNL1        0.2545
     20 O           0.6748   -3.1894   -2.1994 O.2     1  UNL1       -0.2724
     21 N          -0.8815   -3.9663   -0.8300 N.am    1  UNL1       -0.2376
     22 C           0.9345   -0.7636   -0.3459 C.ar    1  UNL1       -0.0091
     23 C           1.2837   -0.0118    0.7820 C.ar    1  UNL1       -0.0524
     24 C           2.2009    1.0350    0.6650 C.ar    1  UNL1       -0.0190
     25 C           2.7908    1.3677   -0.5400 C.ar    1  UNL1        0.1285
     26 O           3.7031    2.3977   -0.6932 O.3     1  UNL1       -0.4560
     27 C           5.0714    2.1256   -0.5339 C.ar    1  UNL1        0.1284
     28 C           5.8599    1.7389   -1.6097 C.ar    1  UNL1       -0.0193
     29 C           7.2072    1.4609   -1.5044 C.ar    1  UNL1       -0.0583
     30 C           7.7967    1.5747   -0.2618 C.ar    1  UNL1       -0.0615
     31 C           7.0582    1.9566    0.8460 C.ar    1  UNL1       -0.0583
     32 C           5.7071    2.2234    0.6794 C.ar    1  UNL1       -0.0193
     33 C           2.4509    0.6316   -1.6525 C.ar    1  UNL1       -0.0190
     34 C           1.5460   -0.3966   -1.5226 C.ar    1  UNL1       -0.0524
     35 H          -0.8408   -3.8600    2.5548 H       1  UNL1        0.1591
     36 H          -1.3045   -0.8223    2.0407 H       1  UNL1        0.0442
     37 H          -1.1302    0.5981    0.8577 H       1  UNL1        0.0442
     38 H          -3.6534   -1.0186    1.4808 H       1  UNL1        0.0477
     39 H          -3.2348    0.6151    1.9819 H       1  UNL1        0.0477
     40 H          -3.1917    0.3425   -2.1915 H       1  UNL1        0.0477
     41 H          -1.8007    0.8953   -1.2321 H       1  UNL1        0.0477
     42 H          -2.9845   -1.9334   -1.1663 H       1  UNL1        0.0442
     43 H          -1.4969   -1.4132   -2.0141 H       1  UNL1        0.0442
     44 H          -6.8006    2.7024   -2.3794 H       1  UNL1        0.0831
     45 H          -8.1524    2.9320   -0.2687 H       1  UNL1        0.0648
     46 H          -7.2429    1.9390    1.8455 H       1  UNL1        0.0831
     47 H          -1.3913   -4.5687   -1.5458 H       1  UNL1        0.1591
     48 H           0.9602   -0.0872    1.8011 H       1  UNL1        0.0622
     49 H           2.5385    1.6779    1.4769 H       1  UNL1        0.0654
     50 H           5.4433    1.6382   -2.5913 H       1  UNL1        0.0654
     51 H           7.7990    1.1601   -2.3654 H       1  UNL1        0.0619
     52 H           8.8557    1.3699   -0.1089 H       1  UNL1        0.0618
     53 H           7.5497    2.0380    1.8134 H       1  UNL1        0.0619
     54 H           5.1574    2.5183    1.5579 H       1  UNL1        0.0654
     55 H           2.8660    0.8261   -2.6315 H       1  UNL1        0.0654
     56 H           1.2691   -0.9749   -2.3765 H       1  UNL1        0.0622
@<TRIPOS>BOND
     1     1     2    2
     2     2     3   am
     3     3     4   am
     4     4     5    2
     5     4     6    1
     6     6     7    1
     7     7     8    1
     8     8     9    1
     9     9    10    1
    10    10    11    1
    11    11    12    1
    12    10    13    1
    13    13    14   ar
    14    14    15   ar
    15    15    16   ar
    16    16    17   ar
    17    17    18   ar
    18     6    19    1
    19    19    20    2
    20    19    21   am
    21     6    22    1
    22    22    23   ar
    23    23    24   ar
    24    24    25   ar
    25    25    26    1
    26    26    27    1
    27    27    28   ar
    28    28    29   ar
    29    29    30   ar
    30    30    31   ar
    31    31    32   ar
    32    25    33   ar
    33    33    34   ar
    34    21     2   am
    35    34    22   ar
    36    12     7    1
    37    18    13   ar
    38    32    27   ar
    39     3    35    1
    40     8    36    1
    41     8    37    1
    42     9    38    1
    43     9    39    1
    44    11    40    1
    45    11    41    1
    46    12    42    1
    47    12    43    1
    48    15    44    1
    49    16    45    1
    50    17    46    1
    51    21    47    1
    52    23    48    1
    53    24    49    1
    54    28    50    1
    55    29    51    1
    56    30    52    1
    57    31    53    1
    58    32    54    1
    59    33    55    1
    60    34    56    1
