
     RDKit          3D

 56 60  0  0  0  0  0  0  0  0999 V2000
   -2.0439   -5.2766    0.7818 O   0  0  0  0  0  0  0  0  0  0  0  0
   -1.2491   -4.3655    0.5104 C   0  0  0  0  0  0  0  0  0  0  0  0
   -0.6079   -3.6071    1.5536 N   0  0  0  0  0  0  0  0  0  0  0  0
    0.3065   -2.5589    1.1917 C   0  0  0  0  0  0  0  0  0  0  0  0
    1.2767   -2.3876    1.9783 O   0  0  0  0  0  0  0  0  0  0  0  0
   -0.0415   -1.8259   -0.0790 C   0  0  0  0  0  0  0  0  0  0  0  0
   -1.3350   -1.2851    0.0381 N   0  0  0  0  0  0  0  0  0  0  0  0
   -1.5905   -0.3728    1.0601 C   0  0  0  0  0  0  0  0  0  0  0  0
   -3.0893   -0.1393    1.1550 C   0  0  0  0  0  0  0  0  0  0  0  0
   -3.5578    0.4095   -0.1000 N   0  0  0  0  0  0  0  0  0  0  0  0
   -2.6657    0.1967   -1.2449 C   0  0  0  0  0  0  0  0  0  0  0  0
   -2.1394   -1.2335   -1.1266 C   0  0  0  0  0  0  0  0  0  0  0  0
   -4.7877    1.1086   -0.2453 C   0  0  0  0  0  0  0  0  0  0  0  0
   -5.2561    1.6337   -1.3920 N   0  0  0  0  0  0  0  0  0  0  0  0
   -6.4333    2.2851   -1.4568 C   0  0  0  0  0  0  0  0  0  0  0  0
   -7.1950    2.4218   -0.2984 C   0  0  0  0  0  0  0  0  0  0  0  0
   -6.7284    1.8894    0.8833 C   0  0  0  0  0  0  0  0  0  0  0  0
   -5.5296    1.2472    0.8603 N   0  0  0  0  0  0  0  0  0  0  0  0
    0.0490   -2.8990   -1.1267 C   0  0  0  0  0  0  0  0  0  0  0  0
    0.6748   -3.1894   -2.1994 O   0  0  0  0  0  0  0  0  0  0  0  0
   -0.8815   -3.9663   -0.8300 N   0  0  0  0  0  0  0  0  0  0  0  0
    0.9345   -0.7636   -0.3459 C   0  0  0  0  0  0  0  0  0  0  0  0
    1.2837   -0.0118    0.7820 C   0  0  0  0  0  0  0  0  0  0  0  0
    2.2009    1.0350    0.6650 C   0  0  0  0  0  0  0  0  0  0  0  0
    2.7908    1.3677   -0.5400 C   0  0  0  0  0  0  0  0  0  0  0  0
    3.7031    2.3977   -0.6932 O   0  0  0  0  0  0  0  0  0  0  0  0
    5.0714    2.1256   -0.5339 C   0  0  0  0  0  0  0  0  0  0  0  0
    5.8599    1.7389   -1.6097 C   0  0  0  0  0  0  0  0  0  0  0  0
    7.2072    1.4609   -1.5044 C   0  0  0  0  0  0  0  0  0  0  0  0
    7.7967    1.5747   -0.2618 C   0  0  0  0  0  0  0  0  0  0  0  0
    7.0582    1.9566    0.8460 C   0  0  0  0  0  0  0  0  0  0  0  0
    5.7071    2.2234    0.6794 C   0  0  0  0  0  0  0  0  0  0  0  0
    2.4509    0.6316   -1.6525 C   0  0  0  0  0  0  0  0  0  0  0  0
    1.5460   -0.3966   -1.5226 C   0  0  0  0  0  0  0  0  0  0  0  0
   -0.8408   -3.8600    2.5548 H   0  0  0  0  0  0  0  0  0  0  0  0
   -1.3045   -0.8223    2.0407 H   0  0  0  0  0  0  0  0  0  0  0  0
   -1.1302    0.5981    0.8577 H   0  0  0  0  0  0  0  0  0  0  0  0
   -3.6534   -1.0186    1.4808 H   0  0  0  0  0  0  0  0  0  0  0  0
   -3.2348    0.6151    1.9819 H   0  0  0  0  0  0  0  0  0  0  0  0
   -3.1917    0.3425   -2.1915 H   0  0  0  0  0  0  0  0  0  0  0  0
   -1.8007    0.8953   -1.2321 H   0  0  0  0  0  0  0  0  0  0  0  0
   -2.9845   -1.9334   -1.1663 H   0  0  0  0  0  0  0  0  0  0  0  0
   -1.4969   -1.4132   -2.0141 H   0  0  0  0  0  0  0  0  0  0  0  0
   -6.8006    2.7024   -2.3794 H   0  0  0  0  0  0  0  0  0  0  0  0
   -8.1524    2.9320   -0.2687 H   0  0  0  0  0  0  0  0  0  0  0  0
   -7.2429    1.9390    1.8455 H   0  0  0  0  0  0  0  0  0  0  0  0
   -1.3913   -4.5687   -1.5458 H   0  0  0  0  0  0  0  0  0  0  0  0
    0.9602   -0.0872    1.8011 H   0  0  0  0  0  0  0  0  0  0  0  0
    2.5385    1.6779    1.4769 H   0  0  0  0  0  0  0  0  0  0  0  0
    5.4433    1.6382   -2.5913 H   0  0  0  0  0  0  0  0  0  0  0  0
    7.7990    1.1601   -2.3654 H   0  0  0  0  0  0  0  0  0  0  0  0
    8.8557    1.3699   -0.1089 H   0  0  0  0  0  0  0  0  0  0  0  0
    7.5497    2.0380    1.8134 H   0  0  0  0  0  0  0  0  0  0  0  0
    5.1574    2.5183    1.5579 H   0  0  0  0  0  0  0  0  0  0  0  0
    2.8660    0.8261   -2.6315 H   0  0  0  0  0  0  0  0  0  0  0  0
    1.2691   -0.9749   -2.3765 H   0  0  0  0  0  0  0  0  0  0  0  0
  1  2  2  0
  2  3  1  0
  3  4  1  0
  4  5  2  0
  4  6  1  0
  6  7  1  0
  7  8  1  0
  8  9  1  0
  9 10  1  0
 10 11  1  0
 11 12  1  0
 10 13  1  0
 13 14  2  0
 14 15  1  0
 15 16  2  0
 16 17  1  0
 17 18  2  0
  6 19  1  0
 19 20  2  0
 19 21  1  0
  6 22  1  0
 22 23  2  0
 23 24  1  0
 24 25  2  0
 25 26  1  0
 26 27  1  0
 27 28  2  0
 28 29  1  0
 29 30  2  0
 30 31  1  0
 31 32  2  0
 25 33  1  0
 33 34  2  0
 21  2  1  0
 34 22  1  0
 12  7  1  0
 18 13  1  0
 32 27  1  0
  3 35  1  0
  8 36  1  0
  8 37  1  0
  9 38  1  0
  9 39  1  0
 11 40  1  0
 11 41  1  0
 12 42  1  0
 12 43  1  0
 15 44  1  0
 16 45  1  0
 17 46  1  0
 21 47  1  0
 23 48  1  0
 24 49  1  0
 28 50  1  0
 29 51  1  0
 30 52  1  0
 31 53  1  0
 32 54  1  0
 33 55  1  0
 34 56  1  0
M  END
$$$$
