@<TRIPOS>MOLECULE
*****
 49 48 0 0 0
SMALL
GASTEIGER

@<TRIPOS>ATOM
      1 C1         -3.4803   -4.5606    0.3496 C.3     1  <1>        -0.0648
      2 C2         -4.0718   -3.4416   -0.4792 C.3     1  <1>        -0.0458
      3 C3         -4.4200   -2.2329    0.3210 C.3     1  <1>         0.0447
      4 C4         -3.2157   -1.6493    1.0110 C.2     1  <1>         0.3075
      5 O1         -2.7001   -1.6182    2.1569 O.2     1  <1>        -0.2508
      6 O2         -2.4677   -0.9435    0.0839 O.3     1  <1>        -0.4555
      7 C5         -1.2729   -0.2530    0.3412 C.3     1  <1>         0.1605
      8 C6         -1.3204    1.1861   -0.0224 C.3     1  <1>         0.1315
      9 O3         -2.3158    1.9082    0.6647 O.3     1  <1>        -0.4608
     10 C7         -2.4812    3.2863    0.4233 C.2     1  <1>         0.3069
     11 O4         -1.6152    3.6052   -0.4414 O.2     1  <1>        -0.2509
     12 C8         -3.5529    3.9741    1.1873 C.3     1  <1>         0.0421
     13 C9         -3.6340    5.4339    0.8661 C.3     1  <1>        -0.0552
     14 C10        -0.0842   -0.9674   -0.3102 C.3     1  <1>         0.0993
     15 O5          1.1118   -0.3294   -0.0958 O.3     1  <1>        -0.2828
     16 P1          2.4261   -1.2249   -0.6780 P.3     1  <1>         0.4751
     17 O6          2.6796   -0.9985   -2.3276 O.3     1  <1>        -0.3025
     18 O7          2.2014   -2.7133   -0.4631 O.2     1  <1>        -0.2273
     19 O8          3.8327   -0.7656    0.1380 O.3     1  <1>        -0.2845
     20 C11         4.4121    0.3013   -0.5294 C.3     1  <1>         0.0846
     21 C12         5.7239    0.7219    0.0976 C.3     1  <1>         0.1273
     22 N1          6.2426    1.8334   -0.6691 N.3     1  <1>        -0.3166
     23 C13         6.6778   -0.3995    0.0709 C.2     1  <1>         0.3240
     24 O9          7.9162   -0.5172   -0.5577 O.3     1  <1>        -0.4795
     25 O10         6.1665   -1.2978    0.7512 O.2     1  <1>        -0.2492
     26 H1         -3.0017   -5.3019   -0.3353 H       1  <1>         0.0230
     27 H2         -2.7500   -4.0996    1.0246 H       1  <1>         0.0230
     28 H3         -4.2580   -5.0586    0.9640 H       1  <1>         0.0230
     29 H4         -3.3917   -3.2141   -1.3336 H       1  <1>         0.0268
     30 H5         -5.0390   -3.8315   -0.8929 H       1  <1>         0.0268
     31 H6         -5.0646   -2.5823    1.1779 H       1  <1>         0.0377
     32 H7         -4.9453   -1.4529   -0.2294 H       1  <1>         0.0377
     33 H8         -1.0770   -0.3491    1.4310 H       1  <1>         0.0792
     34 H9         -0.3391    1.6954    0.1156 H       1  <1>         0.0736
     35 H10        -1.5763    1.2643   -1.1006 H       1  <1>         0.0736
     36 H11        -3.2820    3.9011    2.2823 H       1  <1>         0.0375
     37 H12        -4.5285    3.4897    1.0579 H       1  <1>         0.0375
     38 H13        -4.4352    5.8666    1.5312 H       1  <1>         0.0235
     39 H14        -3.9626    5.6033   -0.1772 H       1  <1>         0.0235
     40 H15        -2.6974    5.9664    1.0905 H       1  <1>         0.0235
     41 H16        -0.2890   -0.9843   -1.3968 H       1  <1>         0.0604
     42 H17        -0.0597   -2.0338   -0.0003 H       1  <1>         0.0604
     43 H18         3.0839   -1.7896   -2.7662 H       1  <1>         0.2220
     44 H19         3.6733    1.1265   -0.5333 H       1  <1>         0.0587
     45 H20         4.5710   -0.0077   -1.5822 H       1  <1>         0.0587
     46 H21         5.4955    1.0771    1.1260 H       1  <1>         0.0597
     47 H22         7.1739    1.6430   -1.0942 H       1  <1>         0.1190
     48 H23         5.5540    2.1496   -1.4007 H       1  <1>         0.1190
     49 H24         8.3872   -1.4149   -0.3675 H       1  <1>         0.2951
@<TRIPOS>BOND
     1     1     2    1
     2     2     3    1
     3     3     4    1
     4     4     5    2
     5     4     6    1
     6     6     7    1
     7     7     8    1
     8     8     9    1
     9     9    10    1
    10    10    11    2
    11    10    12    1
    12    12    13    1
    13     7    14    1
    14    14    15    1
    15    15    16    1
    16    16    17    1
    17    16    18    2
    18    16    19    1
    19    19    20    1
    20    20    21    1
    21    21    22    1
    22    21    23    1
    23    23    24    1
    24    23    25    2
    25     1    26    1
    26     1    27    1
    27     1    28    1
    28     2    29    1
    29     2    30    1
    30     3    31    1
    31     3    32    1
    32     7    33    1
    33     8    34    1
    34     8    35    1
    35    12    36    1
    36    12    37    1
    37    13    38    1
    38    13    39    1
    39    13    40    1
    40    14    41    1
    41    14    42    1
    42    17    43    1
    43    20    44    1
    44    20    45    1
    45    21    46    1
    46    22    47    1
    47    22    48    1
    48    24    49    1
