
     RDKit          3D

 60 64  0  0  0  0  0  0  0  0999 V2000
   -5.1787   -1.0982   -2.1155 C   0  0  0  0  0  0  0  0  0  0  0  0
   -4.3808   -0.4630   -1.1320 N   0  0  0  0  0  0  0  0  0  0  0  0
   -4.9847   -0.3691    0.1195 C   0  0  0  0  0  0  0  0  0  0  0  0
   -6.3558    0.2004    0.2251 C   0  0  2  0  0  0  0  0  0  0  0  0
   -6.5736    1.5439   -0.3671 C   0  0  0  0  0  0  0  0  0  0  0  0
   -6.3221    2.5868    0.5258 O   0  0  0  0  0  0  0  0  0  0  0  0
   -7.0815    2.4539    1.6882 C   0  0  0  0  0  0  0  0  0  0  0  0
   -7.7169    1.0809    1.7773 C   0  0  0  0  0  0  0  0  0  0  0  0
   -6.7034    0.1528    1.5840 O   0  0  0  0  0  0  0  0  0  0  0  0
   -3.3363    0.7568   -1.6639 S   0  0  0  0  0  6  0  0  0  0  0  0
   -3.8665    1.4292   -2.9296 O   0  0  0  0  0  0  0  0  0  0  0  0
   -3.2424    1.8278   -0.6189 O   0  0  0  0  0  0  0  0  0  0  0  0
   -1.7716    0.0800   -2.0012 N   0  0  0  0  0  0  0  0  0  0  0  0
   -0.9666   -0.5483   -1.0447 C   0  0  0  0  0  0  0  0  0  0  0  0
   -1.4266   -1.4777   -0.1371 C   0  0  0  0  0  0  0  0  0  0  0  0
   -0.6262   -2.0942    0.8020 C   0  0  0  0  0  0  0  0  0  0  0  0
    0.7107   -1.7640    0.8370 C   0  0  0  0  0  0  0  0  0  0  0  0
    1.3716   -2.4599    1.8223 C   0  0  0  0  0  0  0  0  0  0  0  0
    2.7340   -2.4162    2.1080 C   0  0  0  0  0  0  0  0  0  0  0  0
    3.7636   -1.7457    1.4762 C   0  0  0  0  0  0  0  0  0  0  0  0
    4.9857   -2.0508    1.9446 N   0  0  0  0  0  0  0  0  0  0  0  0
    6.1230   -1.5117    1.4701 C   0  0  0  0  0  0  0  0  0  0  0  0
    6.0976   -0.5841    0.4411 C   0  0  0  0  0  0  0  0  0  0  0  0
    7.3211    0.0062   -0.0808 C   0  0  0  0  0  0  0  0  0  0  0  0
    8.5699   -0.5930   -0.1586 C   0  0  0  0  0  0  0  0  0  0  0  0
    9.4135    0.3039   -0.7035 N   0  0  0  0  0  0  0  0  0  0  0  0
    8.7793    1.4385   -0.9780 N   0  0  0  0  0  0  0  0  0  0  0  0
    9.3191    2.6529   -1.5688 C   0  0  0  0  0  0  0  0  0  0  0  0
    7.5121    1.2817   -0.6098 C   0  0  0  0  0  0  0  0  0  0  0  0
    4.8462   -0.2578   -0.0539 C   0  0  0  0  0  0  0  0  0  0  0  0
    3.6944   -0.8253    0.4506 C   0  0  0  0  0  0  0  0  0  0  0  0
    2.5419   -0.3800   -0.1653 C   0  0  0  0  0  0  0  0  0  0  0  0
    2.7419    0.5961   -0.9512 O   0  0  0  0  0  0  0  0  0  0  0  0
    1.2279   -0.8400   -0.0474 C   0  0  0  0  0  0  0  0  0  0  0  0
    0.3993   -0.2522   -0.9626 C   0  0  0  0  0  0  0  0  0  0  0  0
   -5.7489   -0.3939   -2.7622 H   0  0  0  0  0  0  0  0  0  0  0  0
   -5.9175   -1.7512   -1.5803 H   0  0  0  0  0  0  0  0  0  0  0  0
   -4.5414   -1.7742   -2.7528 H   0  0  0  0  0  0  0  0  0  0  0  0
   -5.0469   -1.3860    0.6387 H   0  0  0  0  0  0  0  0  0  0  0  0
   -4.3340    0.2160    0.8313 H   0  0  0  0  0  0  0  0  0  0  0  0
   -7.0585   -0.5138   -0.2927 H   0  0  0  0  0  0  0  0  0  0  0  0
   -7.6198    1.6512   -0.7866 H   0  0  0  0  0  0  0  0  0  0  0  0
   -5.9177    1.6878   -1.2384 H   0  0  0  0  0  0  0  0  0  0  0  0
   -7.8598    3.2129    1.7958 H   0  0  0  0  0  0  0  0  0  0  0  0
   -6.3848    2.5488    2.5453 H   0  0  0  0  0  0  0  0  0  0  0  0
   -8.5234    0.9311    1.0459 H   0  0  0  0  0  0  0  0  0  0  0  0
   -8.0817    0.9551    2.8238 H   0  0  0  0  0  0  0  0  0  0  0  0
   -1.4214    0.1518   -2.9785 H   0  0  0  0  0  0  0  0  0  0  0  0
   -2.4589   -1.7534   -0.1422 H   0  0  0  0  0  0  0  0  0  0  0  0
   -1.0578   -2.8263    1.4957 H   0  0  0  0  0  0  0  0  0  0  0  0
    0.7991   -3.1268    2.4685 H   0  0  0  0  0  0  0  0  0  0  0  0
    3.0764   -2.9957    2.9651 H   0  0  0  0  0  0  0  0  0  0  0  0
    7.1035   -1.7716    1.8625 H   0  0  0  0  0  0  0  0  0  0  0  0
    8.7849   -1.5938    0.1674 H   0  0  0  0  0  0  0  0  0  0  0  0
   10.3303    2.4839   -1.9841 H   0  0  0  0  0  0  0  0  0  0  0  0
    9.3373    3.4775   -0.8231 H   0  0  0  0  0  0  0  0  0  0  0  0
    8.6283    2.9762   -2.3733 H   0  0  0  0  0  0  0  0  0  0  0  0
    6.7002    1.9901   -0.6795 H   0  0  0  0  0  0  0  0  0  0  0  0
    4.7987    0.4671   -0.8611 H   0  0  0  0  0  0  0  0  0  0  0  0
    0.7945    0.4765   -1.6640 H   0  0  0  0  0  0  0  0  0  0  0  0
  1  2  1  0
  2  3  1  0
  3  4  1  0
  4  5  1  0
  5  6  1  0
  6  7  1  0
  7  8  1  0
  8  9  1  0
  2 10  1  0
 10 11  2  0
 10 12  2  0
 10 13  1  0
 13 14  1  0
 14 15  2  0
 15 16  1  0
 16 17  2  0
 17 18  1  0
 18 19  2  0
 19 20  1  0
 20 21  2  0
 21 22  1  0
 22 23  2  0
 23 24  1  0
 24 25  1  0
 25 26  2  0
 26 27  1  0
 27 28  1  0
 27 29  1  0
 23 30  1  0
 30 31  2  0
 31 32  1  0
 32 33  2  0
 32 34  1  0
 34 35  2  0
  9  4  1  0
 35 14  1  0
 34 17  1  0
 31 20  1  0
 29 24  2  0
  1 36  1  0
  1 37  1  0
  1 38  1  0
  3 39  1  0
  3 40  1  0
  4 41  1  6
  5 42  1  0
  5 43  1  0
  7 44  1  0
  7 45  1  0
  8 46  1  0
  8 47  1  0
 13 48  1  0
 15 49  1  0
 16 50  1  0
 18 51  1  0
 19 52  1  0
 22 53  1  0
 25 54  1  0
 28 55  1  0
 28 56  1  0
 28 57  1  0
 29 58  1  0
 30 59  1  0
 35 60  1  0
M  END
$$$$
