@<TRIPOS>MOLECULE
*****
 60 64 0 0 0
SMALL
GASTEIGER

@<TRIPOS>ATOM
      1 C          -5.1787   -1.0982   -2.1155 C.3     1  UNL1        0.0103
      2 N          -4.3808   -0.4630   -1.1320 N.3     1  UNL1       -0.1643
      3 C          -4.9847   -0.3691    0.1195 C.3     1  UNL1        0.0499
      4 C          -6.3558    0.2004    0.2251 C.3     1  UNL1        0.0963
      5 C          -6.5736    1.5439   -0.3671 C.3     1  UNL1        0.0752
      6 O          -6.3221    2.5868    0.5258 O.3     1  UNL1       -0.3749
      7 C          -7.0815    2.4539    1.6882 C.3     1  UNL1        0.0711
      8 C          -7.7169    1.0809    1.7773 C.3     1  UNL1        0.0715
      9 O          -6.7034    0.1528    1.5840 O.3     1  UNL1       -0.3707
     10 S          -3.3363    0.7568   -1.6639 S.O2    1  UNL1        0.1115
     11 O          -3.8665    1.4292   -2.9296 O.2     1  UNL1       -0.1379
     12 O          -3.2424    1.8278   -0.6189 O.2     1  UNL1       -0.1379
     13 N          -1.7716    0.0800   -2.0012 N.pl3   1  UNL1       -0.2064
     14 C          -0.9666   -0.5483   -1.0447 C.ar    1  UNL1        0.0498
     15 C          -1.4266   -1.4777   -0.1371 C.ar    1  UNL1       -0.0387
     16 C          -0.6262   -2.0942    0.8020 C.ar    1  UNL1       -0.0521
     17 C           0.7107   -1.7640    0.8370 C.ar    1  UNL1       -0.0140
     18 C           1.3716   -2.4599    1.8223 C.ar    1  UNL1       -0.0519
     19 C           2.7340   -2.4162    2.1080 C.ar    1  UNL1       -0.0350
     20 C           3.7636   -1.7457    1.4762 C.ar    1  UNL1        0.0747
     21 N           4.9857   -2.0508    1.9446 N.ar    1  UNL1       -0.2543
     22 C           6.1230   -1.5117    1.4701 C.ar    1  UNL1        0.0361
     23 C           6.0976   -0.5841    0.4411 C.ar    1  UNL1        0.0039
     24 C           7.3211    0.0062   -0.0808 C.ar    1  UNL1        0.0210
     25 C           8.5699   -0.5930   -0.1586 C.ar    1  UNL1        0.0571
     26 N           9.4135    0.3039   -0.7035 N.ar    1  UNL1       -0.1793
     27 N           8.7793    1.4385   -0.9780 N.ar    1  UNL1       -0.2739
     28 C           9.3191    2.6529   -1.5688 C.3     1  UNL1        0.0302
     29 C           7.5121    1.2817   -0.6098 C.ar    1  UNL1        0.0329
     30 C           4.8462   -0.2578   -0.0539 C.ar    1  UNL1       -0.0396
     31 C           3.6944   -0.8253    0.4506 C.ar    1  UNL1        0.0482
     32 C           2.5419   -0.3800   -0.1653 C.ar    1  UNL1        0.1958
     33 O           2.7419    0.5961   -0.9512 O.2     1  UNL1       -0.2866
     34 C           1.2279   -0.8400   -0.0474 C.ar    1  UNL1        0.0312
     35 C           0.3993   -0.2522   -0.9626 C.ar    1  UNL1       -0.0279
     36 H          -5.7489   -0.3939   -2.7622 H       1  UNL1        0.0408
     37 H          -5.9175   -1.7512   -1.5803 H       1  UNL1        0.0408
     38 H          -4.5414   -1.7742   -2.7528 H       1  UNL1        0.0408
     39 H          -5.0469   -1.3860    0.6387 H       1  UNL1        0.0470
     40 H          -4.3340    0.2160    0.8313 H       1  UNL1        0.0470
     41 H          -7.0585   -0.5138   -0.2927 H       1  UNL1        0.0632
     42 H          -7.6198    1.6512   -0.7866 H       1  UNL1        0.0586
     43 H          -5.9177    1.6878   -1.2384 H       1  UNL1        0.0586
     44 H          -7.8598    3.2129    1.7958 H       1  UNL1        0.0583
     45 H          -6.3848    2.5488    2.5453 H       1  UNL1        0.0583
     46 H          -8.5234    0.9311    1.0459 H       1  UNL1        0.0583
     47 H          -8.0817    0.9551    2.8238 H       1  UNL1        0.0583
     48 H          -1.4214    0.1518   -2.9785 H       1  UNL1        0.1747
     49 H          -2.4589   -1.7534   -0.1422 H       1  UNL1        0.0637
     50 H          -1.0578   -2.8263    1.4957 H       1  UNL1        0.0624
     51 H           0.7991   -3.1268    2.4685 H       1  UNL1        0.0624
     52 H           3.0764   -2.9957    2.9651 H       1  UNL1        0.0639
     53 H           7.1035   -1.7716    1.8625 H       1  UNL1        0.0836
     54 H           8.7849   -1.5938    0.1674 H       1  UNL1        0.0854
     55 H          10.3303    2.4839   -1.9841 H       1  UNL1        0.0473
     56 H           9.3373    3.4775   -0.8231 H       1  UNL1        0.0473
     57 H           8.6283    2.9762   -2.3733 H       1  UNL1        0.0473
     58 H           6.7002    1.9901   -0.6795 H       1  UNL1        0.0832
     59 H           4.7987    0.4671   -0.8611 H       1  UNL1        0.0632
     60 H           0.7945    0.4765   -1.6640 H       1  UNL1        0.0644
@<TRIPOS>BOND
     1     1     2    1
     2     2     3    1
     3     3     4    1
     4     4     5    1
     5     5     6    1
     6     6     7    1
     7     7     8    1
     8     8     9    1
     9     2    10    1
    10    10    11    2
    11    10    12    2
    12    10    13    1
    13    13    14    1
    14    14    15   ar
    15    15    16   ar
    16    16    17   ar
    17    17    18   ar
    18    18    19   ar
    19    19    20   ar
    20    20    21   ar
    21    21    22   ar
    22    22    23   ar
    23    23    24    1
    24    24    25   ar
    25    25    26   ar
    26    26    27   ar
    27    27    28    1
    28    27    29   ar
    29    23    30   ar
    30    30    31   ar
    31    31    32   ar
    32    32    33    2
    33    32    34   ar
    34    34    35   ar
    35     9     4    1
    36    35    14   ar
    37    34    17   ar
    38    31    20   ar
    39    29    24   ar
    40     1    36    1
    41     1    37    1
    42     1    38    1
    43     3    39    1
    44     3    40    1
    45     4    41    1
    46     5    42    1
    47     5    43    1
    48     7    44    1
    49     7    45    1
    50     8    46    1
    51     8    47    1
    52    13    48    1
    53    15    49    1
    54    16    50    1
    55    18    51    1
    56    19    52    1
    57    22    53    1
    58    25    54    1
    59    28    55    1
    60    28    56    1
    61    28    57    1
    62    29    58    1
    63    30    59    1
    64    35    60    1
