
     RDKit          3D

 71 75  0  0  0  0  0  0  0  0999 V2000
    1.9234   -6.5967    0.7502 C   0  0  0  0  0  0  0  0  0  0  0  0
    1.1452   -5.4874    1.4361 C   0  0  0  0  0  0  0  0  0  0  0  0
    1.3381   -4.2051    0.7769 N   0  0  0  0  0  0  0  0  0  0  0  0
    0.6031   -3.6875   -0.2259 C   0  0  0  0  0  0  0  0  0  0  0  0
    1.1033   -2.4469   -0.5779 C   0  0  0  0  0  0  0  0  0  0  0  0
    0.6019   -1.5731   -1.5971 C   0  0  0  0  0  0  0  0  0  0  0  0
    1.3096   -1.1825   -2.7065 C   0  0  0  0  0  0  0  0  0  0  0  0
    0.7471   -0.3405   -3.6324 C   0  0  0  0  0  0  0  0  0  0  0  0
   -0.5001    0.1348   -3.5021 N   0  0  0  0  0  0  0  0  0  0  0  0
   -1.2110   -0.2367   -2.4204 C   0  0  0  0  0  0  0  0  0  0  0  0
   -2.4754    0.0608   -2.0009 N   0  0  0  0  0  0  0  0  0  0  0  0
   -2.7563   -0.5529   -0.8422 C   0  0  0  0  0  0  0  0  0  0  0  0
   -4.0466   -0.4276   -0.1361 C   0  0  0  0  0  0  0  0  0  0  0  0
   -4.2051   -1.1139    1.0455 C   0  0  0  0  0  0  0  0  0  0  0  0
   -5.4056   -1.0335    1.7569 C   0  0  0  0  0  0  0  0  0  0  0  0
   -6.4516   -0.2565    1.2734 C   0  0  0  0  0  0  0  0  0  0  0  0
   -6.2949    0.4315    0.0904 C   0  0  0  0  0  0  0  0  0  0  0  0
   -7.4229    1.2545   -0.4088 C   0  0  0  0  0  0  0  0  0  0  0  0
   -7.3801    2.6161    0.0801 N   0  0  0  0  0  0  0  0  0  0  0  0
   -8.5129    3.3204   -0.4648 C   0  0  0  0  0  0  0  0  0  0  0  0
   -7.3225    2.6802    1.5175 C   0  0  0  0  0  0  0  0  0  0  0  0
   -5.0838    0.3317   -0.5981 C   0  0  0  0  0  0  0  0  0  0  0  0
   -1.6622   -1.2694   -0.4854 C   0  0  0  0  0  0  0  0  0  0  0  0
   -0.7054   -1.0791   -1.4541 C   0  0  0  0  0  0  0  0  0  0  0  0
    2.1768   -2.2675    0.2790 C   0  0  0  0  0  0  0  0  0  0  0  0
    3.0555   -1.1401    0.3421 C   0  0  0  0  0  0  0  0  0  0  0  0
    2.6148    0.1161    0.6535 C   0  0  0  0  0  0  0  0  0  0  0  0
    3.4710    1.1908    0.7122 C   0  0  0  0  0  0  0  0  0  0  0  0
    4.8474    1.0695    0.4576 C   0  0  0  0  0  0  0  0  0  0  0  0
    5.6210    2.2379    0.5478 N   0  0  0  0  0  0  0  0  0  0  0  0
    7.0170    2.3266    0.3349 C   0  0  0  0  0  0  0  0  0  0  0  0
    7.6637    1.2972    0.0372 O   0  0  0  0  0  0  0  0  0  0  0  0
    7.6966    3.5984    0.4597 N   0  0  0  0  0  0  0  0  0  0  0  0
    9.1039    3.6469    0.2382 C   0  0  0  0  0  0  0  0  0  0  0  0
    6.9246    4.7585    0.8012 C   0  0  0  0  0  0  0  0  0  0  0  0
    5.2710   -0.1845    0.1495 C   0  0  0  0  0  0  0  0  0  0  0  0
    4.4058   -1.2703    0.0902 C   0  0  0  0  0  0  0  0  0  0  0  0
    2.2963   -3.3538    1.0930 N   0  0  0  0  0  0  0  0  0  0  0  0
    1.6008   -6.6771   -0.2905 H   0  0  0  0  0  0  0  0  0  0  0  0
    3.0000   -6.2858    0.7628 H   0  0  0  0  0  0  0  0  0  0  0  0
    1.7547   -7.5123    1.3431 H   0  0  0  0  0  0  0  0  0  0  0  0
    1.3884   -5.4355    2.5080 H   0  0  0  0  0  0  0  0  0  0  0  0
    0.0647   -5.7746    1.3437 H   0  0  0  0  0  0  0  0  0  0  0  0
   -0.2422   -4.2048   -0.6572 H   0  0  0  0  0  0  0  0  0  0  0  0
    2.3064   -1.5507   -2.8286 H   0  0  0  0  0  0  0  0  0  0  0  0
    1.3733   -0.0674   -4.5004 H   0  0  0  0  0  0  0  0  0  0  0  0
   -3.1284    0.6844   -2.5206 H   0  0  0  0  0  0  0  0  0  0  0  0
   -3.4382   -1.7367    1.4834 H   0  0  0  0  0  0  0  0  0  0  0  0
   -5.5767   -1.5532    2.6879 H   0  0  0  0  0  0  0  0  0  0  0  0
   -7.3908   -0.2027    1.8436 H   0  0  0  0  0  0  0  0  0  0  0  0
   -8.3677    0.7229   -0.0984 H   0  0  0  0  0  0  0  0  0  0  0  0
   -7.3883    1.2085   -1.5103 H   0  0  0  0  0  0  0  0  0  0  0  0
   -8.2121    4.3826   -0.5943 H   0  0  0  0  0  0  0  0  0  0  0  0
   -9.3924    3.3121    0.2097 H   0  0  0  0  0  0  0  0  0  0  0  0
   -8.7865    2.9324   -1.4686 H   0  0  0  0  0  0  0  0  0  0  0  0
   -7.5346    3.7444    1.8087 H   0  0  0  0  0  0  0  0  0  0  0  0
   -6.3393    2.4246    1.9286 H   0  0  0  0  0  0  0  0  0  0  0  0
   -8.1578    2.0670    1.9412 H   0  0  0  0  0  0  0  0  0  0  0  0
   -4.9723    0.8662   -1.5095 H   0  0  0  0  0  0  0  0  0  0  0  0
   -1.5166   -1.8890    0.3843 H   0  0  0  0  0  0  0  0  0  0  0  0
    1.5561    0.2405    0.8554 H   0  0  0  0  0  0  0  0  0  0  0  0
    3.0860    2.1772    0.9631 H   0  0  0  0  0  0  0  0  0  0  0  0
    5.1314    3.1522    0.7983 H   0  0  0  0  0  0  0  0  0  0  0  0
    9.4874    4.6866    0.2291 H   0  0  0  0  0  0  0  0  0  0  0  0
    9.5970    3.0296    1.0232 H   0  0  0  0  0  0  0  0  0  0  0  0
    9.4065    3.2018   -0.7385 H   0  0  0  0  0  0  0  0  0  0  0  0
    6.5195    4.7142    1.8433 H   0  0  0  0  0  0  0  0  0  0  0  0
    7.5060    5.6905    0.6441 H   0  0  0  0  0  0  0  0  0  0  0  0
    6.0144    4.8742    0.1516 H   0  0  0  0  0  0  0  0  0  0  0  0
    6.3050   -0.3590   -0.0579 H   0  0  0  0  0  0  0  0  0  0  0  0
    4.8455   -2.2295   -0.1646 H   0  0  0  0  0  0  0  0  0  0  0  0
  1  2  1  0
  2  3  1  0
  3  4  1  0
  4  5  2  0
  5  6  1  0
  6  7  2  0
  7  8  1  0
  8  9  2  0
  9 10  1  0
 10 11  1  0
 11 12  1  0
 12 13  1  0
 13 14  2  0
 14 15  1  0
 15 16  2  0
 16 17  1  0
 17 18  1  0
 18 19  1  0
 19 20  1  0
 19 21  1  0
 17 22  2  0
 12 23  2  0
 23 24  1  0
  5 25  1  0
 25 26  1  0
 26 27  2  0
 27 28  1  0
 28 29  2  0
 29 30  1  0
 30 31  1  0
 31 32  2  0
 31 33  1  0
 33 34  1  0
 33 35  1  0
 29 36  1  0
 36 37  2  0
 25 38  2  0
 38  3  1  0
 24  6  1  0
 37 26  1  0
 24 10  2  0
 22 13  1  0
  1 39  1  0
  1 40  1  0
  1 41  1  0
  2 42  1  0
  2 43  1  0
  4 44  1  0
  7 45  1  0
  8 46  1  0
 11 47  1  0
 14 48  1  0
 15 49  1  0
 16 50  1  0
 18 51  1  0
 18 52  1  0
 20 53  1  0
 20 54  1  0
 20 55  1  0
 21 56  1  0
 21 57  1  0
 21 58  1  0
 22 59  1  0
 23 60  1  0
 27 61  1  0
 28 62  1  0
 30 63  1  0
 34 64  1  0
 34 65  1  0
 34 66  1  0
 35 67  1  0
 35 68  1  0
 35 69  1  0
 36 70  1  0
 37 71  1  0
M  END
$$$$
