@<TRIPOS>MOLECULE
*****
 71 75 0 0 0
SMALL
GASTEIGER

@<TRIPOS>ATOM
      1 C           1.9234   -6.5967    0.7502 C.3     1  UNL1       -0.0455
      2 C           1.1452   -5.4874    1.4361 C.3     1  UNL1        0.0387
      3 N           1.3381   -4.2051    0.7769 N.ar    1  UNL1       -0.2705
      4 C           0.6031   -3.6875   -0.2259 C.ar    1  UNL1        0.0338
      5 C           1.1033   -2.4469   -0.5779 C.ar    1  UNL1        0.0282
      6 C           0.6019   -1.5731   -1.5971 C.ar    1  UNL1       -0.0022
      7 C           1.3096   -1.1825   -2.7065 C.ar    1  UNL1       -0.0351
      8 C           0.7471   -0.3405   -3.6324 C.ar    1  UNL1        0.0305
      9 N          -0.5001    0.1348   -3.5021 N.ar    1  UNL1       -0.2374
     10 C          -1.2110   -0.2367   -2.4204 C.ar    1  UNL1        0.1391
     11 N          -2.4754    0.0608   -2.0009 N.ar    1  UNL1       -0.3391
     12 C          -2.7563   -0.5529   -0.8422 C.ar    1  UNL1        0.0486
     13 C          -4.0466   -0.4276   -0.1361 C.ar    1  UNL1       -0.0013
     14 C          -4.2051   -1.1139    1.0455 C.ar    1  UNL1       -0.0526
     15 C          -5.4056   -1.0335    1.7569 C.ar    1  UNL1       -0.0608
     16 C          -6.4516   -0.2565    1.2734 C.ar    1  UNL1       -0.0573
     17 C          -6.2949    0.4315    0.0904 C.ar    1  UNL1       -0.0328
     18 C          -7.4229    1.2545   -0.4088 C.3     1  UNL1        0.0235
     19 N          -7.3801    2.6161    0.0801 N.3     1  UNL1       -0.3042
     20 C          -8.5129    3.3204   -0.4648 C.3     1  UNL1       -0.0127
     21 C          -7.3225    2.6802    1.5175 C.3     1  UNL1       -0.0127
     22 C          -5.0838    0.3317   -0.5981 C.ar    1  UNL1       -0.0482
     23 C          -1.6622   -1.2694   -0.4854 C.ar    1  UNL1       -0.0265
     24 C          -0.7054   -1.0791   -1.4541 C.ar    1  UNL1        0.0271
     25 C           2.1768   -2.2675    0.2790 C.ar    1  UNL1        0.1004
     26 C           3.0555   -1.1401    0.3421 C.ar    1  UNL1        0.0028
     27 C           2.6148    0.1161    0.6535 C.ar    1  UNL1       -0.0507
     28 C           3.4710    1.1908    0.7122 C.ar    1  UNL1       -0.0398
     29 C           4.8474    1.0695    0.4576 C.ar    1  UNL1        0.0348
     30 N           5.6210    2.2379    0.5478 N.am    1  UNL1       -0.2693
     31 C           7.0170    2.3266    0.3349 C.2     1  UNL1        0.3060
     32 O           7.6637    1.2972    0.0372 O.2     1  UNL1       -0.2523
     33 N           7.6966    3.5984    0.4597 N.am    1  UNL1       -0.2915
     34 C           9.1039    3.6469    0.2382 C.3     1  UNL1        0.0043
     35 C           6.9246    4.7585    0.8012 C.3     1  UNL1        0.0043
     36 C           5.2710   -0.1845    0.1495 C.ar    1  UNL1       -0.0398
     37 C           4.4058   -1.2703    0.0902 C.ar    1  UNL1       -0.0507
     38 N           2.2963   -3.3538    1.0930 N.ar    1  UNL1       -0.1706
     39 H           1.6008   -6.6771   -0.2905 H       1  UNL1        0.0247
     40 H           3.0000   -6.2858    0.7628 H       1  UNL1        0.0247
     41 H           1.7547   -7.5123    1.3431 H       1  UNL1        0.0247
     42 H           1.3884   -5.4355    2.5080 H       1  UNL1        0.0506
     43 H           0.0647   -5.7746    1.3437 H       1  UNL1        0.0506
     44 H          -0.2422   -4.2048   -0.6572 H       1  UNL1        0.0832
     45 H           2.3064   -1.5507   -2.8286 H       1  UNL1        0.0639
     46 H           1.3733   -0.0674   -4.5004 H       1  UNL1        0.0830
     47 H          -3.1284    0.6844   -2.5206 H       1  UNL1        0.1673
     48 H          -3.4382   -1.7367    1.4834 H       1  UNL1        0.0624
     49 H          -5.5767   -1.5532    2.6879 H       1  UNL1        0.0618
     50 H          -7.3908   -0.2027    1.8436 H       1  UNL1        0.0621
     51 H          -8.3677    0.7229   -0.0984 H       1  UNL1        0.0475
     52 H          -7.3883    1.2085   -1.5103 H       1  UNL1        0.0475
     53 H          -8.2121    4.3826   -0.5943 H       1  UNL1        0.0391
     54 H          -9.3924    3.3121    0.2097 H       1  UNL1        0.0391
     55 H          -8.7865    2.9324   -1.4686 H       1  UNL1        0.0391
     56 H          -7.5346    3.7444    1.8087 H       1  UNL1        0.0391
     57 H          -6.3393    2.4246    1.9286 H       1  UNL1        0.0391
     58 H          -8.1578    2.0670    1.9412 H       1  UNL1        0.0391
     59 H          -4.9723    0.8662   -1.5095 H       1  UNL1        0.0627
     60 H          -1.5166   -1.8890    0.3843 H       1  UNL1        0.0645
     61 H           1.5561    0.2405    0.8554 H       1  UNL1        0.0625
     62 H           3.0860    2.1772    0.9631 H       1  UNL1        0.0636
     63 H           5.1314    3.1522    0.7983 H       1  UNL1        0.1564
     64 H           9.4874    4.6866    0.2291 H       1  UNL1        0.0429
     65 H           9.5970    3.0296    1.0232 H       1  UNL1        0.0429
     66 H           9.4065    3.2018   -0.7385 H       1  UNL1        0.0429
     67 H           6.5195    4.7142    1.8433 H       1  UNL1        0.0429
     68 H           7.5060    5.6905    0.6441 H       1  UNL1        0.0429
     69 H           6.0144    4.8742    0.1516 H       1  UNL1        0.0429
     70 H           6.3050   -0.3590   -0.0579 H       1  UNL1        0.0636
     71 H           4.8455   -2.2295   -0.1646 H       1  UNL1        0.0625
@<TRIPOS>BOND
     1     1     2    1
     2     2     3    1
     3     3     4   ar
     4     4     5   ar
     5     5     6    1
     6     6     7   ar
     7     7     8   ar
     8     8     9   ar
     9     9    10   ar
    10    10    11   ar
    11    11    12   ar
    12    12    13    1
    13    13    14   ar
    14    14    15   ar
    15    15    16   ar
    16    16    17   ar
    17    17    18    1
    18    18    19    1
    19    19    20    1
    20    19    21    1
    21    17    22   ar
    22    12    23   ar
    23    23    24   ar
    24     5    25   ar
    25    25    26    1
    26    26    27   ar
    27    27    28   ar
    28    28    29   ar
    29    29    30    1
    30    30    31   am
    31    31    32    2
    32    31    33   am
    33    33    34    1
    34    33    35    1
    35    29    36   ar
    36    36    37   ar
    37    25    38   ar
    38    38     3   ar
    39    24     6   ar
    40    37    26   ar
    41    24    10   ar
    42    22    13   ar
    43     1    39    1
    44     1    40    1
    45     1    41    1
    46     2    42    1
    47     2    43    1
    48     4    44    1
    49     7    45    1
    50     8    46    1
    51    11    47    1
    52    14    48    1
    53    15    49    1
    54    16    50    1
    55    18    51    1
    56    18    52    1
    57    20    53    1
    58    20    54    1
    59    20    55    1
    60    21    56    1
    61    21    57    1
    62    21    58    1
    63    22    59    1
    64    23    60    1
    65    27    61    1
    66    28    62    1
    67    30    63    1
    68    34    64    1
    69    34    65    1
    70    34    66    1
    71    35    67    1
    72    35    68    1
    73    35    69    1
    74    36    70    1
    75    37    71    1
