@<TRIPOS>MOLECULE
*****
 42 45 0 0 0
SMALL
GASTEIGER

@<TRIPOS>ATOM
      1 C           6.3159    0.5042   -0.0789 C.3     1  UNL1       -0.0191
      2 C           4.8646    0.7019    0.1570 C.ar    1  UNL1        0.0809
      3 C           3.8454   -0.1992    0.2648 C.ar    1  UNL1        0.0058
      4 C           2.7036    0.5059    0.4809 C.ar    1  UNL1        0.1660
      5 C           1.3462   -0.0023    0.6630 C.3     1  UNL1        0.1192
      6 C           0.2985    1.0905    0.5456 C.3     1  UNL1       -0.0132
      7 C          -0.5706    0.8877   -0.7141 C.3     1  UNL1        0.0028
      8 C           0.3641    0.8842   -1.8701 C.3     1  UNL1        0.0064
      9 S           0.1230   -0.5052   -3.0085 S.3     1  UNL1       -0.0907
     10 C          -1.5545   -1.0722   -2.7827 C.2     1  UNL1        0.1476
     11 N          -2.3397   -1.6629   -3.7976 N.pl3   1  UNL1       -0.3380
     12 N          -2.0365   -0.9148   -1.6144 N.2     1  UNL1       -0.2495
     13 C          -1.3634   -0.3331   -0.4816 C.3     1  UNL1        0.1185
     14 C          -2.4241   -0.1846    0.5448 C.ar    1  UNL1        0.0178
     15 C          -2.8197    1.0122    1.0810 C.ar    1  UNL1       -0.0507
     16 C          -3.8219    1.1205    2.0300 C.ar    1  UNL1       -0.0259
     17 C          -4.4712    0.0067    2.4788 C.ar    1  UNL1        0.1261
     18 F          -5.4727    0.0883    3.4236 F       1  UNL1       -0.2054
     19 C          -4.0936   -1.2113    1.9559 C.ar    1  UNL1        0.0091
     20 C          -3.0902   -1.3090    1.0074 C.ar    1  UNL1        0.1317
     21 F          -2.8041   -2.5598    0.5651 F       1  UNL1       -0.2050
     22 C          -0.3472   -1.3520    0.0974 C.3     1  UNL1        0.0783
     23 O           0.9650   -0.9910   -0.2353 O.3     1  UNL1       -0.3661
     24 O           3.0171    1.7878    0.5036 O.2     1  UNL1       -0.3567
     25 N           4.3050    1.9149    0.3111 N.ar    1  UNL1       -0.0832
     26 H           6.9099    1.0258    0.7012 H       1  UNL1        0.0294
     27 H           6.5989   -0.5559   -0.1292 H       1  UNL1        0.0294
     28 H           6.5462    1.0469   -1.0388 H       1  UNL1        0.0294
     29 H           3.9749   -1.2897    0.1841 H       1  UNL1        0.0672
     30 H           1.3246   -0.4899    1.6818 H       1  UNL1        0.0678
     31 H          -0.3253    1.0034    1.4541 H       1  UNL1        0.0298
     32 H           0.8088    2.0590    0.4436 H       1  UNL1        0.0298
     33 H          -1.1552    1.8364   -0.7909 H       1  UNL1        0.0337
     34 H           1.4301    0.8665   -1.5719 H       1  UNL1        0.0384
     35 H           0.2718    1.8106   -2.5111 H       1  UNL1        0.0384
     36 H          -3.0287   -1.1129   -4.3520 H       1  UNL1        0.1442
     37 H          -2.2531   -2.6758   -4.0248 H       1  UNL1        0.1442
     38 H          -2.3782    1.9313    0.7882 H       1  UNL1        0.0623
     39 H          -4.1138    2.0780    2.4365 H       1  UNL1        0.0646
     40 H          -4.6289   -2.0895    2.3313 H       1  UNL1        0.0675
     41 H          -0.3990   -1.3042    1.2026 H       1  UNL1        0.0588
     42 H          -0.5219   -2.3474   -0.3224 H       1  UNL1        0.0588
@<TRIPOS>BOND
     1     1     2    1
     2     2     3   ar
     3     3     4   ar
     4     4     5    1
     5     5     6    1
     6     6     7    1
     7     7     8    1
     8     8     9    1
     9     9    10    1
    10    10    11    1
    11    10    12    2
    12    12    13    1
    13    13    14    1
    14    14    15   ar
    15    15    16   ar
    16    16    17   ar
    17    17    18    1
    18    17    19   ar
    19    19    20   ar
    20    20    21    1
    21    13    22    1
    22    22    23    1
    23     4    24   ar
    24    24    25   ar
    25    25     2   ar
    26    23     5    1
    27    13     7    1
    28    20    14   ar
    29     1    26    1
    30     1    27    1
    31     1    28    1
    32     3    29    1
    33     5    30    1
    34     6    31    1
    35     6    32    1
    36     7    33    1
    37     8    34    1
    38     8    35    1
    39    11    36    1
    40    11    37    1
    41    15    38    1
    42    16    39    1
    43    19    40    1
    44    22    41    1
    45    22    42    1
