
     RDKit          3D

 46 48  0  0  0  0  0  0  0  0999 V2000
    3.1257    1.6474    0.8033 C   0  0  0  0  0  0  0  0  0  0  0  0
    4.0227    0.8542    0.7760 C   0  0  0  0  0  0  0  0  0  0  0  0
    5.1318   -0.0945    0.7339 C   0  0  0  0  0  0  0  0  0  0  0  0
    4.7903   -1.4241    1.0971 N   0  0  0  0  0  0  0  0  0  0  0  0
    6.0488   -2.2151    1.2786 C   0  0  0  0  0  0  0  0  0  0  0  0
    3.9710   -2.1397    0.1634 C   0  0  0  0  0  0  0  0  0  0  0  0
    2.6977   -1.4703   -0.0979 C   0  0  0  0  0  0  0  0  0  0  0  0
    1.5524   -1.5506    0.7150 C   0  0  0  0  0  0  0  0  0  0  0  0
    0.5573   -0.8320    0.1020 C   0  0  0  0  0  0  0  0  0  0  0  0
   -0.7461   -0.5815    0.4452 C   0  0  0  0  0  0  0  0  0  0  0  0
   -1.5813    0.1818   -0.3481 C   0  0  0  0  0  0  0  0  0  0  0  0
   -2.8907    0.4393   -0.0142 O   0  0  0  0  0  0  0  0  0  0  0  0
   -3.7570    1.2109   -0.8150 C   0  0  0  0  0  0  0  0  0  0  0  0
   -5.1177    1.3067   -0.1824 C   0  0  0  0  0  0  0  0  0  0  0  0
   -6.0076    0.2935   -0.4963 C   0  0  0  0  0  0  0  0  0  0  0  0
   -7.2663    0.3615    0.0724 C   0  0  0  0  0  0  0  0  0  0  0  0
   -7.6350    1.3995    0.9261 C   0  0  0  0  0  0  0  0  0  0  0  0
   -6.7241    2.3893    1.2155 C   0  0  0  0  0  0  0  0  0  0  0  0
   -5.4621    2.3400    0.6579 C   0  0  0  0  0  0  0  0  0  0  0  0
   -1.0686    0.7032   -1.5236 C   0  0  0  0  0  0  0  0  0  0  0  0
    0.2373    0.4532   -1.8687 C   0  0  0  0  0  0  0  0  0  0  0  0
    1.0647   -0.3233   -1.0499 C   0  0  0  0  0  0  0  0  0  0  0  0
    2.3567   -0.7140   -1.1615 N   0  0  0  0  0  0  0  0  0  0  0  0
    3.1984   -0.3416   -2.2840 C   0  0  0  0  0  0  0  0  0  0  0  0
    2.3421    2.3439    0.8320 H   0  0  0  0  0  0  0  0  0  0  0  0
    5.9557    0.3000    1.3752 H   0  0  0  0  0  0  0  0  0  0  0  0
    5.5427   -0.0703   -0.3210 H   0  0  0  0  0  0  0  0  0  0  0  0
    6.1780   -2.9379    0.4735 H   0  0  0  0  0  0  0  0  0  0  0  0
    5.9098   -2.7571    2.2312 H   0  0  0  0  0  0  0  0  0  0  0  0
    6.9134   -1.5638    1.3649 H   0  0  0  0  0  0  0  0  0  0  0  0
    3.8417   -3.2101    0.4588 H   0  0  0  0  0  0  0  0  0  0  0  0
    4.5722   -2.1889   -0.7943 H   0  0  0  0  0  0  0  0  0  0  0  0
    1.5163   -2.0937    1.6443 H   0  0  0  0  0  0  0  0  0  0  0  0
   -1.1325   -0.9978    1.3725 H   0  0  0  0  0  0  0  0  0  0  0  0
   -3.3181    2.2390   -0.8930 H   0  0  0  0  0  0  0  0  0  0  0  0
   -3.8206    0.7986   -1.8285 H   0  0  0  0  0  0  0  0  0  0  0  0
   -5.7434   -0.5232   -1.1554 H   0  0  0  0  0  0  0  0  0  0  0  0
   -7.9966   -0.4176   -0.1471 H   0  0  0  0  0  0  0  0  0  0  0  0
   -8.6399    1.3977    1.3417 H   0  0  0  0  0  0  0  0  0  0  0  0
   -7.0052    3.2106    1.8862 H   0  0  0  0  0  0  0  0  0  0  0  0
   -4.7711    3.1272    0.9014 H   0  0  0  0  0  0  0  0  0  0  0  0
   -1.7444    1.3047   -2.1374 H   0  0  0  0  0  0  0  0  0  0  0  0
    0.6509    0.8510   -2.7780 H   0  0  0  0  0  0  0  0  0  0  0  0
    2.7266   -0.6749   -3.2297 H   0  0  0  0  0  0  0  0  0  0  0  0
    3.3255    0.7629   -2.2479 H   0  0  0  0  0  0  0  0  0  0  0  0
    4.1986   -0.7943   -2.1817 H   0  0  0  0  0  0  0  0  0  0  0  0
  1  2  3  0
  2  3  1  0
  3  4  1  0
  4  5  1  0
  4  6  1  0
  6  7  1  0
  7  8  2  0
  8  9  1  0
  9 10  2  0
 10 11  1  0
 11 12  1  0
 12 13  1  0
 13 14  1  0
 14 15  2  0
 15 16  1  0
 16 17  2  0
 17 18  1  0
 18 19  2  0
 11 20  2  0
 20 21  1  0
 21 22  2  0
 22 23  1  0
 23 24  1  0
 23  7  1  0
 22  9  1  0
 19 14  1  0
  1 25  1  0
  3 26  1  0
  3 27  1  0
  5 28  1  0
  5 29  1  0
  5 30  1  0
  6 31  1  0
  6 32  1  0
  8 33  1  0
 10 34  1  0
 13 35  1  0
 13 36  1  0
 15 37  1  0
 16 38  1  0
 17 39  1  0
 18 40  1  0
 19 41  1  0
 20 42  1  0
 21 43  1  0
 24 44  1  0
 24 45  1  0
 24 46  1  0
M  END
$$$$
