@<TRIPOS>MOLECULE
*****
 46 48 0 0 0
SMALL
GASTEIGER

@<TRIPOS>ATOM
      1 C           3.1257    1.6474    0.8033 C.1     1  UNL1       -0.1179
      2 C           4.0227    0.8542    0.7760 C.1     1  UNL1       -0.0900
      3 C           5.1318   -0.0945    0.7339 C.3     1  UNL1        0.0607
      4 N           4.7903   -1.4241    1.0971 N.3     1  UNL1       -0.2890
      5 C           6.0488   -2.2151    1.2786 C.3     1  UNL1       -0.0115
      6 C           3.9710   -2.1397    0.1634 C.3     1  UNL1        0.0399
      7 C           2.6977   -1.4703   -0.0979 C.ar    1  UNL1        0.0336
      8 C           1.5524   -1.5506    0.7150 C.ar    1  UNL1       -0.0318
      9 C           0.5573   -0.8320    0.1020 C.ar    1  UNL1        0.0036
     10 C          -0.7461   -0.5815    0.4452 C.ar    1  UNL1       -0.0108
     11 C          -1.5813    0.1818   -0.3481 C.ar    1  UNL1        0.1217
     12 O          -2.8907    0.4393   -0.0142 O.3     1  UNL1       -0.4874
     13 C          -3.7570    1.2109   -0.8150 C.3     1  UNL1        0.1146
     14 C          -5.1177    1.3067   -0.1824 C.ar    1  UNL1       -0.0104
     15 C          -6.0076    0.2935   -0.4963 C.ar    1  UNL1       -0.0554
     16 C          -7.2663    0.3615    0.0724 C.ar    1  UNL1       -0.0614
     17 C          -7.6350    1.3995    0.9261 C.ar    1  UNL1       -0.0617
     18 C          -6.7241    2.3893    1.2155 C.ar    1  UNL1       -0.0614
     19 C          -5.4621    2.3400    0.6579 C.ar    1  UNL1       -0.0554
     20 C          -1.0686    0.7032   -1.5236 C.ar    1  UNL1       -0.0179
     21 C           0.2373    0.4532   -1.8687 C.ar    1  UNL1       -0.0342
     22 C           1.0647   -0.3233   -1.0499 C.ar    1  UNL1        0.0493
     23 N           2.3567   -0.7140   -1.1615 N.ar    1  UNL1       -0.3457
     24 C           3.1984   -0.3416   -2.2840 C.3     1  UNL1        0.0122
     25 H           2.3421    2.3439    0.8320 H       1  UNL1        0.1228
     26 H           5.9557    0.3000    1.3752 H       1  UNL1        0.0563
     27 H           5.5427   -0.0703   -0.3210 H       1  UNL1        0.0563
     28 H           6.1780   -2.9379    0.4735 H       1  UNL1        0.0391
     29 H           5.9098   -2.7571    2.2312 H       1  UNL1        0.0391
     30 H           6.9134   -1.5638    1.3649 H       1  UNL1        0.0391
     31 H           3.8417   -3.2101    0.4588 H       1  UNL1        0.0490
     32 H           4.5722   -2.1889   -0.7943 H       1  UNL1        0.0490
     33 H           1.5163   -2.0937    1.6443 H       1  UNL1        0.0642
     34 H          -1.1325   -0.9978    1.3725 H       1  UNL1        0.0661
     35 H          -3.3181    2.2390   -0.8930 H       1  UNL1        0.0748
     36 H          -3.8206    0.7986   -1.8285 H       1  UNL1        0.0748
     37 H          -5.7434   -0.5232   -1.1554 H       1  UNL1        0.0621
     38 H          -7.9966   -0.4176   -0.1471 H       1  UNL1        0.0618
     39 H          -8.6399    1.3977    1.3417 H       1  UNL1        0.0618
     40 H          -7.0052    3.2106    1.8862 H       1  UNL1        0.0618
     41 H          -4.7711    3.1272    0.9014 H       1  UNL1        0.0621
     42 H          -1.7444    1.3047   -2.1374 H       1  UNL1        0.0655
     43 H           0.6509    0.8510   -2.7780 H       1  UNL1        0.0639
     44 H           2.7266   -0.6749   -3.2297 H       1  UNL1        0.0456
     45 H           3.3255    0.7629   -2.2479 H       1  UNL1        0.0456
     46 H           4.1986   -0.7943   -2.1817 H       1  UNL1        0.0456
@<TRIPOS>BOND
     1     1     2    3
     2     2     3    1
     3     3     4    1
     4     4     5    1
     5     4     6    1
     6     6     7    1
     7     7     8   ar
     8     8     9   ar
     9     9    10   ar
    10    10    11   ar
    11    11    12    1
    12    12    13    1
    13    13    14    1
    14    14    15   ar
    15    15    16   ar
    16    16    17   ar
    17    17    18   ar
    18    18    19   ar
    19    11    20   ar
    20    20    21   ar
    21    21    22   ar
    22    22    23   ar
    23    23    24    1
    24    23     7   ar
    25    22     9   ar
    26    19    14   ar
    27     1    25    1
    28     3    26    1
    29     3    27    1
    30     5    28    1
    31     5    29    1
    32     5    30    1
    33     6    31    1
    34     6    32    1
    35     8    33    1
    36    10    34    1
    37    13    35    1
    38    13    36    1
    39    15    37    1
    40    16    38    1
    41    17    39    1
    42    18    40    1
    43    19    41    1
    44    20    42    1
    45    21    43    1
    46    24    44    1
    47    24    45    1
    48    24    46    1
