
     RDKit          3D

 29 30  0  0  0  0  0  0  0  0999 V2000
   -3.9321   -0.0425    1.0575 C   0  0  0  0  0  0  0  0  0  0  0  0
   -3.5939    0.7281   -0.1821 C   0  0  0  0  0  0  0  0  0  0  0  0
   -2.3606    0.3800   -0.7691 O   0  0  0  0  0  0  0  0  0  0  0  0
   -1.1799    0.5425   -0.0591 C   0  0  0  0  0  0  0  0  0  0  0  0
   -1.1363    1.0497    1.2306 C   0  0  0  0  0  0  0  0  0  0  0  0
    0.0757    1.1833    1.8737 C   0  0  0  0  0  0  0  0  0  0  0  0
    1.2580    0.8209    1.2571 C   0  0  0  0  0  0  0  0  0  0  0  0
    2.9351    1.0016    2.1451 Br  0  0  0  0  0  0  0  0  0  0  0  0
    1.2692    0.3078   -0.0358 C   0  0  0  0  0  0  0  0  0  0  0  0
    0.0371    0.1931   -0.6340 C   0  0  0  0  0  0  0  0  0  0  0  0
    0.3677   -0.4211   -2.0546 B   0  0  0  0  0  0  0  0  0  0  0  0
   -0.6426   -0.7831   -3.0342 O   0  0  0  0  0  0  0  0  0  0  0  0
    1.6563   -1.1166   -1.7796 O   0  0  0  0  0  0  0  0  0  0  0  0
    2.2724   -0.1517   -0.9879 C   0  0  2  0  0  0  0  0  0  0  0  0
    3.5843   -0.5751   -0.4417 C   0  0  0  0  0  0  0  0  0  0  0  0
    3.5220   -1.7342    0.4046 N   0  0  0  0  0  0  0  0  0  0  0  0
   -4.8404   -0.6672    0.7929 H   0  0  0  0  0  0  0  0  0  0  0  0
   -3.1309   -0.7366    1.3943 H   0  0  0  0  0  0  0  0  0  0  0  0
   -4.3025    0.6216    1.8644 H   0  0  0  0  0  0  0  0  0  0  0  0
   -4.4197    0.6816   -0.9533 H   0  0  0  0  0  0  0  0  0  0  0  0
   -3.6031    1.8230    0.1067 H   0  0  0  0  0  0  0  0  0  0  0  0
   -2.0352    1.3489    1.7427 H   0  0  0  0  0  0  0  0  0  0  0  0
    0.1176    1.5790    2.8834 H   0  0  0  0  0  0  0  0  0  0  0  0
   -0.5150   -1.7265   -3.3695 H   0  0  0  0  0  0  0  0  0  0  0  0
    2.4753    0.7118   -1.6878 H   0  0  0  0  0  0  0  0  0  0  0  0
    4.1201    0.2849   -0.0390 H   0  0  0  0  0  0  0  0  0  0  0  0
    4.1998   -0.8880   -1.3427 H   0  0  0  0  0  0  0  0  0  0  0  0
    3.3532   -2.5633   -0.2412 H   0  0  0  0  0  0  0  0  0  0  0  0
    4.4485   -1.8519    0.8588 H   0  0  0  0  0  0  0  0  0  0  0  0
  1  2  1  0
  2  3  1  0
  3  4  1  0
  4  5  2  0
  5  6  1  0
  6  7  2  0
  7  8  1  0
  7  9  1  0
  9 10  2  0
 10 11  1  0
 11 12  1  0
 11 13  1  0
 13 14  1  0
 14 15  1  0
 15 16  1  0
 10  4  1  0
 14  9  1  0
  1 17  1  0
  1 18  1  0
  1 19  1  0
  2 20  1  0
  2 21  1  0
  5 22  1  0
  6 23  1  0
 12 24  1  0
 14 25  1  6
 15 26  1  0
 15 27  1  0
 16 28  1  0
 16 29  1  0
M  END
$$$$
