@<TRIPOS>MOLECULE
*****
 29 30 0 0 0
SMALL
GASTEIGER

@<TRIPOS>ATOM
      1 C          -3.9321   -0.0425    1.0575 C.3     1  UNL1        0.0000
      2 C          -3.5939    0.7281   -0.1821 C.3     1  UNL1        0.0000
      3 O          -2.3606    0.3800   -0.7691 O.3     1  UNL1        0.0000
      4 C          -1.1799    0.5425   -0.0591 C.ar    1  UNL1        0.0000
      5 C          -1.1363    1.0497    1.2306 C.ar    1  UNL1        0.0000
      6 C           0.0757    1.1833    1.8737 C.ar    1  UNL1        0.0000
      7 C           1.2580    0.8209    1.2571 C.ar    1  UNL1        0.0000
      8 BR          2.9351    1.0016    2.1451 Br      1  UNL1        0.0000
      9 C           1.2692    0.3078   -0.0358 C.ar    1  UNL1        0.0000
     10 C           0.0371    0.1931   -0.6340 C.ar    1  UNL1        0.0000
     11 B           0.3677   -0.4211   -2.0546 B       1  UNL1        0.0000
     12 O          -0.6426   -0.7831   -3.0342 O.3     1  UNL1        0.0000
     13 O           1.6563   -1.1166   -1.7796 O.3     1  UNL1        0.0000
     14 C           2.2724   -0.1517   -0.9879 C.3     1  UNL1        0.0000
     15 C           3.5843   -0.5751   -0.4417 C.3     1  UNL1        0.0000
     16 N           3.5220   -1.7342    0.4046 N.3     1  UNL1        0.0000
     17 H          -4.8404   -0.6672    0.7929 H       1  UNL1        0.0000
     18 H          -3.1309   -0.7366    1.3943 H       1  UNL1        0.0000
     19 H          -4.3025    0.6216    1.8644 H       1  UNL1        0.0000
     20 H          -4.4197    0.6816   -0.9533 H       1  UNL1        0.0000
     21 H          -3.6031    1.8230    0.1067 H       1  UNL1        0.0000
     22 H          -2.0352    1.3489    1.7427 H       1  UNL1        0.0000
     23 H           0.1176    1.5790    2.8834 H       1  UNL1        0.0000
     24 H          -0.5150   -1.7265   -3.3695 H       1  UNL1        0.0000
     25 H           2.4753    0.7118   -1.6878 H       1  UNL1        0.0000
     26 H           4.1201    0.2849   -0.0390 H       1  UNL1        0.0000
     27 H           4.1998   -0.8880   -1.3427 H       1  UNL1        0.0000
     28 H           3.3532   -2.5633   -0.2412 H       1  UNL1        0.0000
     29 H           4.4485   -1.8519    0.8588 H       1  UNL1        0.0000
@<TRIPOS>BOND
     1     1     2    1
     2     2     3    1
     3     3     4    1
     4     4     5   ar
     5     5     6   ar
     6     6     7   ar
     7     7     8    1
     8     7     9   ar
     9     9    10   ar
    10    10    11    1
    11    11    12    1
    12    11    13    1
    13    13    14    1
    14    14    15    1
    15    15    16    1
    16    10     4   ar
    17    14     9    1
    18     1    17    1
    19     1    18    1
    20     1    19    1
    21     2    20    1
    22     2    21    1
    23     5    22    1
    24     6    23    1
    25    12    24    1
    26    14    25    1
    27    15    26    1
    28    15    27    1
    29    16    28    1
    30    16    29    1
