@<TRIPOS>MOLECULE
*****
 52 54 0 0 0
SMALL
GASTEIGER

@<TRIPOS>ATOM
      1 C           6.7774   -0.8855    0.9916 C.3     1  UNL1       -0.0652
      2 C           6.3545   -2.0354    0.1356 C.3     1  UNL1       -0.0545
      3 C           5.9431   -1.5938   -1.2483 C.3     1  UNL1       -0.0376
      4 C           4.7970   -0.6388   -1.2331 C.3     1  UNL1        0.0118
      5 N           3.6117   -1.1685   -0.6364 N.pl3   1  UNL1       -0.3134
      6 C           2.4125   -0.4104   -0.5274 C.ar    1  UNL1        0.2169
      7 N           2.4183    0.8445   -1.0088 N.ar    1  UNL1       -0.2221
      8 C           1.3186    1.5620   -0.9125 C.ar    1  UNL1        0.0442
      9 C           0.1459    1.0400   -0.3185 C.ar    1  UNL1        0.0650
     10 C          -0.9034    2.0974   -0.0854 C.ar    1  UNL1        0.1136
     11 N          -1.0494    3.2205   -0.4642 N.ar    1  UNL1       -0.2349
     12 C          -1.9276    4.0999   -0.0853 C.ar    1  UNL1        0.1513
     13 C          -2.0611    5.5294   -0.6198 C.3     1  UNL1        0.4347
     14 F          -1.5125    5.6027   -1.8833 F       1  UNL1       -0.1644
     15 F          -1.3455    6.3927    0.1858 F       1  UNL1       -0.1644
     16 F          -3.3772    5.8727   -0.7004 F       1  UNL1       -0.1644
     17 C          -2.8109    3.6800    0.8860 C.ar    1  UNL1        0.0077
     18 S          -2.2389    1.9512    1.1622 S.2     1  UNL1       -0.0749
     19 C           0.1142   -0.1912    0.1532 C.ar    1  UNL1        0.1338
     20 N          -0.9795   -0.9394    0.5481 N.pl3   1  UNL1       -0.3255
     21 C          -2.3792   -0.9439    0.4918 C.3     1  UNL1        0.0221
     22 C          -3.0063   -0.6504   -0.8458 C.3     1  UNL1       -0.0322
     23 C          -4.4941   -0.4270   -0.5979 C.3     1  UNL1       -0.0252
     24 C          -5.1483   -1.6599   -0.0267 C.3     1  UNL1        0.0554
     25 O          -6.3251   -1.2146    0.6198 O.3     1  UNL1       -0.3918
     26 C          -4.3179   -2.3480    0.9987 C.3     1  UNL1       -0.0252
     27 C          -2.8677   -2.4545    0.7112 C.3     1  UNL1       -0.0322
     28 N           1.3212   -0.8995    0.0224 N.ar    1  UNL1       -0.1991
     29 H           7.6982   -1.1736    1.5488 H       1  UNL1        0.0230
     30 H           6.0124   -0.6497    1.7857 H       1  UNL1        0.0230
     31 H           6.9956    0.0399    0.4527 H       1  UNL1        0.0230
     32 H           5.4741   -2.5637    0.5855 H       1  UNL1        0.0263
     33 H           7.1930   -2.7541    0.0150 H       1  UNL1        0.0263
     34 H           5.7009   -2.4553   -1.8696 H       1  UNL1        0.0280
     35 H           6.8283   -1.0330   -1.6693 H       1  UNL1        0.0280
     36 H           4.5553   -0.3902   -2.2928 H       1  UNL1        0.0462
     37 H           5.0785    0.3509   -0.7713 H       1  UNL1        0.0462
     38 H           3.6156   -2.1379   -0.2673 H       1  UNL1        0.1489
     39 H           1.2779    2.5550   -1.2797 H       1  UNL1        0.0838
     40 H          -3.6393    4.1357    1.4128 H       1  UNL1        0.0715
     41 H          -0.6288   -1.8180    1.1581 H       1  UNL1        0.1478
     42 H          -2.9169   -0.4716    1.2968 H       1  UNL1        0.0498
     43 H          -2.8809   -1.5635   -1.4867 H       1  UNL1        0.0284
     44 H          -2.6566    0.2535   -1.3440 H       1  UNL1        0.0284
     45 H          -5.0289   -0.1420   -1.5205 H       1  UNL1        0.0291
     46 H          -4.5797    0.3882    0.1394 H       1  UNL1        0.0291
     47 H          -5.4956   -2.3055   -0.8524 H       1  UNL1        0.0593
     48 H          -6.8487   -0.6122    0.0543 H       1  UNL1        0.2098
     49 H          -4.7141   -3.4036    1.0800 H       1  UNL1        0.0291
     50 H          -4.4975   -1.8948    1.9968 H       1  UNL1        0.0291
     51 H          -2.6732   -2.9264   -0.2564 H       1  UNL1        0.0284
     52 H          -2.3392   -2.8603    1.5698 H       1  UNL1        0.0284
@<TRIPOS>BOND
     1     1     2    1
     2     2     3    1
     3     3     4    1
     4     4     5    1
     5     5     6    1
     6     6     7   ar
     7     7     8   ar
     8     8     9   ar
     9     9    10    1
    10    10    11   ar
    11    11    12   ar
    12    12    13    1
    13    13    14    1
    14    13    15    1
    15    13    16    1
    16    12    17   ar
    17    17    18   ar
    18     9    19   ar
    19    19    20    1
    20    20    21    1
    21    21    22    1
    22    22    23    1
    23    23    24    1
    24    24    25    1
    25    24    26    1
    26    26    27    1
    27    19    28   ar
    28    28     6   ar
    29    18    10   ar
    30    27    21    1
    31     1    29    1
    32     1    30    1
    33     1    31    1
    34     2    32    1
    35     2    33    1
    36     3    34    1
    37     3    35    1
    38     4    36    1
    39     4    37    1
    40     5    38    1
    41     8    39    1
    42    17    40    1
    43    20    41    1
    44    21    42    1
    45    22    43    1
    46    22    44    1
    47    23    45    1
    48    23    46    1
    49    24    47    1
    50    25    48    1
    51    26    49    1
    52    26    50    1
    53    27    51    1
    54    27    52    1
