
     RDKit          3D

 52 54  0  0  0  0  0  0  0  0999 V2000
    6.7774   -0.8855    0.9916 C   0  0  0  0  0  0  0  0  0  0  0  0
    6.3545   -2.0354    0.1356 C   0  0  0  0  0  0  0  0  0  0  0  0
    5.9431   -1.5938   -1.2483 C   0  0  0  0  0  0  0  0  0  0  0  0
    4.7970   -0.6388   -1.2331 C   0  0  0  0  0  0  0  0  0  0  0  0
    3.6117   -1.1685   -0.6364 N   0  0  0  0  0  0  0  0  0  0  0  0
    2.4125   -0.4104   -0.5274 C   0  0  0  0  0  0  0  0  0  0  0  0
    2.4183    0.8445   -1.0088 N   0  0  0  0  0  0  0  0  0  0  0  0
    1.3186    1.5620   -0.9125 C   0  0  0  0  0  0  0  0  0  0  0  0
    0.1459    1.0400   -0.3185 C   0  0  0  0  0  0  0  0  0  0  0  0
   -0.9034    2.0974   -0.0854 C   0  0  0  0  0  0  0  0  0  0  0  0
   -1.0494    3.2205   -0.4642 N   0  0  0  0  0  0  0  0  0  0  0  0
   -1.9276    4.0999   -0.0853 C   0  0  0  0  0  0  0  0  0  0  0  0
   -2.0611    5.5294   -0.6198 C   0  0  0  0  0  0  0  0  0  0  0  0
   -1.5125    5.6027   -1.8833 F   0  0  0  0  0  0  0  0  0  0  0  0
   -1.3455    6.3927    0.1858 F   0  0  0  0  0  0  0  0  0  0  0  0
   -3.3772    5.8727   -0.7004 F   0  0  0  0  0  0  0  0  0  0  0  0
   -2.8109    3.6800    0.8860 C   0  0  0  0  0  0  0  0  0  0  0  0
   -2.2389    1.9512    1.1622 S   0  0  0  0  0  0  0  0  0  0  0  0
    0.1142   -0.1912    0.1532 C   0  0  0  0  0  0  0  0  0  0  0  0
   -0.9795   -0.9394    0.5481 N   0  0  0  0  0  0  0  0  0  0  0  0
   -2.3792   -0.9439    0.4918 C   0  0  1  0  0  0  0  0  0  0  0  0
   -3.0063   -0.6504   -0.8458 C   0  0  0  0  0  0  0  0  0  0  0  0
   -4.4941   -0.4270   -0.5979 C   0  0  0  0  0  0  0  0  0  0  0  0
   -5.1483   -1.6599   -0.0267 C   0  0  2  0  0  0  0  0  0  0  0  0
   -6.3251   -1.2146    0.6198 O   0  0  0  0  0  0  0  0  0  0  0  0
   -4.3179   -2.3480    0.9987 C   0  0  0  0  0  0  0  0  0  0  0  0
   -2.8677   -2.4545    0.7112 C   0  0  0  0  0  0  0  0  0  0  0  0
    1.3212   -0.8995    0.0224 N   0  0  0  0  0  0  0  0  0  0  0  0
    7.6982   -1.1736    1.5488 H   0  0  0  0  0  0  0  0  0  0  0  0
    6.0124   -0.6497    1.7857 H   0  0  0  0  0  0  0  0  0  0  0  0
    6.9956    0.0399    0.4527 H   0  0  0  0  0  0  0  0  0  0  0  0
    5.4741   -2.5637    0.5855 H   0  0  0  0  0  0  0  0  0  0  0  0
    7.1930   -2.7541    0.0150 H   0  0  0  0  0  0  0  0  0  0  0  0
    5.7009   -2.4553   -1.8696 H   0  0  0  0  0  0  0  0  0  0  0  0
    6.8283   -1.0330   -1.6693 H   0  0  0  0  0  0  0  0  0  0  0  0
    4.5553   -0.3902   -2.2928 H   0  0  0  0  0  0  0  0  0  0  0  0
    5.0785    0.3509   -0.7713 H   0  0  0  0  0  0  0  0  0  0  0  0
    3.6156   -2.1379   -0.2673 H   0  0  0  0  0  0  0  0  0  0  0  0
    1.2779    2.5550   -1.2797 H   0  0  0  0  0  0  0  0  0  0  0  0
   -3.6393    4.1357    1.4128 H   0  0  0  0  0  0  0  0  0  0  0  0
   -0.6288   -1.8180    1.1581 H   0  0  0  0  0  0  0  0  0  0  0  0
   -2.9169   -0.4716    1.2968 H   0  0  0  0  0  0  0  0  0  0  0  0
   -2.8809   -1.5635   -1.4867 H   0  0  0  0  0  0  0  0  0  0  0  0
   -2.6566    0.2535   -1.3440 H   0  0  0  0  0  0  0  0  0  0  0  0
   -5.0289   -0.1420   -1.5205 H   0  0  0  0  0  0  0  0  0  0  0  0
   -4.5797    0.3882    0.1394 H   0  0  0  0  0  0  0  0  0  0  0  0
   -5.4956   -2.3055   -0.8524 H   0  0  0  0  0  0  0  0  0  0  0  0
   -6.8487   -0.6122    0.0543 H   0  0  0  0  0  0  0  0  0  0  0  0
   -4.7141   -3.4036    1.0800 H   0  0  0  0  0  0  0  0  0  0  0  0
   -4.4975   -1.8948    1.9968 H   0  0  0  0  0  0  0  0  0  0  0  0
   -2.6732   -2.9264   -0.2564 H   0  0  0  0  0  0  0  0  0  0  0  0
   -2.3392   -2.8603    1.5698 H   0  0  0  0  0  0  0  0  0  0  0  0
  1  2  1  0
  2  3  1  0
  3  4  1  0
  4  5  1  0
  5  6  1  0
  6  7  2  0
  7  8  1  0
  8  9  2  0
  9 10  1  0
 10 11  2  0
 11 12  1  0
 12 13  1  0
 13 14  1  0
 13 15  1  0
 13 16  1  0
 12 17  2  0
 17 18  1  0
  9 19  1  0
 19 20  1  0
 20 21  1  0
 21 22  1  0
 22 23  1  0
 23 24  1  0
 24 25  1  0
 24 26  1  0
 26 27  1  0
 19 28  2  0
 28  6  1  0
 18 10  1  0
 27 21  1  0
  1 29  1  0
  1 30  1  0
  1 31  1  0
  2 32  1  0
  2 33  1  0
  3 34  1  0
  3 35  1  0
  4 36  1  0
  4 37  1  0
  5 38  1  0
  8 39  1  0
 17 40  1  0
 20 41  1  0
 21 42  1  1
 22 43  1  0
 22 44  1  0
 23 45  1  0
 23 46  1  0
 24 47  1  6
 25 48  1  0
 26 49  1  0
 26 50  1  0
 27 51  1  0
 27 52  1  0
M  END
$$$$
