
     RDKit          3D

 57 61  0  0  0  0  0  0  0  0999 V2000
   -5.4219    0.3386   -2.5695 N   0  0  0  0  0  0  0  0  0  0  0  0
   -5.5890    0.5571   -1.4542 C   0  0  0  0  0  0  0  0  0  0  0  0
   -5.7927    0.8565   -0.0436 C   0  0  0  0  0  0  0  0  0  0  0  0
   -6.5969    1.8793    0.3677 C   0  0  0  0  0  0  0  0  0  0  0  0
   -6.7599    2.1067    1.7145 C   0  0  0  0  0  0  0  0  0  0  0  0
   -6.1257    1.3208    2.6469 C   0  0  0  0  0  0  0  0  0  0  0  0
   -5.3490    0.3333    2.1791 N   0  0  0  0  0  0  0  0  0  0  0  0
   -5.1497    0.0610    0.8872 C   0  0  0  0  0  0  0  0  0  0  0  0
   -4.3029   -0.9886    0.4327 N   0  0  0  0  0  0  0  0  0  0  0  0
   -3.6381   -1.8415    1.3749 C   0  0  2  0  0  0  0  0  0  0  0  0
   -2.8068   -1.0670    2.3820 C   0  0  0  0  0  0  0  0  0  0  0  0
   -1.3742   -1.5352    2.1804 C   0  0  0  0  0  0  0  0  0  0  0  0
   -1.3820   -1.9508    0.7827 N   0  0  0  0  0  0  0  0  0  0  0  0
   -0.3729   -1.6709   -0.1507 C   0  0  0  0  0  0  0  0  0  0  0  0
   -0.4937   -2.0877   -1.3377 O   0  0  0  0  0  0  0  0  0  0  0  0
    0.7385   -0.9465    0.2269 O   0  0  0  0  0  0  0  0  0  0  0  0
    1.7514   -0.6588   -0.7158 C   0  0  1  0  0  0  0  0  0  0  0  0
    1.8788    0.8454   -0.8657 C   0  0  0  0  0  0  0  0  0  0  0  0
    2.3081    1.4404    0.4538 C   0  0  0  0  0  0  0  0  0  0  0  0
    3.6429    0.8838    0.8519 C   0  0  0  0  0  0  0  0  0  0  0  0
    3.4995   -0.6106    1.0320 C   0  0  0  0  0  0  0  0  0  0  0  0
    3.0821   -1.2317   -0.2821 C   0  0  0  0  0  0  0  0  0  0  0  0
    4.1070   -0.9449   -1.3347 C   0  0  0  0  0  0  0  0  0  0  0  0
    4.2607    0.5523   -1.4925 C   0  0  2  0  0  0  0  0  0  0  0  0
    5.2777    0.8697   -2.5165 C   0  0  0  0  0  0  0  0  0  0  0  0
    5.5864    2.2103   -2.8527 N   0  0  0  0  0  0  0  0  0  0  0  0
    5.8742   -0.0500   -3.0944 O   0  0  0  0  0  0  0  0  0  0  0  0
    4.7002    1.1474   -0.1873 C   0  0  0  0  0  0  0  0  0  0  0  0
    2.9218    1.1146   -1.9218 C   0  0  0  0  0  0  0  0  0  0  0  0
   -2.6438   -2.6833    0.5812 C   0  0  0  0  0  0  0  0  0  0  0  0
   -7.0976    2.5037   -0.3591 H   0  0  0  0  0  0  0  0  0  0  0  0
   -7.3899    2.9117    2.0731 H   0  0  0  0  0  0  0  0  0  0  0  0
   -6.2587    1.5038    3.7015 H   0  0  0  0  0  0  0  0  0  0  0  0
   -4.1789   -1.1262   -0.6006 H   0  0  0  0  0  0  0  0  0  0  0  0
   -4.3115   -2.5269    1.8822 H   0  0  0  0  0  0  0  0  0  0  0  0
   -3.1426   -1.2498    3.4190 H   0  0  0  0  0  0  0  0  0  0  0  0
   -2.9046    0.0255    2.1896 H   0  0  0  0  0  0  0  0  0  0  0  0
   -0.6461   -0.7654    2.4120 H   0  0  0  0  0  0  0  0  0  0  0  0
   -1.2342   -2.4137    2.8204 H   0  0  0  0  0  0  0  0  0  0  0  0
    1.4958   -1.0854   -1.7087 H   0  0  0  0  0  0  0  0  0  0  0  0
    0.9348    1.2840   -1.2115 H   0  0  0  0  0  0  0  0  0  0  0  0
    2.2954    2.5391    0.4136 H   0  0  0  0  0  0  0  0  0  0  0  0
    1.5577    1.1120    1.2109 H   0  0  0  0  0  0  0  0  0  0  0  0
    3.9409    1.3683    1.7999 H   0  0  0  0  0  0  0  0  0  0  0  0
    4.4141   -1.0767    1.4011 H   0  0  0  0  0  0  0  0  0  0  0  0
    2.6905   -0.8204    1.7749 H   0  0  0  0  0  0  0  0  0  0  0  0
    2.9459   -2.3184   -0.1393 H   0  0  0  0  0  0  0  0  0  0  0  0
    5.0984   -1.3316   -1.0291 H   0  0  0  0  0  0  0  0  0  0  0  0
    3.8242   -1.3388   -2.3228 H   0  0  0  0  0  0  0  0  0  0  0  0
    6.5755    2.5134   -2.8782 H   0  0  0  0  0  0  0  0  0  0  0  0
    4.8104    2.8621   -3.0700 H   0  0  0  0  0  0  0  0  0  0  0  0
    4.9152    2.2175   -0.2983 H   0  0  0  0  0  0  0  0  0  0  0  0
    5.6155    0.5797    0.1426 H   0  0  0  0  0  0  0  0  0  0  0  0
    2.6524    0.5750   -2.8591 H   0  0  0  0  0  0  0  0  0  0  0  0
    2.9894    2.1927   -2.1573 H   0  0  0  0  0  0  0  0  0  0  0  0
   -2.8584   -2.6662   -0.5030 H   0  0  0  0  0  0  0  0  0  0  0  0
   -2.5636   -3.7187    0.9432 H   0  0  0  0  0  0  0  0  0  0  0  0
  1  2  3  0
  2  3  1  0
  3  4  2  0
  4  5  1  0
  5  6  2  0
  6  7  1  0
  7  8  2  0
  8  9  1  0
  9 10  1  0
 10 11  1  0
 11 12  1  0
 12 13  1  0
 13 14  1  0
 14 15  2  0
 14 16  1  0
 16 17  1  0
 17 18  1  0
 18 19  1  0
 19 20  1  0
 20 21  1  0
 21 22  1  0
 22 23  1  0
 23 24  1  0
 24 25  1  6
 25 26  1  0
 25 27  2  0
 24 28  1  0
 24 29  1  0
 13 30  1  0
  8  3  1  0
 30 10  1  0
 22 17  1  0
 29 18  1  0
 28 20  1  0
  4 31  1  0
  5 32  1  0
  6 33  1  0
  9 34  1  0
 10 35  1  1
 11 36  1  0
 11 37  1  0
 12 38  1  0
 12 39  1  0
 17 40  1  6
 18 41  1  0
 19 42  1  0
 19 43  1  0
 20 44  1  0
 21 45  1  0
 21 46  1  0
 22 47  1  0
 23 48  1  0
 23 49  1  0
 26 50  1  0
 26 51  1  0
 28 52  1  0
 28 53  1  0
 29 54  1  0
 29 55  1  0
 30 56  1  0
 30 57  1  0
M  END
$$$$
