@<TRIPOS>MOLECULE
*****
 57 61 0 0 0
SMALL
GASTEIGER

@<TRIPOS>ATOM
      1 N          -5.4219    0.3386   -2.5695 N.1     1  UNL1       -0.1908
      2 C          -5.5890    0.5571   -1.4542 C.1     1  UNL1        0.1026
      3 C          -5.7927    0.8565   -0.0436 C.ar    1  UNL1        0.0914
      4 C          -6.5969    1.8793    0.3677 C.ar    1  UNL1       -0.0396
      5 C          -6.7599    2.1067    1.7145 C.ar    1  UNL1       -0.0422
      6 C          -6.1257    1.3208    2.6469 C.ar    1  UNL1        0.0298
      7 N          -5.3490    0.3333    2.1791 N.ar    1  UNL1       -0.2392
      8 C          -5.1497    0.0610    0.8872 C.ar    1  UNL1        0.1364
      9 N          -4.3029   -0.9886    0.4327 N.pl3   1  UNL1       -0.3236
     10 C          -3.6381   -1.8415    1.3749 C.3     1  UNL1        0.0392
     11 C          -2.8068   -1.0670    2.3820 C.3     1  UNL1       -0.0171
     12 C          -1.3742   -1.5352    2.1804 C.3     1  UNL1        0.0196
     13 N          -1.3820   -1.9508    0.7827 N.am    1  UNL1       -0.2656
     14 C          -0.3729   -1.6709   -0.1507 C.2     1  UNL1        0.4032
     15 O          -0.4937   -2.0877   -1.3377 O.2     1  UNL1       -0.2262
     16 O           0.7385   -0.9465    0.2269 O.3     1  UNL1       -0.4464
     17 C           1.7514   -0.6588   -0.7158 C.3     1  UNL1        0.1103
     18 C           1.8788    0.8454   -0.8657 C.3     1  UNL1       -0.0023
     19 C           2.3081    1.4404    0.4538 C.3     1  UNL1       -0.0439
     20 C           3.6429    0.8838    0.8519 C.3     1  UNL1       -0.0394
     21 C           3.4995   -0.6106    1.0320 C.3     1  UNL1       -0.0439
     22 C           3.0821   -1.2317   -0.2821 C.3     1  UNL1       -0.0023
     23 C           4.1070   -0.9449   -1.3347 C.3     1  UNL1       -0.0328
     24 C           4.2607    0.5523   -1.4925 C.3     1  UNL1        0.0477
     25 C           5.2777    0.8697   -2.5165 C.2     1  UNL1        0.2167
     26 N           5.5864    2.2103   -2.8527 N.am    1  UNL1       -0.3289
     27 O           5.8742   -0.0500   -3.0944 O.2     1  UNL1       -0.2754
     28 C           4.7002    1.1474   -0.1873 C.3     1  UNL1       -0.0362
     29 C           2.9218    1.1146   -1.9218 C.3     1  UNL1       -0.0328
     30 C          -2.6438   -2.6833    0.5812 C.3     1  UNL1        0.0362
     31 H          -7.0976    2.5037   -0.3591 H       1  UNL1        0.0632
     32 H          -7.3899    2.9117    2.0731 H       1  UNL1        0.0633
     33 H          -6.2587    1.5038    3.7015 H       1  UNL1        0.0830
     34 H          -4.1789   -1.1262   -0.6006 H       1  UNL1        0.1478
     35 H          -4.3115   -2.5269    1.8822 H       1  UNL1        0.0514
     36 H          -3.1426   -1.2498    3.4190 H       1  UNL1        0.0299
     37 H          -2.9046    0.0255    2.1896 H       1  UNL1        0.0299
     38 H          -0.6461   -0.7654    2.4120 H       1  UNL1        0.0466
     39 H          -1.2342   -2.4137    2.8204 H       1  UNL1        0.0466
     40 H           1.4958   -1.0854   -1.7087 H       1  UNL1        0.0740
     41 H           0.9348    1.2840   -1.2115 H       1  UNL1        0.0337
     42 H           2.2954    2.5391    0.4136 H       1  UNL1        0.0272
     43 H           1.5577    1.1120    1.2109 H       1  UNL1        0.0272
     44 H           3.9409    1.3683    1.7999 H       1  UNL1        0.0301
     45 H           4.4141   -1.0767    1.4011 H       1  UNL1        0.0272
     46 H           2.6905   -0.8204    1.7749 H       1  UNL1        0.0272
     47 H           2.9459   -2.3184   -0.1393 H       1  UNL1        0.0337
     48 H           5.0984   -1.3316   -1.0291 H       1  UNL1        0.0279
     49 H           3.8242   -1.3388   -2.3228 H       1  UNL1        0.0279
     50 H           6.5755    2.5134   -2.8782 H       1  UNL1        0.1449
     51 H           4.8104    2.8621   -3.0700 H       1  UNL1        0.1449
     52 H           4.9152    2.2175   -0.2983 H       1  UNL1        0.0278
     53 H           5.6155    0.5797    0.1426 H       1  UNL1        0.0278
     54 H           2.6524    0.5750   -2.8591 H       1  UNL1        0.0279
     55 H           2.9894    2.1927   -2.1573 H       1  UNL1        0.0279
     56 H          -2.8584   -2.6662   -0.5030 H       1  UNL1        0.0484
     57 H          -2.5636   -3.7187    0.9432 H       1  UNL1        0.0484
@<TRIPOS>BOND
     1     1     2    3
     2     2     3    1
     3     3     4   ar
     4     4     5   ar
     5     5     6   ar
     6     6     7   ar
     7     7     8   ar
     8     8     9    1
     9     9    10    1
    10    10    11    1
    11    11    12    1
    12    12    13    1
    13    13    14   am
    14    14    15    2
    15    14    16    1
    16    16    17    1
    17    17    18    1
    18    18    19    1
    19    19    20    1
    20    20    21    1
    21    21    22    1
    22    22    23    1
    23    23    24    1
    24    24    25    1
    25    25    26   am
    26    25    27    2
    27    24    28    1
    28    24    29    1
    29    13    30    1
    30     8     3   ar
    31    30    10    1
    32    22    17    1
    33    29    18    1
    34    28    20    1
    35     4    31    1
    36     5    32    1
    37     6    33    1
    38     9    34    1
    39    10    35    1
    40    11    36    1
    41    11    37    1
    42    12    38    1
    43    12    39    1
    44    17    40    1
    45    18    41    1
    46    19    42    1
    47    19    43    1
    48    20    44    1
    49    21    45    1
    50    21    46    1
    51    22    47    1
    52    23    48    1
    53    23    49    1
    54    26    50    1
    55    26    51    1
    56    28    52    1
    57    28    53    1
    58    29    54    1
    59    29    55    1
    60    30    56    1
    61    30    57    1
