@<TRIPOS>MOLECULE
*****
 81 85 0 0 0
SMALL
GASTEIGER

@<TRIPOS>ATOM
      1 C           4.1593   -2.4312   -1.3368 C.3     1  UNL1       -0.0598
      2 C           4.7835   -1.0843   -0.9595 C.3     1  UNL1       -0.0343
      3 C           6.0597   -1.0067   -1.8191 C.3     1  UNL1       -0.0598
      4 C           5.2269   -1.1868    0.4481 C.3     1  UNL1       -0.0468
      5 C           5.0313    0.0915    1.1773 C.3     1  UNL1       -0.0362
      6 C           3.5574    0.4948    1.1693 C.3     1  UNL1        0.0741
      7 C           3.5283    1.7845    1.9185 C.2     1  UNL1        0.3115
      8 O           2.8802    1.9755    2.9731 O.2     1  UNL1       -0.2504
      9 O           4.2668    2.8425    1.4156 O.3     1  UNL1       -0.4802
     10 C           2.8171   -0.4940    2.0130 C.3     1  UNL1       -0.0359
     11 C           1.3276   -0.2827    2.0354 C.3     1  UNL1       -0.0424
     12 C           0.7572   -0.2983    0.6613 C.3     1  UNL1       -0.0051
     13 C           0.5629   -1.7689    0.2627 C.3     1  UNL1       -0.0553
     14 C           1.6038    0.2930   -0.3730 C.2     1  UNL1       -0.0629
     15 C           1.0647    0.5575   -1.5581 C.2     1  UNL1       -0.0836
     16 C          -0.3503    0.2901   -1.9029 C.3     1  UNL1       -0.0306
     17 C          -1.2059    0.0182   -0.7031 C.3     1  UNL1       -0.0257
     18 C          -2.6493    0.4489   -0.8775 C.3     1  UNL1       -0.0250
     19 C          -2.8316    1.9025   -1.1254 C.3     1  UNL1       -0.0590
     20 C          -3.1727   -0.2996   -2.0951 C.3     1  UNL1       -0.0447
     21 C          -4.3756   -1.1314   -1.8010 C.3     1  UNL1       -0.0258
     22 C          -5.4451   -0.4041   -1.0321 C.3     1  UNL1        0.0606
     23 O          -6.0240    0.6355   -1.7624 O.3     1  UNL1       -0.3912
     24 C          -4.8649    0.0462    0.2748 C.3     1  UNL1       -0.0056
     25 C          -5.4165    1.4136    0.5742 C.3     1  UNL1       -0.0572
     26 C          -5.4189   -0.8857    1.3651 C.3     1  UNL1       -0.0572
     27 C          -3.3851   -0.0505    0.3429 C.3     1  UNL1       -0.0278
     28 C          -2.8484    0.5601    1.5944 C.3     1  UNL1       -0.0486
     29 C          -1.4150    0.0556    1.7571 C.3     1  UNL1       -0.0463
     30 C          -0.5792    0.4567    0.5846 C.3     1  UNL1       -0.0194
     31 C          -0.2697    1.9189    0.6623 C.3     1  UNL1       -0.0585
     32 C           3.0580    0.6366   -0.2231 C.3     1  UNL1       -0.0031
     33 C           3.8615    0.0189   -1.2982 C.3     1  UNL1       -0.0403
     34 H           4.9088   -3.1465   -1.6921 H       1  UNL1        0.0235
     35 H           3.5851   -2.8529   -0.4807 H       1  UNL1        0.0235
     36 H           3.4250   -2.2559   -2.1517 H       1  UNL1        0.0235
     37 H           6.4201    0.0335   -1.7134 H       1  UNL1        0.0235
     38 H           5.7414   -1.2517   -2.8469 H       1  UNL1        0.0235
     39 H           6.7638   -1.7558   -1.4412 H       1  UNL1        0.0235
     40 H           6.3331   -1.4225    0.5269 H       1  UNL1        0.0271
     41 H           4.7625   -2.0660    0.9547 H       1  UNL1        0.0271
     42 H           5.3947    0.0591    2.2212 H       1  UNL1        0.0276
     43 H           5.5893    0.8845    0.6454 H       1  UNL1        0.0276
     44 H           4.4407    3.6955    1.9483 H       1  UNL1        0.2951
     45 H           2.9966   -1.5430    1.7993 H       1  UNL1        0.0276
     46 H           3.1675   -0.3300    3.0763 H       1  UNL1        0.0276
     47 H           1.0454    0.5754    2.6564 H       1  UNL1        0.0274
     48 H           0.9012   -1.1810    2.5760 H       1  UNL1        0.0274
     49 H           0.5965   -1.9040   -0.8279 H       1  UNL1        0.0238
     50 H          -0.2928   -2.2365    0.7607 H       1  UNL1        0.0238
     51 H           1.4710   -2.3098    0.6561 H       1  UNL1        0.0238
     52 H           1.6736    1.0045   -2.3623 H       1  UNL1        0.0572
     53 H          -0.7180    1.1296   -2.5349 H       1  UNL1        0.0310
     54 H          -0.3303   -0.5927   -2.6095 H       1  UNL1        0.0310
     55 H          -1.2723   -1.1119   -0.6297 H       1  UNL1        0.0315
     56 H          -3.0732    2.4958   -0.2048 H       1  UNL1        0.0235
     57 H          -1.9804    2.4198   -1.5965 H       1  UNL1        0.0235
     58 H          -3.7005    2.1019   -1.8214 H       1  UNL1        0.0235
     59 H          -3.4611    0.4141   -2.9211 H       1  UNL1        0.0271
     60 H          -2.4093   -0.9606   -2.5524 H       1  UNL1        0.0271
     61 H          -4.0888   -2.0182   -1.2252 H       1  UNL1        0.0290
     62 H          -4.8216   -1.4347   -2.7700 H       1  UNL1        0.0290
     63 H          -6.2761   -1.1478   -0.8784 H       1  UNL1        0.0599
     64 H          -5.7039    0.5698   -2.6836 H       1  UNL1        0.2098
     65 H          -4.8555    1.9789    1.3158 H       1  UNL1        0.0236
     66 H          -5.6093    1.9762   -0.3763 H       1  UNL1        0.0236
     67 H          -6.4498    1.2711    1.0110 H       1  UNL1        0.0236
     68 H          -4.7004   -1.6867    1.6116 H       1  UNL1        0.0236
     69 H          -5.7150   -0.2912    2.2702 H       1  UNL1        0.0236
     70 H          -6.3519   -1.3821    1.0270 H       1  UNL1        0.0236
     71 H          -3.1389   -1.1543    0.4039 H       1  UNL1        0.0312
     72 H          -3.4314    0.1328    2.4525 H       1  UNL1        0.0268
     73 H          -2.8580    1.6450    1.6360 H       1  UNL1        0.0268
     74 H          -1.5016   -1.0418    1.8701 H       1  UNL1        0.0271
     75 H          -0.9832    0.4292    2.7081 H       1  UNL1        0.0271
     76 H           0.0231    2.3829   -0.2889 H       1  UNL1        0.0235
     77 H          -1.0821    2.5131    1.1337 H       1  UNL1        0.0235
     78 H           0.6177    2.0731    1.3451 H       1  UNL1        0.0235
     79 H           3.0515    1.7552   -0.4236 H       1  UNL1        0.0357
     80 H           4.4515    0.7871   -1.8838 H       1  UNL1        0.0276
     81 H           3.1514   -0.3673   -2.0880 H       1  UNL1        0.0276
@<TRIPOS>BOND
     1     1     2    1
     2     2     3    1
     3     2     4    1
     4     4     5    1
     5     5     6    1
     6     6     7    1
     7     7     8    2
     8     7     9    1
     9     6    10    1
    10    10    11    1
    11    11    12    1
    12    12    13    1
    13    12    14    1
    14    14    15    2
    15    15    16    1
    16    16    17    1
    17    17    18    1
    18    18    19    1
    19    18    20    1
    20    20    21    1
    21    21    22    1
    22    22    23    1
    23    22    24    1
    24    24    25    1
    25    24    26    1
    26    24    27    1
    27    27    28    1
    28    28    29    1
    29    29    30    1
    30    30    31    1
    31    14    32    1
    32    32    33    1
    33    33     2    1
    34    32     6    1
    35    30    12    1
    36    30    17    1
    37    27    18    1
    38     1    34    1
    39     1    35    1
    40     1    36    1
    41     3    37    1
    42     3    38    1
    43     3    39    1
    44     4    40    1
    45     4    41    1
    46     5    42    1
    47     5    43    1
    48     9    44    1
    49    10    45    1
    50    10    46    1
    51    11    47    1
    52    11    48    1
    53    13    49    1
    54    13    50    1
    55    13    51    1
    56    15    52    1
    57    16    53    1
    58    16    54    1
    59    17    55    1
    60    19    56    1
    61    19    57    1
    62    19    58    1
    63    20    59    1
    64    20    60    1
    65    21    61    1
    66    21    62    1
    67    22    63    1
    68    23    64    1
    69    25    65    1
    70    25    66    1
    71    25    67    1
    72    26    68    1
    73    26    69    1
    74    26    70    1
    75    27    71    1
    76    28    72    1
    77    28    73    1
    78    29    74    1
    79    29    75    1
    80    31    76    1
    81    31    77    1
    82    31    78    1
    83    32    79    1
    84    33    80    1
    85    33    81    1
