
     RDKit          3D

 81 85  0  0  0  0  0  0  0  0999 V2000
    4.1593   -2.4312   -1.3368 C   0  0  0  0  0  0  0  0  0  0  0  0
    4.7835   -1.0843   -0.9595 C   0  0  0  0  0  0  0  0  0  0  0  0
    6.0597   -1.0067   -1.8191 C   0  0  0  0  0  0  0  0  0  0  0  0
    5.2269   -1.1868    0.4481 C   0  0  0  0  0  0  0  0  0  0  0  0
    5.0313    0.0915    1.1773 C   0  0  0  0  0  0  0  0  0  0  0  0
    3.5574    0.4948    1.1693 C   0  0  2  0  0  0  0  0  0  0  0  0
    3.5283    1.7845    1.9185 C   0  0  0  0  0  0  0  0  0  0  0  0
    2.8802    1.9755    2.9731 O   0  0  0  0  0  0  0  0  0  0  0  0
    4.2668    2.8425    1.4156 O   0  0  0  0  0  0  0  0  0  0  0  0
    2.8171   -0.4940    2.0130 C   0  0  0  0  0  0  0  0  0  0  0  0
    1.3276   -0.2827    2.0354 C   0  0  0  0  0  0  0  0  0  0  0  0
    0.7572   -0.2983    0.6613 C   0  0  2  0  0  0  0  0  0  0  0  0
    0.5629   -1.7689    0.2627 C   0  0  0  0  0  0  0  0  0  0  0  0
    1.6038    0.2930   -0.3730 C   0  0  0  0  0  0  0  0  0  0  0  0
    1.0647    0.5575   -1.5581 C   0  0  0  0  0  0  0  0  0  0  0  0
   -0.3503    0.2901   -1.9029 C   0  0  0  0  0  0  0  0  0  0  0  0
   -1.2059    0.0182   -0.7031 C   0  0  2  0  0  0  0  0  0  0  0  0
   -2.6493    0.4489   -0.8775 C   0  0  1  0  0  0  0  0  0  0  0  0
   -2.8316    1.9025   -1.1254 C   0  0  0  0  0  0  0  0  0  0  0  0
   -3.1727   -0.2996   -2.0951 C   0  0  0  0  0  0  0  0  0  0  0  0
   -4.3756   -1.1314   -1.8010 C   0  0  0  0  0  0  0  0  0  0  0  0
   -5.4451   -0.4041   -1.0321 C   0  0  2  0  0  0  0  0  0  0  0  0
   -6.0240    0.6355   -1.7624 O   0  0  0  0  0  0  0  0  0  0  0  0
   -4.8649    0.0462    0.2748 C   0  0  0  0  0  0  0  0  0  0  0  0
   -5.4165    1.4136    0.5742 C   0  0  0  0  0  0  0  0  0  0  0  0
   -5.4189   -0.8857    1.3651 C   0  0  0  0  0  0  0  0  0  0  0  0
   -3.3851   -0.0505    0.3429 C   0  0  2  0  0  0  0  0  0  0  0  0
   -2.8484    0.5601    1.5944 C   0  0  0  0  0  0  0  0  0  0  0  0
   -1.4150    0.0556    1.7571 C   0  0  0  0  0  0  0  0  0  0  0  0
   -0.5792    0.4567    0.5846 C   0  0  1  0  0  0  0  0  0  0  0  0
   -0.2697    1.9189    0.6623 C   0  0  0  0  0  0  0  0  0  0  0  0
    3.0580    0.6366   -0.2231 C   0  0  2  0  0  0  0  0  0  0  0  0
    3.8615    0.0189   -1.2982 C   0  0  0  0  0  0  0  0  0  0  0  0
    4.9088   -3.1465   -1.6921 H   0  0  0  0  0  0  0  0  0  0  0  0
    3.5851   -2.8529   -0.4807 H   0  0  0  0  0  0  0  0  0  0  0  0
    3.4250   -2.2559   -2.1517 H   0  0  0  0  0  0  0  0  0  0  0  0
    6.4201    0.0335   -1.7134 H   0  0  0  0  0  0  0  0  0  0  0  0
    5.7414   -1.2517   -2.8469 H   0  0  0  0  0  0  0  0  0  0  0  0
    6.7638   -1.7558   -1.4412 H   0  0  0  0  0  0  0  0  0  0  0  0
    6.3331   -1.4225    0.5269 H   0  0  0  0  0  0  0  0  0  0  0  0
    4.7625   -2.0660    0.9547 H   0  0  0  0  0  0  0  0  0  0  0  0
    5.3947    0.0591    2.2212 H   0  0  0  0  0  0  0  0  0  0  0  0
    5.5893    0.8845    0.6454 H   0  0  0  0  0  0  0  0  0  0  0  0
    4.4407    3.6955    1.9483 H   0  0  0  0  0  0  0  0  0  0  0  0
    2.9966   -1.5430    1.7993 H   0  0  0  0  0  0  0  0  0  0  0  0
    3.1675   -0.3300    3.0763 H   0  0  0  0  0  0  0  0  0  0  0  0
    1.0454    0.5754    2.6564 H   0  0  0  0  0  0  0  0  0  0  0  0
    0.9012   -1.1810    2.5760 H   0  0  0  0  0  0  0  0  0  0  0  0
    0.5965   -1.9040   -0.8279 H   0  0  0  0  0  0  0  0  0  0  0  0
   -0.2928   -2.2365    0.7607 H   0  0  0  0  0  0  0  0  0  0  0  0
    1.4710   -2.3098    0.6561 H   0  0  0  0  0  0  0  0  0  0  0  0
    1.6736    1.0045   -2.3623 H   0  0  0  0  0  0  0  0  0  0  0  0
   -0.7180    1.1296   -2.5349 H   0  0  0  0  0  0  0  0  0  0  0  0
   -0.3303   -0.5927   -2.6095 H   0  0  0  0  0  0  0  0  0  0  0  0
   -1.2723   -1.1119   -0.6297 H   0  0  0  0  0  0  0  0  0  0  0  0
   -3.0732    2.4958   -0.2048 H   0  0  0  0  0  0  0  0  0  0  0  0
   -1.9804    2.4198   -1.5965 H   0  0  0  0  0  0  0  0  0  0  0  0
   -3.7005    2.1019   -1.8214 H   0  0  0  0  0  0  0  0  0  0  0  0
   -3.4611    0.4141   -2.9211 H   0  0  0  0  0  0  0  0  0  0  0  0
   -2.4093   -0.9606   -2.5524 H   0  0  0  0  0  0  0  0  0  0  0  0
   -4.0888   -2.0182   -1.2252 H   0  0  0  0  0  0  0  0  0  0  0  0
   -4.8216   -1.4347   -2.7700 H   0  0  0  0  0  0  0  0  0  0  0  0
   -6.2761   -1.1478   -0.8784 H   0  0  0  0  0  0  0  0  0  0  0  0
   -5.7039    0.5698   -2.6836 H   0  0  0  0  0  0  0  0  0  0  0  0
   -4.8555    1.9789    1.3158 H   0  0  0  0  0  0  0  0  0  0  0  0
   -5.6093    1.9762   -0.3763 H   0  0  0  0  0  0  0  0  0  0  0  0
   -6.4498    1.2711    1.0110 H   0  0  0  0  0  0  0  0  0  0  0  0
   -4.7004   -1.6867    1.6116 H   0  0  0  0  0  0  0  0  0  0  0  0
   -5.7150   -0.2912    2.2702 H   0  0  0  0  0  0  0  0  0  0  0  0
   -6.3519   -1.3821    1.0270 H   0  0  0  0  0  0  0  0  0  0  0  0
   -3.1389   -1.1543    0.4039 H   0  0  0  0  0  0  0  0  0  0  0  0
   -3.4314    0.1328    2.4525 H   0  0  0  0  0  0  0  0  0  0  0  0
   -2.8580    1.6450    1.6360 H   0  0  0  0  0  0  0  0  0  0  0  0
   -1.5016   -1.0418    1.8701 H   0  0  0  0  0  0  0  0  0  0  0  0
   -0.9832    0.4292    2.7081 H   0  0  0  0  0  0  0  0  0  0  0  0
    0.0231    2.3829   -0.2889 H   0  0  0  0  0  0  0  0  0  0  0  0
   -1.0821    2.5131    1.1337 H   0  0  0  0  0  0  0  0  0  0  0  0
    0.6177    2.0731    1.3451 H   0  0  0  0  0  0  0  0  0  0  0  0
    3.0515    1.7552   -0.4236 H   0  0  0  0  0  0  0  0  0  0  0  0
    4.4515    0.7871   -1.8838 H   0  0  0  0  0  0  0  0  0  0  0  0
    3.1514   -0.3673   -2.0880 H   0  0  0  0  0  0  0  0  0  0  0  0
  1  2  1  0
  2  3  1  0
  2  4  1  0
  4  5  1  0
  5  6  1  0
  6  7  1  1
  7  8  2  0
  7  9  1  0
  6 10  1  0
 10 11  1  0
 11 12  1  0
 12 13  1  6
 12 14  1  0
 14 15  2  0
 15 16  1  0
 16 17  1  0
 17 18  1  0
 18 19  1  6
 18 20  1  0
 20 21  1  0
 21 22  1  0
 22 23  1  0
 22 24  1  0
 24 25  1  0
 24 26  1  0
 24 27  1  0
 27 28  1  0
 28 29  1  0
 29 30  1  0
 30 31  1  6
 14 32  1  0
 32 33  1  0
 33  2  1  0
 32  6  1  0
 30 12  1  0
 30 17  1  0
 27 18  1  0
  1 34  1  0
  1 35  1  0
  1 36  1  0
  3 37  1  0
  3 38  1  0
  3 39  1  0
  4 40  1  0
  4 41  1  0
  5 42  1  0
  5 43  1  0
  9 44  1  0
 10 45  1  0
 10 46  1  0
 11 47  1  0
 11 48  1  0
 13 49  1  0
 13 50  1  0
 13 51  1  0
 15 52  1  0
 16 53  1  0
 16 54  1  0
 17 55  1  1
 19 56  1  0
 19 57  1  0
 19 58  1  0
 20 59  1  0
 20 60  1  0
 21 61  1  0
 21 62  1  0
 22 63  1  1
 23 64  1  0
 25 65  1  0
 25 66  1  0
 25 67  1  0
 26 68  1  0
 26 69  1  0
 26 70  1  0
 27 71  1  1
 28 72  1  0
 28 73  1  0
 29 74  1  0
 29 75  1  0
 31 76  1  0
 31 77  1  0
 31 78  1  0
 32 79  1  6
 33 80  1  0
 33 81  1  0
M  END
$$$$
