@<TRIPOS>MOLECULE
*****
 59 63 0 0 0
SMALL
GASTEIGER

@<TRIPOS>ATOM
      1 F           0.3185   -0.2387   -4.9779 F       1  UNL1       -0.2054
      2 C           0.8094   -0.3320   -3.7045 C.ar    1  UNL1        0.1272
      3 C           1.8905   -1.1587   -3.4040 C.ar    1  UNL1        0.0155
      4 C           2.3661   -1.2321   -2.1052 C.ar    1  UNL1        0.1304
      5 O           3.4240   -2.0427   -1.8204 O.3     1  UNL1       -0.4279
      6 C           3.4406   -3.3719   -1.4340 C.3     1  UNL1        0.4625
      7 F           4.7889   -3.7296   -1.2702 F       1  UNL1       -0.1583
      8 F           2.9291   -4.2401   -2.3791 F       1  UNL1       -0.1583
      9 C           2.8029   -3.6323   -0.0871 C.3     1  UNL1        0.3402
     10 F           1.4931   -3.2758   -0.0089 F       1  UNL1       -0.1984
     11 F           3.5817   -3.0824    0.9330 F       1  UNL1       -0.1984
     12 C           1.7306   -0.4653   -1.1519 C.ar    1  UNL1       -0.0139
     13 C           0.6589    0.3573   -1.4376 C.ar    1  UNL1       -0.0118
     14 C           0.0784    1.1359   -0.3018 C.3     1  UNL1        0.1060
     15 C          -1.1920    1.8417   -0.6714 C.3     1  UNL1        0.0035
     16 C          -1.7415    2.6066    0.4870 C.ar    1  UNL1       -0.0446
     17 C          -2.6342    2.0027    1.3767 C.ar    1  UNL1       -0.0585
     18 C          -3.1398    2.7147    2.4456 C.ar    1  UNL1       -0.0615
     19 C          -2.7823    4.0225    2.6611 C.ar    1  UNL1       -0.0617
     20 C          -1.9073    4.6422    1.8040 C.ar    1  UNL1       -0.0615
     21 C          -1.4139    3.9194    0.7455 C.ar    1  UNL1       -0.0585
     22 N          -0.0949    0.2171    0.7978 N.pl3   1  UNL1       -0.2997
     23 C          -0.8344   -0.9776    0.7651 C.ar    1  UNL1        0.1950
     24 N          -0.9414   -1.7797    1.8745 N.ar    1  UNL1       -0.2117
     25 C          -1.6841   -2.8291    1.5568 C.ar    1  UNL1        0.1259
     26 C          -2.1003   -3.9313    2.2945 C.ar    1  UNL1        0.1535
     27 F          -1.7342   -4.0568    3.5916 F       1  UNL1       -0.2031
     28 C          -2.8844   -4.8804    1.6795 C.ar    1  UNL1        0.0110
     29 C          -3.2587   -4.7501    0.3488 C.ar    1  UNL1        0.1282
     30 F          -4.0268   -5.6659   -0.2765 F       1  UNL1       -0.2053
     31 C          -2.8212   -3.6367   -0.3461 C.ar    1  UNL1       -0.0008
     32 C          -2.0371   -2.6634    0.2260 C.ar    1  UNL1        0.0730
     33 N          -1.5028   -1.5192   -0.2368 N.ar    1  UNL1       -0.3259
     34 C           1.1528    2.1346    0.0473 C.ar    1  UNL1        0.0695
     35 C           1.6155    3.0333   -0.8732 C.ar    1  UNL1       -0.0365
     36 C           2.5970    3.9387   -0.5346 C.ar    1  UNL1       -0.0401
     37 C           3.1176    3.9324    0.7591 C.ar    1  UNL1        0.0590
     38 CL          4.3577    5.0401    1.2677 Cl      1  UNL1       -0.0820
     39 C           2.6335    3.0227    1.6523 C.ar    1  UNL1        0.0463
     40 N           1.6734    2.1587    1.2710 N.ar    1  UNL1       -0.2559
     41 C           0.1887    0.4276   -2.7316 C.ar    1  UNL1       -0.0206
     42 H           2.3474   -1.7381   -4.2027 H       1  UNL1        0.0683
     43 H           2.8618   -4.7390    0.0804 H       1  UNL1        0.1124
     44 H           2.1313   -0.5466   -0.1347 H       1  UNL1        0.0658
     45 H          -1.9773    1.1244   -0.9575 H       1  UNL1        0.0341
     46 H          -1.0233    2.5055   -1.5365 H       1  UNL1        0.0341
     47 H          -2.9350    0.9819    1.2388 H       1  UNL1        0.0620
     48 H          -3.8401    2.2696    3.1587 H       1  UNL1        0.0618
     49 H          -3.1682    4.5959    3.4932 H       1  UNL1        0.0618
     50 H          -1.5988    5.6810    1.9421 H       1  UNL1        0.0618
     51 H          -0.7297    4.4301    0.0885 H       1  UNL1        0.0620
     52 H           0.3970    0.5073    1.7003 H       1  UNL1        0.1501
     53 H          -3.2241   -5.7585    2.2433 H       1  UNL1        0.0676
     54 H          -3.0886   -3.4949   -1.3834 H       1  UNL1        0.0667
     55 H          -1.6257   -1.1856   -1.2006 H       1  UNL1        0.1686
     56 H           1.2067    3.0278   -1.8657 H       1  UNL1        0.0637
     57 H           2.9949    4.6621   -1.2130 H       1  UNL1        0.0633
     58 H           2.9905    2.9606    2.6717 H       1  UNL1        0.0844
     59 H          -0.6361    1.0599   -2.9550 H       1  UNL1        0.0650
@<TRIPOS>BOND
     1     1     2    1
     2     2     3   ar
     3     3     4   ar
     4     4     5    1
     5     5     6    1
     6     6     7    1
     7     6     8    1
     8     6     9    1
     9     9    10    1
    10     9    11    1
    11     4    12   ar
    12    12    13   ar
    13    13    14    1
    14    14    15    1
    15    15    16    1
    16    16    17   ar
    17    17    18   ar
    18    18    19   ar
    19    19    20   ar
    20    20    21   ar
    21    14    22    1
    22    22    23    1
    23    23    24   ar
    24    24    25   ar
    25    25    26   ar
    26    26    27    1
    27    26    28   ar
    28    28    29   ar
    29    29    30    1
    30    29    31   ar
    31    31    32   ar
    32    32    33   ar
    33    14    34    1
    34    34    35   ar
    35    35    36   ar
    36    36    37   ar
    37    37    38    1
    38    37    39   ar
    39    39    40   ar
    40    13    41   ar
    41    41     2   ar
    42    21    16   ar
    43    33    23   ar
    44    40    34   ar
    45    32    25   ar
    46     3    42    1
    47     9    43    1
    48    12    44    1
    49    15    45    1
    50    15    46    1
    51    17    47    1
    52    18    48    1
    53    19    49    1
    54    20    50    1
    55    21    51    1
    56    22    52    1
    57    28    53    1
    58    31    54    1
    59    33    55    1
    60    35    56    1
    61    36    57    1
    62    39    58    1
    63    41    59    1
