
     RDKit          3D

 59 63  0  0  0  0  0  0  0  0999 V2000
    0.3185   -0.2387   -4.9779 F   0  0  0  0  0  0  0  0  0  0  0  0
    0.8094   -0.3320   -3.7045 C   0  0  0  0  0  0  0  0  0  0  0  0
    1.8905   -1.1587   -3.4040 C   0  0  0  0  0  0  0  0  0  0  0  0
    2.3661   -1.2321   -2.1052 C   0  0  0  0  0  0  0  0  0  0  0  0
    3.4240   -2.0427   -1.8204 O   0  0  0  0  0  0  0  0  0  0  0  0
    3.4406   -3.3719   -1.4340 C   0  0  0  0  0  0  0  0  0  0  0  0
    4.7889   -3.7296   -1.2702 F   0  0  0  0  0  0  0  0  0  0  0  0
    2.9291   -4.2401   -2.3791 F   0  0  0  0  0  0  0  0  0  0  0  0
    2.8029   -3.6323   -0.0871 C   0  0  0  0  0  0  0  0  0  0  0  0
    1.4931   -3.2758   -0.0089 F   0  0  0  0  0  0  0  0  0  0  0  0
    3.5817   -3.0824    0.9330 F   0  0  0  0  0  0  0  0  0  0  0  0
    1.7306   -0.4653   -1.1519 C   0  0  0  0  0  0  0  0  0  0  0  0
    0.6589    0.3573   -1.4376 C   0  0  0  0  0  0  0  0  0  0  0  0
    0.0784    1.1359   -0.3018 C   0  0  1  0  0  0  0  0  0  0  0  0
   -1.1920    1.8417   -0.6714 C   0  0  0  0  0  0  0  0  0  0  0  0
   -1.7415    2.6066    0.4870 C   0  0  0  0  0  0  0  0  0  0  0  0
   -2.6342    2.0027    1.3767 C   0  0  0  0  0  0  0  0  0  0  0  0
   -3.1398    2.7147    2.4456 C   0  0  0  0  0  0  0  0  0  0  0  0
   -2.7823    4.0225    2.6611 C   0  0  0  0  0  0  0  0  0  0  0  0
   -1.9073    4.6422    1.8040 C   0  0  0  0  0  0  0  0  0  0  0  0
   -1.4139    3.9194    0.7455 C   0  0  0  0  0  0  0  0  0  0  0  0
   -0.0949    0.2171    0.7978 N   0  0  0  0  0  0  0  0  0  0  0  0
   -0.8344   -0.9776    0.7651 C   0  0  0  0  0  0  0  0  0  0  0  0
   -0.9414   -1.7797    1.8745 N   0  0  0  0  0  0  0  0  0  0  0  0
   -1.6841   -2.8291    1.5568 C   0  0  0  0  0  0  0  0  0  0  0  0
   -2.1003   -3.9313    2.2945 C   0  0  0  0  0  0  0  0  0  0  0  0
   -1.7342   -4.0568    3.5916 F   0  0  0  0  0  0  0  0  0  0  0  0
   -2.8844   -4.8804    1.6795 C   0  0  0  0  0  0  0  0  0  0  0  0
   -3.2587   -4.7501    0.3488 C   0  0  0  0  0  0  0  0  0  0  0  0
   -4.0268   -5.6659   -0.2765 F   0  0  0  0  0  0  0  0  0  0  0  0
   -2.8212   -3.6367   -0.3461 C   0  0  0  0  0  0  0  0  0  0  0  0
   -2.0371   -2.6634    0.2260 C   0  0  0  0  0  0  0  0  0  0  0  0
   -1.5028   -1.5192   -0.2368 N   0  0  0  0  0  0  0  0  0  0  0  0
    1.1528    2.1346    0.0473 C   0  0  0  0  0  0  0  0  0  0  0  0
    1.6155    3.0333   -0.8732 C   0  0  0  0  0  0  0  0  0  0  0  0
    2.5970    3.9387   -0.5346 C   0  0  0  0  0  0  0  0  0  0  0  0
    3.1176    3.9324    0.7591 C   0  0  0  0  0  0  0  0  0  0  0  0
    4.3577    5.0401    1.2677 Cl  0  0  0  0  0  0  0  0  0  0  0  0
    2.6335    3.0227    1.6523 C   0  0  0  0  0  0  0  0  0  0  0  0
    1.6734    2.1587    1.2710 N   0  0  0  0  0  0  0  0  0  0  0  0
    0.1887    0.4276   -2.7316 C   0  0  0  0  0  0  0  0  0  0  0  0
    2.3474   -1.7381   -4.2027 H   0  0  0  0  0  0  0  0  0  0  0  0
    2.8618   -4.7390    0.0804 H   0  0  0  0  0  0  0  0  0  0  0  0
    2.1313   -0.5466   -0.1347 H   0  0  0  0  0  0  0  0  0  0  0  0
   -1.9773    1.1244   -0.9575 H   0  0  0  0  0  0  0  0  0  0  0  0
   -1.0233    2.5055   -1.5365 H   0  0  0  0  0  0  0  0  0  0  0  0
   -2.9350    0.9819    1.2388 H   0  0  0  0  0  0  0  0  0  0  0  0
   -3.8401    2.2696    3.1587 H   0  0  0  0  0  0  0  0  0  0  0  0
   -3.1682    4.5959    3.4932 H   0  0  0  0  0  0  0  0  0  0  0  0
   -1.5988    5.6810    1.9421 H   0  0  0  0  0  0  0  0  0  0  0  0
   -0.7297    4.4301    0.0885 H   0  0  0  0  0  0  0  0  0  0  0  0
    0.3970    0.5073    1.7003 H   0  0  0  0  0  0  0  0  0  0  0  0
   -3.2241   -5.7585    2.2433 H   0  0  0  0  0  0  0  0  0  0  0  0
   -3.0886   -3.4949   -1.3834 H   0  0  0  0  0  0  0  0  0  0  0  0
   -1.6257   -1.1856   -1.2006 H   0  0  0  0  0  0  0  0  0  0  0  0
    1.2067    3.0278   -1.8657 H   0  0  0  0  0  0  0  0  0  0  0  0
    2.9949    4.6621   -1.2130 H   0  0  0  0  0  0  0  0  0  0  0  0
    2.9905    2.9606    2.6717 H   0  0  0  0  0  0  0  0  0  0  0  0
   -0.6361    1.0599   -2.9550 H   0  0  0  0  0  0  0  0  0  0  0  0
  1  2  1  0
  2  3  2  0
  3  4  1  0
  4  5  1  0
  5  6  1  0
  6  7  1  0
  6  8  1  0
  6  9  1  0
  9 10  1  0
  9 11  1  0
  4 12  2  0
 12 13  1  0
 13 14  1  0
 14 15  1  0
 15 16  1  0
 16 17  2  0
 17 18  1  0
 18 19  2  0
 19 20  1  0
 20 21  2  0
 14 22  1  1
 22 23  1  0
 23 24  2  0
 24 25  1  0
 25 26  2  0
 26 27  1  0
 26 28  1  0
 28 29  2  0
 29 30  1  0
 29 31  1  0
 31 32  2  0
 32 33  1  0
 14 34  1  0
 34 35  2  0
 35 36  1  0
 36 37  2  0
 37 38  1  0
 37 39  1  0
 39 40  2  0
 13 41  2  0
 41  2  1  0
 21 16  1  0
 33 23  1  0
 40 34  1  0
 32 25  1  0
  3 42  1  0
  9 43  1  0
 12 44  1  0
 15 45  1  0
 15 46  1  0
 17 47  1  0
 18 48  1  0
 19 49  1  0
 20 50  1  0
 21 51  1  0
 22 52  1  0
 28 53  1  0
 31 54  1  0
 33 55  1  0
 35 56  1  0
 36 57  1  0
 39 58  1  0
 41 59  1  0
M  END
$$$$
