@<TRIPOS>MOLECULE
*****
 49 51 0 0 0
SMALL
GASTEIGER

@<TRIPOS>ATOM
      1 O           6.9476    1.2216   -0.8805 O.2     1  UNL1       -0.2737
      2 C           7.4126    0.4607   -0.0039 C.2     1  UNL1        0.2354
      3 C           7.0277   -0.9363    0.1009 C.3     1  UNL1        0.0259
      4 C           5.7803   -1.3962   -0.5169 C.3     1  UNL1       -0.0440
      5 C           4.4855   -0.9407    0.0470 C.3     1  UNL1       -0.0431
      6 C           4.2592    0.5120    0.0791 C.3     1  UNL1        0.0011
      7 S           2.5713    0.8938    0.7305 S.3     1  UNL1       -0.0878
      8 C           1.3925    0.4205   -0.5078 C.ar    1  UNL1        0.1695
      9 N           0.0515    0.4050   -0.2141 N.ar    1  UNL1       -0.2232
     10 C          -0.8845    0.0321   -1.1058 C.ar    1  UNL1        0.0789
     11 C          -2.2862    0.0389   -0.7325 C.ar    1  UNL1        0.0006
     12 C          -2.6830    0.4315    0.5524 C.ar    1  UNL1       -0.0520
     13 C          -4.0082    0.4461    0.9306 C.ar    1  UNL1       -0.0534
     14 C          -4.9915    0.0707    0.0459 C.ar    1  UNL1       -0.0178
     15 C          -6.3815    0.1050    0.5013 C.ar    1  UNL1       -0.0179
     16 C          -7.4071    0.3747   -0.3787 C.ar    1  UNL1       -0.0540
     17 C          -8.7333    0.4056    0.0610 C.ar    1  UNL1       -0.0612
     18 C          -9.0163    0.1633    1.3894 C.ar    1  UNL1       -0.0617
     19 C          -7.9973   -0.1075    2.2778 C.ar    1  UNL1       -0.0612
     20 C          -6.6803   -0.1346    1.8234 C.ar    1  UNL1       -0.0540
     21 C          -4.6414   -0.3190   -1.2184 C.ar    1  UNL1       -0.0534
     22 C          -3.2992   -0.3250   -1.5751 C.ar    1  UNL1       -0.0520
     23 C          -0.4530   -0.3424   -2.3496 C.ar    1  UNL1        0.0288
     24 C           0.9136   -0.3345   -2.6743 C.ar    1  UNL1        0.2526
     25 O           1.3089   -0.6780   -3.8151 O.2     1  UNL1       -0.2678
     26 N           1.7995    0.0543   -1.7233 N.ar    1  UNL1       -0.3019
     27 N           8.3581    1.0691    0.8966 N.am    1  UNL1       -0.1975
     28 O           8.7214    2.3553    0.8121 O.3     1  UNL1       -0.2952
     29 H           7.0079   -1.2821    1.1949 H       1  UNL1        0.0359
     30 H           7.8681   -1.5300   -0.3618 H       1  UNL1        0.0359
     31 H           5.8202   -1.1274   -1.6342 H       1  UNL1        0.0270
     32 H           5.8044   -2.5422   -0.5629 H       1  UNL1        0.0270
     33 H           3.6723   -1.4686   -0.5314 H       1  UNL1        0.0273
     34 H           4.4029   -1.3381    1.1267 H       1  UNL1        0.0273
     35 H           4.9916    1.0577    0.7364 H       1  UNL1        0.0381
     36 H           4.2893    0.9707   -0.9138 H       1  UNL1        0.0381
     37 H          -1.8936    0.7231    1.2340 H       1  UNL1        0.0624
     38 H          -4.3143    0.7552    1.9375 H       1  UNL1        0.0624
     39 H          -7.1477    0.5601   -1.4135 H       1  UNL1        0.0624
     40 H          -9.5055    0.6246   -0.6811 H       1  UNL1        0.0618
     41 H         -10.0414    0.1872    1.7308 H       1  UNL1        0.0618
     42 H          -8.2537   -0.2941    3.3176 H       1  UNL1        0.0618
     43 H          -5.9039   -0.3524    2.5534 H       1  UNL1        0.0624
     44 H          -5.4205   -0.6119   -1.9057 H       1  UNL1        0.0624
     45 H          -3.0658   -0.6458   -2.6030 H       1  UNL1        0.0624
     46 H          -1.1615   -0.6546   -3.1129 H       1  UNL1        0.0693
     47 H           2.8073    0.0799   -1.9653 H       1  UNL1        0.1708
     48 H           8.7597    0.4647    1.6314 H       1  UNL1        0.1822
     49 H           9.7168    2.4780    0.7976 H       1  UNL1        0.2414
@<TRIPOS>BOND
     1     1     2    2
     2     2     3    1
     3     3     4    1
     4     4     5    1
     5     5     6    1
     6     6     7    1
     7     7     8    1
     8     8     9   ar
     9     9    10   ar
    10    10    11    1
    11    11    12   ar
    12    12    13   ar
    13    13    14   ar
    14    14    15    1
    15    15    16   ar
    16    16    17   ar
    17    17    18   ar
    18    18    19   ar
    19    19    20   ar
    20    14    21   ar
    21    21    22   ar
    22    10    23   ar
    23    23    24   ar
    24    24    25    2
    25    24    26   ar
    26     2    27   am
    27    27    28    1
    28    26     8   ar
    29    22    11   ar
    30    20    15   ar
    31     3    29    1
    32     3    30    1
    33     4    31    1
    34     4    32    1
    35     5    33    1
    36     5    34    1
    37     6    35    1
    38     6    36    1
    39    12    37    1
    40    13    38    1
    41    16    39    1
    42    17    40    1
    43    18    41    1
    44    19    42    1
    45    20    43    1
    46    21    44    1
    47    22    45    1
    48    23    46    1
    49    26    47    1
    50    27    48    1
    51    28    49    1
