
     RDKit          3D

 49 51  0  0  0  0  0  0  0  0999 V2000
    6.9476    1.2216   -0.8805 O   0  0  0  0  0  0  0  0  0  0  0  0
    7.4126    0.4607   -0.0039 C   0  0  0  0  0  0  0  0  0  0  0  0
    7.0277   -0.9363    0.1009 C   0  0  0  0  0  0  0  0  0  0  0  0
    5.7803   -1.3962   -0.5169 C   0  0  0  0  0  0  0  0  0  0  0  0
    4.4855   -0.9407    0.0470 C   0  0  0  0  0  0  0  0  0  0  0  0
    4.2592    0.5120    0.0791 C   0  0  0  0  0  0  0  0  0  0  0  0
    2.5713    0.8938    0.7305 S   0  0  0  0  0  0  0  0  0  0  0  0
    1.3925    0.4205   -0.5078 C   0  0  0  0  0  0  0  0  0  0  0  0
    0.0515    0.4050   -0.2141 N   0  0  0  0  0  0  0  0  0  0  0  0
   -0.8845    0.0321   -1.1058 C   0  0  0  0  0  0  0  0  0  0  0  0
   -2.2862    0.0389   -0.7325 C   0  0  0  0  0  0  0  0  0  0  0  0
   -2.6830    0.4315    0.5524 C   0  0  0  0  0  0  0  0  0  0  0  0
   -4.0082    0.4461    0.9306 C   0  0  0  0  0  0  0  0  0  0  0  0
   -4.9915    0.0707    0.0459 C   0  0  0  0  0  0  0  0  0  0  0  0
   -6.3815    0.1050    0.5013 C   0  0  0  0  0  0  0  0  0  0  0  0
   -7.4071    0.3747   -0.3787 C   0  0  0  0  0  0  0  0  0  0  0  0
   -8.7333    0.4056    0.0610 C   0  0  0  0  0  0  0  0  0  0  0  0
   -9.0163    0.1633    1.3894 C   0  0  0  0  0  0  0  0  0  0  0  0
   -7.9973   -0.1075    2.2778 C   0  0  0  0  0  0  0  0  0  0  0  0
   -6.6803   -0.1346    1.8234 C   0  0  0  0  0  0  0  0  0  0  0  0
   -4.6414   -0.3190   -1.2184 C   0  0  0  0  0  0  0  0  0  0  0  0
   -3.2992   -0.3250   -1.5751 C   0  0  0  0  0  0  0  0  0  0  0  0
   -0.4530   -0.3424   -2.3496 C   0  0  0  0  0  0  0  0  0  0  0  0
    0.9136   -0.3345   -2.6743 C   0  0  0  0  0  0  0  0  0  0  0  0
    1.3089   -0.6780   -3.8151 O   0  0  0  0  0  0  0  0  0  0  0  0
    1.7995    0.0543   -1.7233 N   0  0  0  0  0  0  0  0  0  0  0  0
    8.3581    1.0691    0.8966 N   0  0  0  0  0  0  0  0  0  0  0  0
    8.7214    2.3553    0.8121 O   0  0  0  0  0  0  0  0  0  0  0  0
    7.0079   -1.2821    1.1949 H   0  0  0  0  0  0  0  0  0  0  0  0
    7.8681   -1.5300   -0.3618 H   0  0  0  0  0  0  0  0  0  0  0  0
    5.8202   -1.1274   -1.6342 H   0  0  0  0  0  0  0  0  0  0  0  0
    5.8044   -2.5422   -0.5629 H   0  0  0  0  0  0  0  0  0  0  0  0
    3.6723   -1.4686   -0.5314 H   0  0  0  0  0  0  0  0  0  0  0  0
    4.4029   -1.3381    1.1267 H   0  0  0  0  0  0  0  0  0  0  0  0
    4.9916    1.0577    0.7364 H   0  0  0  0  0  0  0  0  0  0  0  0
    4.2893    0.9707   -0.9138 H   0  0  0  0  0  0  0  0  0  0  0  0
   -1.8936    0.7231    1.2340 H   0  0  0  0  0  0  0  0  0  0  0  0
   -4.3143    0.7552    1.9375 H   0  0  0  0  0  0  0  0  0  0  0  0
   -7.1477    0.5601   -1.4135 H   0  0  0  0  0  0  0  0  0  0  0  0
   -9.5055    0.6246   -0.6811 H   0  0  0  0  0  0  0  0  0  0  0  0
  -10.0414    0.1872    1.7308 H   0  0  0  0  0  0  0  0  0  0  0  0
   -8.2537   -0.2941    3.3176 H   0  0  0  0  0  0  0  0  0  0  0  0
   -5.9039   -0.3524    2.5534 H   0  0  0  0  0  0  0  0  0  0  0  0
   -5.4205   -0.6119   -1.9057 H   0  0  0  0  0  0  0  0  0  0  0  0
   -3.0658   -0.6458   -2.6030 H   0  0  0  0  0  0  0  0  0  0  0  0
   -1.1615   -0.6546   -3.1129 H   0  0  0  0  0  0  0  0  0  0  0  0
    2.8073    0.0799   -1.9653 H   0  0  0  0  0  0  0  0  0  0  0  0
    8.7597    0.4647    1.6314 H   0  0  0  0  0  0  0  0  0  0  0  0
    9.7168    2.4780    0.7976 H   0  0  0  0  0  0  0  0  0  0  0  0
  1  2  2  0
  2  3  1  0
  3  4  1  0
  4  5  1  0
  5  6  1  0
  6  7  1  0
  7  8  1  0
  8  9  2  0
  9 10  1  0
 10 11  1  0
 11 12  2  0
 12 13  1  0
 13 14  2  0
 14 15  1  0
 15 16  2  0
 16 17  1  0
 17 18  2  0
 18 19  1  0
 19 20  2  0
 14 21  1  0
 21 22  2  0
 10 23  2  0
 23 24  1  0
 24 25  2  0
 24 26  1  0
  2 27  1  0
 27 28  1  0
 26  8  1  0
 22 11  1  0
 20 15  1  0
  3 29  1  0
  3 30  1  0
  4 31  1  0
  4 32  1  0
  5 33  1  0
  5 34  1  0
  6 35  1  0
  6 36  1  0
 12 37  1  0
 13 38  1  0
 16 39  1  0
 17 40  1  0
 18 41  1  0
 19 42  1  0
 20 43  1  0
 21 44  1  0
 22 45  1  0
 23 46  1  0
 26 47  1  0
 27 48  1  0
 28 49  1  0
M  END
$$$$
