
     RDKit          3D

 57 61  0  0  0  0  0  0  0  0999 V2000
    1.3485    2.4158    2.7061 C   0  0  0  0  0  0  0  0  0  0  0  0
    2.2028    2.0813    1.6363 O   0  0  0  0  0  0  0  0  0  0  0  0
    1.6862    1.3177    0.5909 C   0  0  0  0  0  0  0  0  0  0  0  0
    0.3761    0.9222    0.6396 C   0  0  0  0  0  0  0  0  0  0  0  0
   -0.1361    0.1621   -0.4020 C   0  0  0  0  0  0  0  0  0  0  0  0
   -1.4850   -0.2298   -0.3242 N   0  0  0  0  0  0  0  0  0  0  0  0
   -1.8946   -1.4918   -0.5170 C   0  0  0  0  0  0  0  0  0  0  0  0
   -3.1431   -1.9047   -0.4539 N   0  0  0  0  0  0  0  0  0  0  0  0
   -4.1765   -1.0251   -0.1702 C   0  0  0  0  0  0  0  0  0  0  0  0
   -5.4925   -1.3063   -0.0743 C   0  0  0  0  0  0  0  0  0  0  0  0
   -6.3487   -0.2909    0.2153 C   0  0  0  0  0  0  0  0  0  0  0  0
   -7.8070   -0.2705    0.3847 C   0  0  0  0  0  0  0  0  0  0  0  0
   -8.4711    0.8996    0.6815 C   0  0  0  0  0  0  0  0  0  0  0  0
   -9.8393    0.8704    0.8315 C   0  0  0  0  0  0  0  0  0  0  0  0
  -10.5200   -0.3194    0.6837 C   0  0  0  0  0  0  0  0  0  0  0  0
  -12.2556   -0.3335    0.8782 Cl  0  0  0  0  0  0  0  0  0  0  0  0
   -9.8234   -1.4860    0.3838 C   0  0  0  0  0  0  0  0  0  0  0  0
   -8.4516   -1.4515    0.2344 C   0  0  0  0  0  0  0  0  0  0  0  0
   -5.2594    1.1082    0.3570 S   0  0  0  0  0  0  0  0  0  0  0  0
   -3.7695    0.2558    0.0265 C   0  0  0  0  0  0  0  0  0  0  0  0
   -2.4412    0.6673   -0.0459 C   0  0  0  0  0  0  0  0  0  0  0  0
   -2.2164    1.8802    0.1586 O   0  0  0  0  0  0  0  0  0  0  0  0
    0.6765   -0.1737   -1.4509 C   0  0  0  0  0  0  0  0  0  0  0  0
    1.9904    0.2274   -1.4928 C   0  0  0  0  0  0  0  0  0  0  0  0
    2.5170    0.9707   -0.4874 C   0  0  0  0  0  0  0  0  0  0  0  0
    3.7890    1.3947   -0.4595 O   0  0  0  0  0  0  0  0  0  0  0  0
    4.8794    1.2571   -1.2696 C   0  0  0  0  0  0  0  0  0  0  0  0
    5.4286   -0.1046   -1.4959 C   0  0  0  0  0  0  0  0  0  0  0  0
    5.8563   -0.7650   -0.2826 N   0  0  0  0  0  0  0  0  0  0  0  0
    6.3798   -2.0881   -0.5379 C   0  0  0  0  0  0  0  0  0  0  0  0
    7.8992   -1.9355   -0.6053 C   0  0  0  0  0  0  0  0  0  0  0  0
    8.1751   -0.6329    0.0913 C   0  0  0  0  0  0  0  0  0  0  0  0
    6.8303   -0.0516    0.4707 C   0  0  0  0  0  0  0  0  0  0  0  0
    1.0637    1.5155    3.3056 H   0  0  0  0  0  0  0  0  0  0  0  0
    1.9342    3.0560    3.4240 H   0  0  0  0  0  0  0  0  0  0  0  0
    0.4282    2.9095    2.3788 H   0  0  0  0  0  0  0  0  0  0  0  0
   -0.2729    1.1877    1.4723 H   0  0  0  0  0  0  0  0  0  0  0  0
   -1.1254   -2.2230   -0.7428 H   0  0  0  0  0  0  0  0  0  0  0  0
   -5.9325   -2.3375   -0.2200 H   0  0  0  0  0  0  0  0  0  0  0  0
   -7.8751    1.7955    0.7833 H   0  0  0  0  0  0  0  0  0  0  0  0
  -10.3577    1.8093    1.0681 H   0  0  0  0  0  0  0  0  0  0  0  0
  -10.4073   -2.4004    0.2771 H   0  0  0  0  0  0  0  0  0  0  0  0
   -7.9571   -2.4026   -0.0018 H   0  0  0  0  0  0  0  0  0  0  0  0
    0.2755   -0.7728   -2.2735 H   0  0  0  0  0  0  0  0  0  0  0  0
    2.5796   -0.0670   -2.3704 H   0  0  0  0  0  0  0  0  0  0  0  0
    5.6648    2.0001   -0.9749 H   0  0  0  0  0  0  0  0  0  0  0  0
    4.5669    1.6332   -2.3007 H   0  0  0  0  0  0  0  0  0  0  0  0
    4.7486   -0.7275   -2.0622 H   0  0  0  0  0  0  0  0  0  0  0  0
    6.3663   -0.0288   -2.1300 H   0  0  0  0  0  0  0  0  0  0  0  0
    6.1725   -2.7122    0.3556 H   0  0  0  0  0  0  0  0  0  0  0  0
    5.9850   -2.5379   -1.4697 H   0  0  0  0  0  0  0  0  0  0  0  0
    8.3750   -2.8048   -0.1167 H   0  0  0  0  0  0  0  0  0  0  0  0
    8.2140   -1.8894   -1.6800 H   0  0  0  0  0  0  0  0  0  0  0  0
    8.7525    0.0827   -0.5619 H   0  0  0  0  0  0  0  0  0  0  0  0
    8.8250   -0.8042    0.9726 H   0  0  0  0  0  0  0  0  0  0  0  0
    6.6761   -0.3210    1.5563 H   0  0  0  0  0  0  0  0  0  0  0  0
    6.7960    1.0327    0.4100 H   0  0  0  0  0  0  0  0  0  0  0  0
  1  2  1  0
  2  3  1  0
  3  4  2  0
  4  5  1  0
  5  6  1  0
  6  7  1  0
  7  8  2  0
  8  9  1  0
  9 10  1  0
 10 11  2  0
 11 12  1  0
 12 13  2  0
 13 14  1  0
 14 15  2  0
 15 16  1  0
 15 17  1  0
 17 18  2  0
 11 19  1  0
 19 20  1  0
 20 21  1  0
 21 22  2  0
  5 23  2  0
 23 24  1  0
 24 25  2  0
 25 26  1  0
 26 27  1  0
 27 28  1  0
 28 29  1  0
 29 30  1  0
 30 31  1  0
 31 32  1  0
 32 33  1  0
 25  3  1  0
 33 29  1  0
 21  6  1  0
 20  9  2  0
 18 12  1  0
  1 34  1  0
  1 35  1  0
  1 36  1  0
  4 37  1  0
  7 38  1  0
 10 39  1  0
 13 40  1  0
 14 41  1  0
 17 42  1  0
 18 43  1  0
 23 44  1  0
 24 45  1  0
 27 46  1  0
 27 47  1  0
 28 48  1  0
 28 49  1  0
 30 50  1  0
 30 51  1  0
 31 52  1  0
 31 53  1  0
 32 54  1  0
 32 55  1  0
 33 56  1  0
 33 57  1  0
M  END
$$$$
