@<TRIPOS>MOLECULE
*****
 57 61 0 0 0
SMALL
GASTEIGER

@<TRIPOS>ATOM
      1 C           1.3485    2.4158    2.7061 C.3     1  UNL1        0.0790
      2 O           2.2028    2.0813    1.6363 O.3     1  UNL1       -0.4914
      3 C           1.6862    1.3177    0.5909 C.ar    1  UNL1        0.1635
      4 C           0.3761    0.9222    0.6396 C.ar    1  UNL1        0.0077
      5 C          -0.1361    0.1621   -0.4020 C.ar    1  UNL1        0.0546
      6 N          -1.4850   -0.2298   -0.3242 N.ar    1  UNL1       -0.2665
      7 C          -1.8946   -1.4918   -0.5170 C.ar    1  UNL1        0.1039
      8 N          -3.1431   -1.9047   -0.4539 N.ar    1  UNL1       -0.2360
      9 C          -4.1765   -1.0251   -0.1702 C.ar    1  UNL1        0.0856
     10 C          -5.4925   -1.3063   -0.0743 C.ar    1  UNL1       -0.0207
     11 C          -6.3487   -0.2909    0.2153 C.ar    1  UNL1        0.0221
     12 C          -7.8070   -0.2705    0.3847 C.ar    1  UNL1       -0.0111
     13 C          -8.4711    0.8996    0.6815 C.ar    1  UNL1       -0.0522
     14 C          -9.8393    0.8704    0.8315 C.ar    1  UNL1       -0.0428
     15 C         -10.5200   -0.3194    0.6837 C.ar    1  UNL1        0.0410
     16 CL        -12.2556   -0.3335    0.8782 Cl      1  UNL1       -0.0835
     17 C          -9.8234   -1.4860    0.3838 C.ar    1  UNL1       -0.0428
     18 C          -8.4516   -1.4515    0.2344 C.ar    1  UNL1       -0.0522
     19 S          -5.2594    1.1082    0.3570 S.2     1  UNL1       -0.0813
     20 C          -3.7695    0.2558    0.0265 C.ar    1  UNL1        0.1030
     21 C          -2.4412    0.6673   -0.0459 C.ar    1  UNL1        0.2727
     22 O          -2.2164    1.8802    0.1586 O.2     1  UNL1       -0.2660
     23 C           0.6765   -0.1737   -1.4509 C.ar    1  UNL1       -0.0340
     24 C           1.9904    0.2274   -1.4928 C.ar    1  UNL1       -0.0143
     25 C           2.5170    0.9707   -0.4874 C.ar    1  UNL1        0.1621
     26 O           3.7890    1.3947   -0.4595 O.3     1  UNL1       -0.4870
     27 C           4.8794    1.2571   -1.2696 C.3     1  UNL1        0.1024
     28 C           5.4286   -0.1046   -1.4959 C.3     1  UNL1        0.0331
     29 N           5.8563   -0.7650   -0.2826 N.3     1  UNL1       -0.2991
     30 C           6.3798   -2.0881   -0.5379 C.3     1  UNL1       -0.0010
     31 C           7.8992   -1.9355   -0.6053 C.3     1  UNL1       -0.0390
     32 C           8.1751   -0.6329    0.0913 C.3     1  UNL1       -0.0390
     33 C           6.8303   -0.0516    0.4707 C.3     1  UNL1       -0.0010
     34 H           1.0637    1.5155    3.3056 H       1  UNL1        0.0660
     35 H           1.9342    3.0560    3.4240 H       1  UNL1        0.0660
     36 H           0.4282    2.9095    2.3788 H       1  UNL1        0.0660
     37 H          -0.2729    1.1877    1.4723 H       1  UNL1        0.0676
     38 H          -1.1254   -2.2230   -0.7428 H       1  UNL1        0.1033
     39 H          -5.9325   -2.3375   -0.2200 H       1  UNL1        0.0650
     40 H          -7.8751    1.7955    0.7833 H       1  UNL1        0.0624
     41 H         -10.3577    1.8093    1.0681 H       1  UNL1        0.0632
     42 H         -10.4073   -2.4004    0.2771 H       1  UNL1        0.0632
     43 H          -7.9571   -2.4026   -0.0018 H       1  UNL1        0.0624
     44 H           0.2755   -0.7728   -2.2735 H       1  UNL1        0.0639
     45 H           2.5796   -0.0670   -2.3704 H       1  UNL1        0.0656
     46 H           5.6648    2.0001   -0.9749 H       1  UNL1        0.0709
     47 H           4.5669    1.6332   -2.3007 H       1  UNL1        0.0709
     48 H           4.7486   -0.7275   -2.0622 H       1  UNL1        0.0460
     49 H           6.3663   -0.0288   -2.1300 H       1  UNL1        0.0460
     50 H           6.1725   -2.7122    0.3556 H       1  UNL1        0.0427
     51 H           5.9850   -2.5379   -1.4697 H       1  UNL1        0.0427
     52 H           8.3750   -2.8048   -0.1167 H       1  UNL1        0.0278
     53 H           8.2140   -1.8894   -1.6800 H       1  UNL1        0.0278
     54 H           8.7525    0.0827   -0.5619 H       1  UNL1        0.0278
     55 H           8.8250   -0.8042    0.9726 H       1  UNL1        0.0278
     56 H           6.6761   -0.3210    1.5563 H       1  UNL1        0.0427
     57 H           6.7960    1.0327    0.4100 H       1  UNL1        0.0427
@<TRIPOS>BOND
     1     1     2    1
     2     2     3    1
     3     3     4   ar
     4     4     5   ar
     5     5     6    1
     6     6     7   ar
     7     7     8   ar
     8     8     9   ar
     9     9    10   ar
    10    10    11   ar
    11    11    12    1
    12    12    13   ar
    13    13    14   ar
    14    14    15   ar
    15    15    16    1
    16    15    17   ar
    17    17    18   ar
    18    11    19   ar
    19    19    20   ar
    20    20    21   ar
    21    21    22    2
    22     5    23   ar
    23    23    24   ar
    24    24    25   ar
    25    25    26    1
    26    26    27    1
    27    27    28    1
    28    28    29    1
    29    29    30    1
    30    30    31    1
    31    31    32    1
    32    32    33    1
    33    25     3   ar
    34    33    29    1
    35    21     6   ar
    36    20     9   ar
    37    18    12   ar
    38     1    34    1
    39     1    35    1
    40     1    36    1
    41     4    37    1
    42     7    38    1
    43    10    39    1
    44    13    40    1
    45    14    41    1
    46    17    42    1
    47    18    43    1
    48    23    44    1
    49    24    45    1
    50    27    46    1
    51    27    47    1
    52    28    48    1
    53    28    49    1
    54    30    50    1
    55    30    51    1
    56    31    52    1
    57    31    53    1
    58    32    54    1
    59    32    55    1
    60    33    56    1
    61    33    57    1
