
     RDKit          3D

 46 48  0  0  0  0  0  0  0  0999 V2000
    4.6880    0.8921    0.8756 O   0  0  0  0  0  0  0  0  0  0  0  0
    3.8288    1.1024    1.7542 C   0  0  0  0  0  0  0  0  0  0  0  0
    4.3268    1.5604    2.9897 O   0  0  0  0  0  0  0  0  0  0  0  0
    2.3723    0.9066    1.5822 C   0  0  2  0  0  0  0  0  0  0  0  0
    1.8226    1.8135    0.5062 C   0  0  0  0  0  0  0  0  0  0  0  0
    2.4525    1.5747   -0.7984 C   0  0  0  0  0  0  0  0  0  0  0  0
    1.9266    0.5972   -1.6463 C   0  0  0  0  0  0  0  0  0  0  0  0
    2.5162    0.3757   -2.8900 C   0  0  0  0  0  0  0  0  0  0  0  0
    3.6082    1.0882   -3.3233 C   0  0  0  0  0  0  0  0  0  0  0  0
    4.1222    2.0520   -2.4811 C   0  0  0  0  0  0  0  0  0  0  0  0
    3.5422    2.2729   -1.2530 C   0  0  0  0  0  0  0  0  0  0  0  0
    1.6521    1.1982    2.7904 N   0  0  0  0  0  0  0  0  0  0  0  0
    0.7462   -0.1198    3.3979 S   0  0  0  0  0  6  0  0  0  0  0  0
    1.6256   -1.3265    3.6373 O   0  0  0  0  0  0  0  0  0  0  0  0
    0.0483    0.2050    4.6741 O   0  0  0  0  0  0  0  0  0  0  0  0
   -0.4493   -0.5840    2.2324 C   0  0  0  0  0  0  0  0  0  0  0  0
   -0.2296   -1.5529    1.2806 C   0  0  0  0  0  0  0  0  0  0  0  0
   -1.2022   -1.9079    0.3531 C   0  0  0  0  0  0  0  0  0  0  0  0
   -2.4268   -1.2864    0.3682 C   0  0  0  0  0  0  0  0  0  0  0  0
   -3.4931   -1.6168   -0.5837 C   0  0  0  0  0  0  0  0  0  0  0  0
   -4.8202   -1.5127   -0.2267 C   0  0  0  0  0  0  0  0  0  0  0  0
   -5.8114   -1.8261   -1.1306 C   0  0  0  0  0  0  0  0  0  0  0  0
   -5.5091   -2.2502   -2.4103 C   0  0  0  0  0  0  0  0  0  0  0  0
   -6.8965   -2.6819   -3.6547 Br  0  0  0  0  0  0  0  0  0  0  0  0
   -4.1778   -2.3449   -2.7393 C   0  0  0  0  0  0  0  0  0  0  0  0
   -3.1765   -2.0340   -1.8431 C   0  0  0  0  0  0  0  0  0  0  0  0
   -2.6418   -0.3146    1.3259 C   0  0  0  0  0  0  0  0  0  0  0  0
   -1.6761    0.0377    2.2467 C   0  0  0  0  0  0  0  0  0  0  0  0
    5.1478    2.1255    3.0481 H   0  0  0  0  0  0  0  0  0  0  0  0
    2.1433   -0.1679    1.3395 H   0  0  0  0  0  0  0  0  0  0  0  0
    1.8937    2.8735    0.8273 H   0  0  0  0  0  0  0  0  0  0  0  0
    0.7253    1.6221    0.3703 H   0  0  0  0  0  0  0  0  0  0  0  0
    1.0741    0.0417   -1.3067 H   0  0  0  0  0  0  0  0  0  0  0  0
    2.0664   -0.3897   -3.4973 H   0  0  0  0  0  0  0  0  0  0  0  0
    4.0644    0.9090   -4.2980 H   0  0  0  0  0  0  0  0  0  0  0  0
    4.9946    2.6634   -2.7571 H   0  0  0  0  0  0  0  0  0  0  0  0
    3.9607    3.0480   -0.6018 H   0  0  0  0  0  0  0  0  0  0  0  0
    1.0107    2.0059    2.6610 H   0  0  0  0  0  0  0  0  0  0  0  0
    0.7289   -2.0848    1.2225 H   0  0  0  0  0  0  0  0  0  0  0  0
   -1.0404   -2.6640   -0.3950 H   0  0  0  0  0  0  0  0  0  0  0  0
   -5.0957   -1.1790    0.7813 H   0  0  0  0  0  0  0  0  0  0  0  0
   -6.8681   -1.7478   -0.8603 H   0  0  0  0  0  0  0  0  0  0  0  0
   -3.9344   -2.6803   -3.7515 H   0  0  0  0  0  0  0  0  0  0  0  0
   -2.1273   -2.1254   -2.1529 H   0  0  0  0  0  0  0  0  0  0  0  0
   -3.6104    0.1893    1.3515 H   0  0  0  0  0  0  0  0  0  0  0  0
   -1.9017    0.8169    2.9852 H   0  0  0  0  0  0  0  0  0  0  0  0
  1  2  2  0
  2  3  1  0
  2  4  1  0
  4  5  1  0
  5  6  1  0
  6  7  2  0
  7  8  1  0
  8  9  2  0
  9 10  1  0
 10 11  2  0
  4 12  1  0
 12 13  1  0
 13 14  2  0
 13 15  2  0
 13 16  1  0
 16 17  2  0
 17 18  1  0
 18 19  2  0
 19 20  1  0
 20 21  2  0
 21 22  1  0
 22 23  2  0
 23 24  1  0
 23 25  1  0
 25 26  2  0
 19 27  1  0
 27 28  2  0
 11  6  1  0
 28 16  1  0
 26 20  1  0
  3 29  1  0
  4 30  1  6
  5 31  1  0
  5 32  1  0
  7 33  1  0
  8 34  1  0
  9 35  1  0
 10 36  1  0
 11 37  1  0
 12 38  1  0
 17 39  1  0
 18 40  1  0
 21 41  1  0
 22 42  1  0
 25 43  1  0
 26 44  1  0
 27 45  1  0
 28 46  1  0
M  END
$$$$
