@<TRIPOS>MOLECULE
*****
 46 48 0 0 0
SMALL
GASTEIGER

@<TRIPOS>ATOM
      1 O           4.6880    0.8921    0.8756 O.2     1  UNL1       -0.2492
      2 C           3.8288    1.1024    1.7542 C.2     1  UNL1        0.3239
      3 O           4.3268    1.5604    2.9897 O.3     1  UNL1       -0.4795
      4 C           2.3723    0.9066    1.5822 C.3     1  UNL1        0.1292
      5 C           1.8226    1.8135    0.5062 C.3     1  UNL1       -0.0003
      6 C           2.4525    1.5747   -0.7984 C.ar    1  UNL1       -0.0453
      7 C           1.9266    0.5972   -1.6463 C.ar    1  UNL1       -0.0585
      8 C           2.5162    0.3757   -2.8900 C.ar    1  UNL1       -0.0615
      9 C           3.6082    1.0882   -3.3233 C.ar    1  UNL1       -0.0617
     10 C           4.1222    2.0520   -2.4811 C.ar    1  UNL1       -0.0615
     11 C           3.5422    2.2729   -1.2530 C.ar    1  UNL1       -0.0585
     12 N           1.6521    1.1982    2.7904 N.3     1  UNL1       -0.1758
     13 S           0.7462   -0.1198    3.3979 S.O2    1  UNL1        0.0591
     14 O           1.6256   -1.3265    3.6373 O.2     1  UNL1       -0.1530
     15 O           0.0483    0.2050    4.6741 O.2     1  UNL1       -0.1530
     16 C          -0.4493   -0.5840    2.2324 C.ar    1  UNL1        0.1053
     17 C          -0.2296   -1.5529    1.2806 C.ar    1  UNL1       -0.0348
     18 C          -1.2022   -1.9079    0.3531 C.ar    1  UNL1       -0.0522
     19 C          -2.4268   -1.2864    0.3682 C.ar    1  UNL1       -0.0178
     20 C          -3.4931   -1.6168   -0.5837 C.ar    1  UNL1       -0.0178
     21 C          -4.8202   -1.5127   -0.2267 C.ar    1  UNL1       -0.0530
     22 C          -5.8114   -1.8261   -1.1306 C.ar    1  UNL1       -0.0472
     23 C          -5.5091   -2.2502   -2.4103 C.ar    1  UNL1        0.0179
     24 BR         -6.8965   -2.6819   -3.6547 Br      1  UNL1       -0.0503
     25 C          -4.1778   -2.3449   -2.7393 C.ar    1  UNL1       -0.0472
     26 C          -3.1765   -2.0340   -1.8431 C.ar    1  UNL1       -0.0530
     27 C          -2.6418   -0.3146    1.3259 C.ar    1  UNL1       -0.0522
     28 C          -1.6761    0.0377    2.2467 C.ar    1  UNL1       -0.0348
     29 H           5.1478    2.1255    3.0481 H       1  UNL1        0.2951
     30 H           2.1433   -0.1679    1.3395 H       1  UNL1        0.0596
     31 H           1.8937    2.8735    0.8273 H       1  UNL1        0.0334
     32 H           0.7253    1.6221    0.3703 H       1  UNL1        0.0334
     33 H           1.0741    0.0417   -1.3067 H       1  UNL1        0.0620
     34 H           2.0664   -0.3897   -3.4973 H       1  UNL1        0.0618
     35 H           4.0644    0.9090   -4.2980 H       1  UNL1        0.0618
     36 H           4.9946    2.6634   -2.7571 H       1  UNL1        0.0618
     37 H           3.9607    3.0480   -0.6018 H       1  UNL1        0.0620
     38 H           1.0107    2.0059    2.6610 H       1  UNL1        0.1489
     39 H           0.7289   -2.0848    1.2225 H       1  UNL1        0.0637
     40 H          -1.0404   -2.6640   -0.3950 H       1  UNL1        0.0624
     41 H          -5.0957   -1.1790    0.7813 H       1  UNL1        0.0624
     42 H          -6.8681   -1.7478   -0.8603 H       1  UNL1        0.0629
     43 H          -3.9344   -2.6803   -3.7515 H       1  UNL1        0.0629
     44 H          -2.1273   -2.1254   -2.1529 H       1  UNL1        0.0624
     45 H          -3.6104    0.1893    1.3515 H       1  UNL1        0.0624
     46 H          -1.9017    0.8169    2.9852 H       1  UNL1        0.0637
@<TRIPOS>BOND
     1     1     2    2
     2     2     3    1
     3     2     4    1
     4     4     5    1
     5     5     6    1
     6     6     7   ar
     7     7     8   ar
     8     8     9   ar
     9     9    10   ar
    10    10    11   ar
    11     4    12    1
    12    12    13    1
    13    13    14    2
    14    13    15    2
    15    13    16    1
    16    16    17   ar
    17    17    18   ar
    18    18    19   ar
    19    19    20    1
    20    20    21   ar
    21    21    22   ar
    22    22    23   ar
    23    23    24    1
    24    23    25   ar
    25    25    26   ar
    26    19    27   ar
    27    27    28   ar
    28    11     6   ar
    29    28    16   ar
    30    26    20   ar
    31     3    29    1
    32     4    30    1
    33     5    31    1
    34     5    32    1
    35     7    33    1
    36     8    34    1
    37     9    35    1
    38    10    36    1
    39    11    37    1
    40    12    38    1
    41    17    39    1
    42    18    40    1
    43    21    41    1
    44    22    42    1
    45    25    43    1
    46    26    44    1
    47    27    45    1
    48    28    46    1
