
     RDKit          3D

 33 34  0  0  0  0  0  0  0  0999 V2000
   -3.0966   -0.3869   -1.6464 C   0  0  0  0  0  0  0  0  0  0  0  0
   -2.8814    1.0063   -1.3054 N   0  0  0  0  0  0  0  0  0  0  0  0
   -3.2352    1.3289    0.0471 C   0  0  0  0  0  0  0  0  0  0  0  0
   -2.3227    0.7113    1.0574 C   0  0  0  0  0  0  0  0  0  0  0  0
   -0.9523    1.1613    0.8655 N   0  0  0  0  0  0  0  0  0  0  0  0
    0.1076    0.4575    2.0264 S   0  0  0  0  0  0  0  0  0  0  0  0
   -0.7207   -0.4008    2.9559 O   0  0  0  0  0  0  0  0  0  0  0  0
    0.8480    1.4356    2.8527 O   0  0  0  0  0  0  0  0  0  0  0  0
    1.1426   -0.6414    1.1406 C   0  0  0  0  0  0  0  0  0  0  0  0
    1.1507   -2.0142    1.3230 C   0  0  0  0  0  0  0  0  0  0  0  0
    1.9731   -2.8243    0.5670 C   0  0  0  0  0  0  0  0  0  0  0  0
    2.7923   -2.2303   -0.3800 C   0  0  0  0  0  0  0  0  0  0  0  0
    2.7914   -0.8457   -0.5691 C   0  0  0  0  0  0  0  0  0  0  0  0
    1.9636   -0.0537    0.1947 C   0  0  0  0  0  0  0  0  0  0  0  0
    1.9989    1.3033   -0.0175 C   0  0  0  0  0  0  0  0  0  0  0  0
    2.8167    1.8816   -0.9487 C   0  0  0  0  0  0  0  0  0  0  0  0
    3.6273    1.1032   -1.6981 N   0  0  0  0  0  0  0  0  0  0  0  0
    3.6157   -0.2421   -1.5119 C   0  0  0  0  0  0  0  0  0  0  0  0
   -4.0427   -0.5142   -2.2538 H   0  0  0  0  0  0  0  0  0  0  0  0
   -3.1326   -1.0743   -0.8051 H   0  0  0  0  0  0  0  0  0  0  0  0
   -2.2461   -0.6624   -2.3288 H   0  0  0  0  0  0  0  0  0  0  0  0
   -3.4806    1.5618   -1.9615 H   0  0  0  0  0  0  0  0  0  0  0  0
   -4.2903    1.0453    0.2716 H   0  0  0  0  0  0  0  0  0  0  0  0
   -3.2255    2.4490    0.1229 H   0  0  0  0  0  0  0  0  0  0  0  0
   -2.3227   -0.3851    0.9137 H   0  0  0  0  0  0  0  0  0  0  0  0
   -2.6670    0.9287    2.0825 H   0  0  0  0  0  0  0  0  0  0  0  0
   -0.6478    1.0215   -0.1259 H   0  0  0  0  0  0  0  0  0  0  0  0
    0.4871   -2.4177    2.0772 H   0  0  0  0  0  0  0  0  0  0  0  0
    1.9821   -3.8960    0.7061 H   0  0  0  0  0  0  0  0  0  0  0  0
    3.4541   -2.8187   -0.9947 H   0  0  0  0  0  0  0  0  0  0  0  0
    1.3871    1.9840    0.5503 H   0  0  0  0  0  0  0  0  0  0  0  0
    2.8970    2.9407   -1.1716 H   0  0  0  0  0  0  0  0  0  0  0  0
    4.2287   -0.9119   -2.0652 H   0  0  0  0  0  0  0  0  0  0  0  0
  1  2  1  0
  2  3  1  0
  3  4  1  0
  4  5  1  0
  5  6  1  0
  6  7  2  0
  6  8  2  0
  6  9  1  0
  9 10  2  0
 10 11  1  0
 11 12  2  0
 12 13  1  0
 13 14  2  0
 14 15  1  0
 15 16  2  0
 16 17  1  0
 17 18  2  0
 14  9  1  0
 18 13  1  0
  1 19  1  0
  1 20  1  0
  1 21  1  0
  2 22  1  0
  3 23  1  0
  3 24  1  0
  4 25  1  0
  4 26  1  0
  5 27  1  0
 10 28  1  0
 11 29  1  0
 12 30  1  0
 15 31  1  0
 16 32  1  0
 18 33  1  0
M  END
$$$$
