@<TRIPOS>MOLECULE
*****
 33 34 0 0 0
SMALL
GASTEIGER

@<TRIPOS>ATOM
      1 C          -3.0966   -0.3869   -1.6464 C.3     1  UNL1       -0.0157
      2 N          -2.8814    1.0063   -1.3054 N.3     1  UNL1       -0.3177
      3 C          -3.2352    1.3289    0.0471 C.3     1  UNL1        0.0098
      4 C          -2.3227    0.7113    1.0574 C.3     1  UNL1        0.0300
      5 N          -0.9523    1.1613    0.8655 N.3     1  UNL1       -0.1887
      6 S           0.1076    0.4575    2.0264 S.O2    1  UNL1        0.0590
      7 O          -0.7207   -0.4008    2.9559 O.2     1  UNL1       -0.1530
      8 O           0.8480    1.4356    2.8527 O.2     1  UNL1       -0.1530
      9 C           1.1426   -0.6414    1.1406 C.ar    1  UNL1        0.1130
     10 C           1.1507   -2.0142    1.3230 C.ar    1  UNL1       -0.0347
     11 C           1.9731   -2.8243    0.5670 C.ar    1  UNL1       -0.0593
     12 C           2.7923   -2.2303   -0.3800 C.ar    1  UNL1       -0.0525
     13 C           2.7914   -0.8457   -0.5691 C.ar    1  UNL1        0.0021
     14 C           1.9636   -0.0537    0.1947 C.ar    1  UNL1        0.0113
     15 C           1.9989    1.3033   -0.0175 C.ar    1  UNL1       -0.0340
     16 C           2.8167    1.8816   -0.9487 C.ar    1  UNL1        0.0282
     17 N           3.6273    1.1032   -1.6981 N.ar    1  UNL1       -0.2626
     18 C           3.6157   -0.2421   -1.5119 C.ar    1  UNL1        0.0353
     19 H          -4.0427   -0.5142   -2.2538 H       1  UNL1        0.0388
     20 H          -3.1326   -1.0743   -0.8051 H       1  UNL1        0.0388
     21 H          -2.2461   -0.6624   -2.3288 H       1  UNL1        0.0388
     22 H          -3.4806    1.5618   -1.9615 H       1  UNL1        0.1217
     23 H          -4.2903    1.0453    0.2716 H       1  UNL1        0.0437
     24 H          -3.2255    2.4490    0.1229 H       1  UNL1        0.0437
     25 H          -2.3227   -0.3851    0.9137 H       1  UNL1        0.0454
     26 H          -2.6670    0.9287    2.0825 H       1  UNL1        0.0454
     27 H          -0.6478    1.0215   -0.1259 H       1  UNL1        0.1480
     28 H           0.4871   -2.4177    2.0772 H       1  UNL1        0.0637
     29 H           1.9821   -3.8960    0.7061 H       1  UNL1        0.0618
     30 H           3.4541   -2.8187   -0.9947 H       1  UNL1        0.0624
     31 H           1.3871    1.9840    0.5503 H       1  UNL1        0.0639
     32 H           2.8970    2.9407   -1.1716 H       1  UNL1        0.0830
     33 H           4.2287   -0.9119   -2.0652 H       1  UNL1        0.0836
@<TRIPOS>BOND
     1     1     2    1
     2     2     3    1
     3     3     4    1
     4     4     5    1
     5     5     6    1
     6     6     7    2
     7     6     8    2
     8     6     9    1
     9     9    10   ar
    10    10    11   ar
    11    11    12   ar
    12    12    13   ar
    13    13    14   ar
    14    14    15   ar
    15    15    16   ar
    16    16    17   ar
    17    17    18   ar
    18    14     9   ar
    19    18    13   ar
    20     1    19    1
    21     1    20    1
    22     1    21    1
    23     2    22    1
    24     3    23    1
    25     3    24    1
    26     4    25    1
    27     4    26    1
    28     5    27    1
    29    10    28    1
    30    11    29    1
    31    12    30    1
    32    15    31    1
    33    16    32    1
    34    18    33    1
