@<TRIPOS>MOLECULE
*****
 51 53 0 0 0
SMALL
GASTEIGER

@<TRIPOS>ATOM
      1 N          -4.9688   -3.2239    0.0091 N.am    1  UNL1       -0.3293
      2 C          -3.6555   -2.7404    0.1145 C.2     1  UNL1        0.2105
      3 O          -2.7272   -3.4679    0.6070 O.2     1  UNL1       -0.2760
      4 C          -3.2505   -1.3748   -0.3288 C.3     1  UNL1        0.0246
      5 C          -1.7896   -1.1211   -0.1006 C.3     1  UNL1       -0.0337
      6 C          -1.3531    0.2607   -0.5431 C.3     1  UNL1        0.0120
      7 C          -2.1835    1.2053    0.2891 C.ar    1  UNL1       -0.0397
      8 C          -1.7279    1.6113    1.5297 C.ar    1  UNL1       -0.0580
      9 C          -2.4490    2.4766    2.3255 C.ar    1  UNL1       -0.0615
     10 C          -3.6645    2.9726    1.9058 C.ar    1  UNL1       -0.0617
     11 C          -4.1306    2.5758    0.6706 C.ar    1  UNL1       -0.0615
     12 C          -3.3963    1.7056   -0.1199 C.ar    1  UNL1       -0.0580
     13 C          -1.6531    0.5101   -1.9830 C.3     1  UNL1       -0.0405
     14 C          -0.7430   -0.3806   -2.8324 C.3     1  UNL1       -0.0362
     15 C           0.6399    0.1633   -2.6721 C.3     1  UNL1        0.0162
     16 N           1.0228    0.2123   -1.2780 N.am    1  UNL1       -0.2845
     17 C           2.3994    0.0472   -0.9590 C.2     1  UNL1        0.3065
     18 O           3.2075   -0.1367   -1.9022 O.2     1  UNL1       -0.2523
     19 N           2.9300    0.0749    0.3470 N.am    1  UNL1       -0.2693
     20 C           4.3084   -0.0923    0.6481 C.ar    1  UNL1        0.0349
     21 C           5.2093    0.9467    0.7234 C.ar    1  UNL1       -0.0391
     22 C           6.5323    0.6883    1.0227 C.ar    1  UNL1       -0.0416
     23 C           6.9760   -0.5973    1.2499 C.ar    1  UNL1        0.0411
     24 CL          8.6577   -0.9578    1.6337 Cl      1  UNL1       -0.0835
     25 C           6.0935   -1.6328    1.1780 C.ar    1  UNL1       -0.0416
     26 C           4.7656   -1.3721    0.8774 C.ar    1  UNL1       -0.0391
     27 C           0.0795    0.4220   -0.2038 C.3     1  UNL1        0.0258
     28 H          -5.1750   -4.0467   -0.5759 H       1  UNL1        0.1449
     29 H          -5.7310   -2.7541    0.5193 H       1  UNL1        0.1449
     30 H          -3.4282   -1.3774   -1.4416 H       1  UNL1        0.0358
     31 H          -3.8970   -0.6766    0.2088 H       1  UNL1        0.0358
     32 H          -1.1403   -1.8612   -0.5683 H       1  UNL1        0.0279
     33 H          -1.6135   -1.1264    1.0182 H       1  UNL1        0.0279
     34 H          -0.7563    1.2139    1.8683 H       1  UNL1        0.0620
     35 H          -2.0929    2.7968    3.3005 H       1  UNL1        0.0618
     36 H          -4.2495    3.6613    2.5270 H       1  UNL1        0.0618
     37 H          -5.0981    2.9525    0.3034 H       1  UNL1        0.0618
     38 H          -3.7906    1.4175   -1.0767 H       1  UNL1        0.0620
     39 H          -1.3902    1.5589   -2.2248 H       1  UNL1        0.0275
     40 H          -2.6624    0.2924   -2.3082 H       1  UNL1        0.0275
     41 H          -0.7491   -1.4293   -2.5077 H       1  UNL1        0.0281
     42 H          -1.0061   -0.2705   -3.9116 H       1  UNL1        0.0281
     43 H           0.6719    1.2371   -3.0249 H       1  UNL1        0.0465
     44 H           1.4076   -0.4300   -3.2089 H       1  UNL1        0.0465
     45 H           2.2920    0.2268    1.1541 H       1  UNL1        0.1564
     46 H           4.8463    1.9652    0.5411 H       1  UNL1        0.0636
     47 H           7.2560    1.4958    1.0861 H       1  UNL1        0.0633
     48 H           6.4158   -2.6379    1.3505 H       1  UNL1        0.0633
     49 H           4.1044   -2.2443    0.8337 H       1  UNL1        0.0636
     50 H           0.2734    1.4799    0.1424 H       1  UNL1        0.0474
     51 H           0.3837   -0.2188    0.6644 H       1  UNL1        0.0474
@<TRIPOS>BOND
     1     1     2   am
     2     2     3    2
     3     2     4    1
     4     4     5    1
     5     5     6    1
     6     6     7    1
     7     7     8   ar
     8     8     9   ar
     9     9    10   ar
    10    10    11   ar
    11    11    12   ar
    12     6    13    1
    13    13    14    1
    14    14    15    1
    15    15    16    1
    16    16    17   am
    17    17    18    2
    18    17    19   am
    19    19    20    1
    20    20    21   ar
    21    21    22   ar
    22    22    23   ar
    23    23    24    1
    24    23    25   ar
    25    25    26   ar
    26    16    27    1
    27    27     6    1
    28    12     7   ar
    29    26    20   ar
    30     1    28    1
    31     1    29    1
    32     4    30    1
    33     4    31    1
    34     5    32    1
    35     5    33    1
    36     8    34    1
    37     9    35    1
    38    10    36    1
    39    11    37    1
    40    12    38    1
    41    13    39    1
    42    13    40    1
    43    14    41    1
    44    14    42    1
    45    15    43    1
    46    15    44    1
    47    19    45    1
    48    21    46    1
    49    22    47    1
    50    25    48    1
    51    26    49    1
    52    27    50    1
    53    27    51    1
