
     RDKit          3D

 51 53  0  0  0  0  0  0  0  0999 V2000
   -4.9688   -3.2239    0.0091 N   0  0  0  0  0  0  0  0  0  0  0  0
   -3.6555   -2.7404    0.1145 C   0  0  0  0  0  0  0  0  0  0  0  0
   -2.7272   -3.4679    0.6070 O   0  0  0  0  0  0  0  0  0  0  0  0
   -3.2505   -1.3748   -0.3288 C   0  0  0  0  0  0  0  0  0  0  0  0
   -1.7896   -1.1211   -0.1006 C   0  0  0  0  0  0  0  0  0  0  0  0
   -1.3531    0.2607   -0.5431 C   0  0  0  0  0  0  0  0  0  0  0  0
   -2.1835    1.2053    0.2891 C   0  0  0  0  0  0  0  0  0  0  0  0
   -1.7279    1.6113    1.5297 C   0  0  0  0  0  0  0  0  0  0  0  0
   -2.4490    2.4766    2.3255 C   0  0  0  0  0  0  0  0  0  0  0  0
   -3.6645    2.9726    1.9058 C   0  0  0  0  0  0  0  0  0  0  0  0
   -4.1306    2.5758    0.6706 C   0  0  0  0  0  0  0  0  0  0  0  0
   -3.3963    1.7056   -0.1199 C   0  0  0  0  0  0  0  0  0  0  0  0
   -1.6531    0.5101   -1.9830 C   0  0  0  0  0  0  0  0  0  0  0  0
   -0.7430   -0.3806   -2.8324 C   0  0  0  0  0  0  0  0  0  0  0  0
    0.6399    0.1633   -2.6721 C   0  0  0  0  0  0  0  0  0  0  0  0
    1.0228    0.2123   -1.2780 N   0  0  0  0  0  0  0  0  0  0  0  0
    2.3994    0.0472   -0.9590 C   0  0  0  0  0  0  0  0  0  0  0  0
    3.2075   -0.1367   -1.9022 O   0  0  0  0  0  0  0  0  0  0  0  0
    2.9300    0.0749    0.3470 N   0  0  0  0  0  0  0  0  0  0  0  0
    4.3084   -0.0923    0.6481 C   0  0  0  0  0  0  0  0  0  0  0  0
    5.2093    0.9467    0.7234 C   0  0  0  0  0  0  0  0  0  0  0  0
    6.5323    0.6883    1.0227 C   0  0  0  0  0  0  0  0  0  0  0  0
    6.9760   -0.5973    1.2499 C   0  0  0  0  0  0  0  0  0  0  0  0
    8.6577   -0.9578    1.6337 Cl  0  0  0  0  0  0  0  0  0  0  0  0
    6.0935   -1.6328    1.1780 C   0  0  0  0  0  0  0  0  0  0  0  0
    4.7656   -1.3721    0.8774 C   0  0  0  0  0  0  0  0  0  0  0  0
    0.0795    0.4220   -0.2038 C   0  0  0  0  0  0  0  0  0  0  0  0
   -5.1750   -4.0467   -0.5759 H   0  0  0  0  0  0  0  0  0  0  0  0
   -5.7310   -2.7541    0.5193 H   0  0  0  0  0  0  0  0  0  0  0  0
   -3.4282   -1.3774   -1.4416 H   0  0  0  0  0  0  0  0  0  0  0  0
   -3.8970   -0.6766    0.2088 H   0  0  0  0  0  0  0  0  0  0  0  0
   -1.1403   -1.8612   -0.5683 H   0  0  0  0  0  0  0  0  0  0  0  0
   -1.6135   -1.1264    1.0182 H   0  0  0  0  0  0  0  0  0  0  0  0
   -0.7563    1.2139    1.8683 H   0  0  0  0  0  0  0  0  0  0  0  0
   -2.0929    2.7968    3.3005 H   0  0  0  0  0  0  0  0  0  0  0  0
   -4.2495    3.6613    2.5270 H   0  0  0  0  0  0  0  0  0  0  0  0
   -5.0981    2.9525    0.3034 H   0  0  0  0  0  0  0  0  0  0  0  0
   -3.7906    1.4175   -1.0767 H   0  0  0  0  0  0  0  0  0  0  0  0
   -1.3902    1.5589   -2.2248 H   0  0  0  0  0  0  0  0  0  0  0  0
   -2.6624    0.2924   -2.3082 H   0  0  0  0  0  0  0  0  0  0  0  0
   -0.7491   -1.4293   -2.5077 H   0  0  0  0  0  0  0  0  0  0  0  0
   -1.0061   -0.2705   -3.9116 H   0  0  0  0  0  0  0  0  0  0  0  0
    0.6719    1.2371   -3.0249 H   0  0  0  0  0  0  0  0  0  0  0  0
    1.4076   -0.4300   -3.2089 H   0  0  0  0  0  0  0  0  0  0  0  0
    2.2920    0.2268    1.1541 H   0  0  0  0  0  0  0  0  0  0  0  0
    4.8463    1.9652    0.5411 H   0  0  0  0  0  0  0  0  0  0  0  0
    7.2560    1.4958    1.0861 H   0  0  0  0  0  0  0  0  0  0  0  0
    6.4158   -2.6379    1.3505 H   0  0  0  0  0  0  0  0  0  0  0  0
    4.1044   -2.2443    0.8337 H   0  0  0  0  0  0  0  0  0  0  0  0
    0.2734    1.4799    0.1424 H   0  0  0  0  0  0  0  0  0  0  0  0
    0.3837   -0.2188    0.6644 H   0  0  0  0  0  0  0  0  0  0  0  0
  1  2  1  0
  2  3  2  0
  2  4  1  0
  4  5  1  0
  5  6  1  0
  6  7  1  0
  7  8  2  0
  8  9  1  0
  9 10  2  0
 10 11  1  0
 11 12  2  0
  6 13  1  0
 13 14  1  0
 14 15  1  0
 15 16  1  0
 16 17  1  0
 17 18  2  0
 17 19  1  0
 19 20  1  0
 20 21  2  0
 21 22  1  0
 22 23  2  0
 23 24  1  0
 23 25  1  0
 25 26  2  0
 16 27  1  0
 27  6  1  0
 12  7  1  0
 26 20  1  0
  1 28  1  0
  1 29  1  0
  4 30  1  0
  4 31  1  0
  5 32  1  0
  5 33  1  0
  8 34  1  0
  9 35  1  0
 10 36  1  0
 11 37  1  0
 12 38  1  0
 13 39  1  0
 13 40  1  0
 14 41  1  0
 14 42  1  0
 15 43  1  0
 15 44  1  0
 19 45  1  0
 21 46  1  0
 22 47  1  0
 25 48  1  0
 26 49  1  0
 27 50  1  0
 27 51  1  0
M  END
$$$$
