
     RDKit          3D

 61 65  0  0  0  0  0  0  0  0999 V2000
   -0.6566    4.9621   -0.3409 C   0  0  0  0  0  0  0  0  0  0  0  0
   -0.5623    3.5615    0.0849 N   0  0  0  0  0  0  0  0  0  0  0  0
   -1.6028    2.9387    0.8025 C   0  0  0  0  0  0  0  0  0  0  0  0
   -2.6202    3.6861    1.0520 O   0  0  0  0  0  0  0  0  0  0  0  0
   -1.6313    1.6223    1.2551 N   0  0  0  0  0  0  0  0  0  0  0  0
   -2.7887    1.1337    1.9914 C   0  0  0  0  0  0  0  0  0  0  0  0
   -3.4269   -0.0371    1.2745 C   0  0  0  0  0  0  0  0  0  0  0  0
   -2.4467   -0.8366    0.4949 C   0  0  0  0  0  0  0  0  0  0  0  0
   -1.1059   -0.5269    0.3574 C   0  0  0  0  0  0  0  0  0  0  0  0
   -0.5443   -1.4977   -0.3995 C   0  0  0  0  0  0  0  0  0  0  0  0
    0.7749   -1.7186   -0.8690 N   0  0  0  0  0  0  0  0  0  0  0  0
    1.8860   -0.8665   -0.7950 C   0  0  0  0  0  0  0  0  0  0  0  0
    2.9752   -1.2813   -0.0233 C   0  0  0  0  0  0  0  0  0  0  0  0
    4.1250   -0.5314    0.0674 C   0  0  0  0  0  0  0  0  0  0  0  0
    5.1922   -0.9171    0.8118 F   0  0  0  0  0  0  0  0  0  0  0  0
    4.2492    0.6743   -0.6085 C   0  0  0  0  0  0  0  0  0  0  0  0
    5.4954    1.4606   -0.4836 C   0  0  0  0  0  0  0  0  0  0  0  0
    5.6082    2.8077   -0.3278 C   0  0  0  0  0  0  0  0  0  0  0  0
    6.9134    3.0912   -0.2450 N   0  0  0  0  0  0  0  0  0  0  0  0
    7.6552    1.9883   -0.3399 N   0  0  0  0  0  0  0  0  0  0  0  0
    9.0859    1.8532   -0.2942 C   0  0  0  0  0  0  0  0  0  0  0  0
    6.7935    0.9702   -0.4882 C   0  0  0  0  0  0  0  0  0  0  0  0
    3.1838    1.0905   -1.3700 C   0  0  0  0  0  0  0  0  0  0  0  0
    2.0193    0.3225   -1.4563 C   0  0  0  0  0  0  0  0  0  0  0  0
    0.9608    0.7441   -2.2180 F   0  0  0  0  0  0  0  0  0  0  0  0
   -1.5340   -2.3683   -0.7077 N   0  0  0  0  0  0  0  0  0  0  0  0
   -2.6677   -1.9802   -0.1788 N   0  0  0  0  0  0  0  0  0  0  0  0
   -3.8852   -2.7307   -0.3601 C   0  0  0  0  0  0  0  0  0  0  0  0
   -4.0285   -3.8620    0.6485 C   0  0  0  0  0  0  0  0  0  0  0  0
   -5.2131   -4.6925    0.1716 C   0  0  0  0  0  0  0  0  0  0  0  0
   -5.8020   -4.1867   -0.9742 O   0  0  0  0  0  0  0  0  0  0  0  0
   -6.2412   -2.8888   -0.8680 C   0  0  0  0  0  0  0  0  0  0  0  0
   -5.1396   -1.9446   -0.3529 C   0  0  0  0  0  0  0  0  0  0  0  0
   -0.5376    0.7058    1.0027 C   0  0  0  0  0  0  0  0  0  0  0  0
   -1.6557    5.2025   -0.7546 H   0  0  0  0  0  0  0  0  0  0  0  0
    0.1152    5.1756   -1.0941 H   0  0  0  0  0  0  0  0  0  0  0  0
   -0.4933    5.6228    0.5231 H   0  0  0  0  0  0  0  0  0  0  0  0
    0.2892    3.0391   -0.1536 H   0  0  0  0  0  0  0  0  0  0  0  0
   -2.4601    0.8667    3.0149 H   0  0  0  0  0  0  0  0  0  0  0  0
   -3.5045    1.9711    2.0909 H   0  0  0  0  0  0  0  0  0  0  0  0
   -4.2503    0.3726    0.6557 H   0  0  0  0  0  0  0  0  0  0  0  0
   -3.8559   -0.6586    2.1213 H   0  0  0  0  0  0  0  0  0  0  0  0
    1.0060   -2.6596   -1.3560 H   0  0  0  0  0  0  0  0  0  0  0  0
    2.9188   -2.2225    0.5235 H   0  0  0  0  0  0  0  0  0  0  0  0
    4.7570    3.4740   -0.2879 H   0  0  0  0  0  0  0  0  0  0  0  0
    9.4615    1.3106   -1.1642 H   0  0  0  0  0  0  0  0  0  0  0  0
    9.5875    2.8455   -0.2352 H   0  0  0  0  0  0  0  0  0  0  0  0
    9.3248    1.2690    0.6240 H   0  0  0  0  0  0  0  0  0  0  0  0
    7.0697   -0.0711   -0.5943 H   0  0  0  0  0  0  0  0  0  0  0  0
    3.2438    2.0240   -1.9113 H   0  0  0  0  0  0  0  0  0  0  0  0
   -3.8379   -3.2519   -1.3636 H   0  0  0  0  0  0  0  0  0  0  0  0
   -3.0902   -4.4614    0.6842 H   0  0  0  0  0  0  0  0  0  0  0  0
   -4.2781   -3.3901    1.6217 H   0  0  0  0  0  0  0  0  0  0  0  0
   -5.9239   -4.9112    0.9916 H   0  0  0  0  0  0  0  0  0  0  0  0
   -4.7836   -5.6942   -0.1156 H   0  0  0  0  0  0  0  0  0  0  0  0
   -7.1311   -2.8843   -0.2054 H   0  0  0  0  0  0  0  0  0  0  0  0
   -6.5865   -2.5619   -1.8678 H   0  0  0  0  0  0  0  0  0  0  0  0
   -5.4254   -1.7208    0.6862 H   0  0  0  0  0  0  0  0  0  0  0  0
   -5.1333   -1.0660   -1.0283 H   0  0  0  0  0  0  0  0  0  0  0  0
    0.2049    1.2193    0.3936 H   0  0  0  0  0  0  0  0  0  0  0  0
   -0.0518    0.4148    1.9856 H   0  0  0  0  0  0  0  0  0  0  0  0
  1  2  1  0
  2  3  1  0
  3  4  2  0
  3  5  1  0
  5  6  1  0
  6  7  1  0
  7  8  1  0
  8  9  2  0
  9 10  1  0
 10 11  1  0
 11 12  1  0
 12 13  2  0
 13 14  1  0
 14 15  1  0
 14 16  2  0
 16 17  1  0
 17 18  1  0
 18 19  2  0
 19 20  1  0
 20 21  1  0
 20 22  1  0
 16 23  1  0
 23 24  2  0
 24 25  1  0
 10 26  2  0
 26 27  1  0
 27 28  1  0
 28 29  1  0
 29 30  1  0
 30 31  1  0
 31 32  1  0
 32 33  1  0
  9 34  1  0
 34  5  1  0
 27  8  1  0
 33 28  1  0
 24 12  1  0
 22 17  2  0
  1 35  1  0
  1 36  1  0
  1 37  1  0
  2 38  1  0
  6 39  1  0
  6 40  1  0
  7 41  1  0
  7 42  1  0
 11 43  1  0
 13 44  1  0
 18 45  1  0
 21 46  1  0
 21 47  1  0
 21 48  1  0
 22 49  1  0
 23 50  1  0
 28 51  1  0
 29 52  1  0
 29 53  1  0
 30 54  1  0
 30 55  1  0
 32 56  1  0
 32 57  1  0
 33 58  1  0
 33 59  1  0
 34 60  1  0
 34 61  1  0
M  END
$$$$
