@<TRIPOS>MOLECULE
*****
 61 65 0 0 0
SMALL
GASTEIGER

@<TRIPOS>ATOM
      1 C          -0.6566    4.9621   -0.3409 C.3     1  UNL1        0.0015
      2 N          -0.5623    3.5615    0.0849 N.am    1  UNL1       -0.3023
      3 C          -1.6028    2.9387    0.8025 C.2     1  UNL1        0.3023
      4 O          -2.6202    3.6861    1.0520 O.2     1  UNL1       -0.2526
      5 N          -1.6313    1.6223    1.2551 N.am    1  UNL1       -0.2808
      6 C          -2.7887    1.1337    1.9914 C.3     1  UNL1        0.0219
      7 C          -3.4269   -0.0371    1.2745 C.3     1  UNL1        0.0056
      8 C          -2.4467   -0.8366    0.4949 C.ar    1  UNL1        0.0476
      9 C          -1.1059   -0.5269    0.3574 C.ar    1  UNL1        0.0325
     10 C          -0.5443   -1.4977   -0.3995 C.ar    1  UNL1        0.1499
     11 N           0.7749   -1.7186   -0.8690 N.pl3   1  UNL1       -0.2955
     12 C           1.8860   -0.8665   -0.7950 C.ar    1  UNL1        0.0709
     13 C           2.9752   -1.2813   -0.0233 C.ar    1  UNL1       -0.0018
     14 C           4.1250   -0.5314    0.0674 C.ar    1  UNL1        0.1331
     15 F           5.1922   -0.9171    0.8118 F       1  UNL1       -0.2048
     16 C           4.2492    0.6743   -0.6085 C.ar    1  UNL1        0.0231
     17 C           5.4954    1.4606   -0.4836 C.ar    1  UNL1        0.0224
     18 C           5.6082    2.8077   -0.3278 C.ar    1  UNL1        0.0572
     19 N           6.9134    3.0912   -0.2450 N.ar    1  UNL1       -0.1793
     20 N           7.6552    1.9883   -0.3399 N.ar    1  UNL1       -0.2739
     21 C           9.0859    1.8532   -0.2942 C.3     1  UNL1        0.0302
     22 C           6.7935    0.9702   -0.4882 C.ar    1  UNL1        0.0330
     23 C           3.1838    1.0905   -1.3700 C.ar    1  UNL1       -0.0140
     24 C           2.0193    0.3225   -1.4563 C.ar    1  UNL1        0.1452
     25 F           0.9608    0.7441   -2.2180 F       1  UNL1       -0.2035
     26 N          -1.5340   -2.3683   -0.7077 N.ar    1  UNL1       -0.1552
     27 N          -2.6677   -1.9802   -0.1788 N.ar    1  UNL1       -0.2630
     28 C          -3.8852   -2.7307   -0.3601 C.3     1  UNL1        0.0572
     29 C          -4.0285   -3.8620    0.6485 C.3     1  UNL1       -0.0069
     30 C          -5.2131   -4.6925    0.1716 C.3     1  UNL1        0.0496
     31 O          -5.8020   -4.1867   -0.9742 O.3     1  UNL1       -0.3796
     32 C          -6.2412   -2.8888   -0.8680 C.3     1  UNL1        0.0496
     33 C          -5.1396   -1.9446   -0.3529 C.3     1  UNL1       -0.0069
     34 C          -0.5376    0.7058    1.0027 C.3     1  UNL1        0.0462
     35 H          -1.6557    5.2025   -0.7546 H       1  UNL1        0.0426
     36 H           0.1152    5.1756   -1.0941 H       1  UNL1        0.0426
     37 H          -0.4933    5.6228    0.5231 H       1  UNL1        0.0426
     38 H           0.2892    3.0391   -0.1536 H       1  UNL1        0.1499
     39 H          -2.4601    0.8667    3.0149 H       1  UNL1        0.0469
     40 H          -3.5045    1.9711    2.0909 H       1  UNL1        0.0469
     41 H          -4.2503    0.3726    0.6557 H       1  UNL1        0.0343
     42 H          -3.8559   -0.6586    2.1213 H       1  UNL1        0.0343
     43 H           1.0060   -2.6596   -1.3560 H       1  UNL1        0.1537
     44 H           2.9188   -2.2225    0.5235 H       1  UNL1        0.0666
     45 H           4.7570    3.4740   -0.2879 H       1  UNL1        0.0854
     46 H           9.4615    1.3106   -1.1642 H       1  UNL1        0.0473
     47 H           9.5875    2.8455   -0.2352 H       1  UNL1        0.0473
     48 H           9.3248    1.2690    0.6240 H       1  UNL1        0.0473
     49 H           7.0697   -0.0711   -0.5943 H       1  UNL1        0.0832
     50 H           3.2438    2.0240   -1.9113 H       1  UNL1        0.0654
     51 H          -3.8379   -3.2519   -1.3636 H       1  UNL1        0.0546
     52 H          -3.0902   -4.4614    0.6842 H       1  UNL1        0.0308
     53 H          -4.2781   -3.3901    1.6217 H       1  UNL1        0.0308
     54 H          -5.9239   -4.9112    0.9916 H       1  UNL1        0.0560
     55 H          -4.7836   -5.6942   -0.1156 H       1  UNL1        0.0560
     56 H          -7.1311   -2.8843   -0.2054 H       1  UNL1        0.0560
     57 H          -6.5865   -2.5619   -1.8678 H       1  UNL1        0.0560
     58 H          -5.4254   -1.7208    0.6862 H       1  UNL1        0.0308
     59 H          -5.1333   -1.0660   -1.0283 H       1  UNL1        0.0308
     60 H           0.2049    1.2193    0.3936 H       1  UNL1        0.0516
     61 H          -0.0518    0.4148    1.9856 H       1  UNL1        0.0516
@<TRIPOS>BOND
     1     1     2    1
     2     2     3   am
     3     3     4    2
     4     3     5   am
     5     5     6    1
     6     6     7    1
     7     7     8    1
     8     8     9   ar
     9     9    10   ar
    10    10    11    1
    11    11    12    1
    12    12    13   ar
    13    13    14   ar
    14    14    15    1
    15    14    16   ar
    16    16    17    1
    17    17    18   ar
    18    18    19   ar
    19    19    20   ar
    20    20    21    1
    21    20    22   ar
    22    16    23   ar
    23    23    24   ar
    24    24    25    1
    25    10    26   ar
    26    26    27   ar
    27    27    28    1
    28    28    29    1
    29    29    30    1
    30    30    31    1
    31    31    32    1
    32    32    33    1
    33     9    34    1
    34    34     5    1
    35    27     8   ar
    36    33    28    1
    37    24    12   ar
    38    22    17   ar
    39     1    35    1
    40     1    36    1
    41     1    37    1
    42     2    38    1
    43     6    39    1
    44     6    40    1
    45     7    41    1
    46     7    42    1
    47    11    43    1
    48    13    44    1
    49    18    45    1
    50    21    46    1
    51    21    47    1
    52    21    48    1
    53    22    49    1
    54    23    50    1
    55    28    51    1
    56    29    52    1
    57    29    53    1
    58    30    54    1
    59    30    55    1
    60    32    56    1
    61    32    57    1
    62    33    58    1
    63    33    59    1
    64    34    60    1
    65    34    61    1
