@<TRIPOS>MOLECULE
*****
 41 43 0 0 0
SMALL
GASTEIGER

@<TRIPOS>ATOM
      1 C           3.0791   -1.1132    0.2755 C.3     1  UNL1        0.0080
      2 C           4.2881   -0.2555    0.2998 C.3     1  UNL1        0.0188
      3 N           5.3432   -1.1774    0.6346 N.am    1  UNL1       -0.3147
      4 C           4.8464   -2.4466    1.1051 C.2     1  UNL1        0.2137
      5 O           5.6494   -3.3989    1.1968 O.2     1  UNL1       -0.2758
      6 C           3.3965   -2.1632    1.3469 C.3     1  UNL1        0.0322
      7 C           1.8070   -0.4457    0.5710 C.ar    1  UNL1       -0.0387
      8 C           1.7624    0.2338    1.7755 C.ar    1  UNL1       -0.0546
      9 C           0.6162    0.8876    2.1372 C.ar    1  UNL1       -0.0160
     10 C          -0.4967    0.8851    1.3284 C.ar    1  UNL1        0.1615
     11 O          -1.7138    1.5015    1.5708 O.3     1  UNL1       -0.4915
     12 C          -1.9442    2.2356    2.7402 C.3     1  UNL1        0.0790
     13 C          -0.5105    0.2258    0.1186 C.ar    1  UNL1        0.1626
     14 O          -1.4234    0.0363   -0.8860 O.3     1  UNL1       -0.4852
     15 C          -2.7209    0.4783   -1.0194 C.3     1  UNL1        0.1004
     16 C          -3.7067   -0.6303   -1.3401 C.3     1  UNL1       -0.0158
     17 C          -3.5273   -0.7353   -2.8480 C.3     1  UNL1       -0.0496
     18 C          -3.6818    0.7303   -3.2293 C.3     1  UNL1       -0.0496
     19 C          -2.7491    1.4013   -2.2456 C.3     1  UNL1       -0.0158
     20 C           0.6707   -0.4419   -0.2431 C.ar    1  UNL1       -0.0128
     21 H           3.0045   -1.6233   -0.7071 H       1  UNL1        0.0369
     22 H           4.4657    0.1502   -0.7167 H       1  UNL1        0.0468
     23 H           4.2326    0.6101    0.9816 H       1  UNL1        0.0468
     24 H           6.3445   -0.8594    0.5124 H       1  UNL1        0.1487
     25 H           3.3202   -1.7092    2.3475 H       1  UNL1        0.0365
     26 H           2.7723   -3.0630    1.2108 H       1  UNL1        0.0365
     27 H           2.5852    0.2828    2.4591 H       1  UNL1        0.0622
     28 H           0.4475    1.4535    3.0451 H       1  UNL1        0.0655
     29 H          -1.4417    3.2253    2.7351 H       1  UNL1        0.0660
     30 H          -1.5249    1.6791    3.6069 H       1  UNL1        0.0660
     31 H          -3.0186    2.3584    2.9640 H       1  UNL1        0.0660
     32 H          -3.1062    1.0863   -0.1919 H       1  UNL1        0.0733
     33 H          -4.7391   -0.2598   -1.1734 H       1  UNL1        0.0301
     34 H          -3.4663   -1.5659   -0.8064 H       1  UNL1        0.0301
     35 H          -2.4920   -1.0265   -3.0880 H       1  UNL1        0.0266
     36 H          -4.3081   -1.3737   -3.3024 H       1  UNL1        0.0266
     37 H          -3.3951    0.9307   -4.2798 H       1  UNL1        0.0266
     38 H          -4.7123    1.0483   -2.9919 H       1  UNL1        0.0266
     39 H          -3.0752    2.4269   -1.9915 H       1  UNL1        0.0301
     40 H          -1.7629    1.4465   -2.7538 H       1  UNL1        0.0301
     41 H           0.8851   -1.0247   -1.1487 H       1  UNL1        0.0658
@<TRIPOS>BOND
     1     1     2    1
     2     2     3    1
     3     3     4   am
     4     4     5    2
     5     4     6    1
     6     1     7    1
     7     7     8   ar
     8     8     9   ar
     9     9    10   ar
    10    10    11    1
    11    11    12    1
    12    10    13   ar
    13    13    14    1
    14    14    15    1
    15    15    16    1
    16    16    17    1
    17    17    18    1
    18    18    19    1
    19    13    20   ar
    20     6     1    1
    21    20     7   ar
    22    19    15    1
    23     1    21    1
    24     2    22    1
    25     2    23    1
    26     3    24    1
    27     6    25    1
    28     6    26    1
    29     8    27    1
    30     9    28    1
    31    12    29    1
    32    12    30    1
    33    12    31    1
    34    15    32    1
    35    16    33    1
    36    16    34    1
    37    17    35    1
    38    17    36    1
    39    18    37    1
    40    18    38    1
    41    19    39    1
    42    19    40    1
    43    20    41    1
