@<TRIPOS>MOLECULE
*****
 52 55 0 0 0
SMALL
GASTEIGER

@<TRIPOS>ATOM
      1 C           6.4070   -1.6639   -3.0502 C.3     1  UNL1        0.0790
      2 O           6.3740   -1.1518   -1.7590 O.3     1  UNL1       -0.4914
      3 C           5.2470   -0.8553   -1.0354 C.ar    1  UNL1        0.1642
      4 C           3.9826   -1.0526   -1.5609 C.ar    1  UNL1        0.0196
      5 C           2.8469   -0.7426   -0.8036 C.ar    1  UNL1        0.1377
      6 F           1.6045   -0.9338   -1.3133 F       1  UNL1       -0.2046
      7 C           2.9780   -0.2378    0.4729 C.ar    1  UNL1        0.0561
      8 C           1.7866    0.0857    1.2632 C.ar    1  UNL1        0.1434
      9 N           0.5012   -0.0436    0.9094 N.ar    1  UNL1       -0.2241
     10 C          -0.2893    0.3718    1.9403 C.ar    1  UNL1        0.1305
     11 C          -1.6424    0.4493    2.1067 C.ar    1  UNL1        0.0766
     12 N          -2.5036    0.0470    1.0736 N.pl3   1  UNL1       -0.3407
     13 C          -2.9420    0.9830    0.0819 C.3     1  UNL1        0.0121
     14 C          -3.8553    0.2743   -0.8862 C.3     1  UNL1       -0.0232
     15 C          -5.0406   -0.2751   -0.1664 C.3     1  UNL1       -0.0361
     16 C          -5.6555   -1.3513   -1.0504 C.3     1  UNL1       -0.0038
     17 N          -5.6571   -0.8211   -2.4015 N.3     1  UNL1       -0.3160
     18 C          -5.7084    0.6331   -2.4201 C.3     1  UNL1       -0.0038
     19 C          -4.3662    1.2076   -1.9722 C.3     1  UNL1       -0.0361
     20 C          -2.1491    0.9222    3.2886 C.ar    1  UNL1        0.0820
     21 CL         -3.8950    1.0221    3.5031 Cl      1  UNL1       -0.0800
     22 C          -1.3132    1.3195    4.3087 C.ar    1  UNL1        0.0501
     23 N           0.0101    1.2336    4.1203 N.ar    1  UNL1       -0.2343
     24 C           0.5179    0.7714    2.9655 C.ar    1  UNL1        0.1600
     25 N           1.7873    0.5805    2.5112 N.ar    1  UNL1       -0.3227
     26 C           4.2510   -0.0547    0.9626 C.ar    1  UNL1       -0.0029
     27 C           5.3856   -0.3495    0.2436 C.ar    1  UNL1        0.1623
     28 O           6.6654   -0.1608    0.7477 O.3     1  UNL1       -0.4914
     29 C           6.7739    0.3576    2.0579 C.3     1  UNL1        0.0790
     30 H           7.3407   -2.2941   -3.1301 H       1  UNL1        0.0660
     31 H           5.5453   -2.2676   -3.3434 H       1  UNL1        0.0660
     32 H           6.6018   -0.8018   -3.7472 H       1  UNL1        0.0660
     33 H           3.8481   -1.4471   -2.5591 H       1  UNL1        0.0684
     34 H          -2.7921   -0.9763    1.0882 H       1  UNL1        0.1462
     35 H          -3.5398    1.7909    0.5544 H       1  UNL1        0.0464
     36 H          -2.0973    1.4593   -0.4677 H       1  UNL1        0.0464
     37 H          -3.3134   -0.5835   -1.3471 H       1  UNL1        0.0317
     38 H          -4.7800   -0.6374    0.8342 H       1  UNL1        0.0281
     39 H          -5.8319    0.4969   -0.0276 H       1  UNL1        0.0281
     40 H          -6.6612   -1.6543   -0.7050 H       1  UNL1        0.0424
     41 H          -5.0044   -2.2539   -0.9784 H       1  UNL1        0.0424
     42 H          -6.5608   -1.1484   -2.8453 H       1  UNL1        0.1219
     43 H          -6.5501    1.0436   -1.8613 H       1  UNL1        0.0424
     44 H          -5.8304    0.9287   -3.4765 H       1  UNL1        0.0424
     45 H          -3.6693    1.0886   -2.8403 H       1  UNL1        0.0281
     46 H          -4.4427    2.2300   -1.6037 H       1  UNL1        0.0281
     47 H          -1.7490    1.6909    5.2360 H       1  UNL1        0.0846
     48 H           2.6078    0.8196    3.1317 H       1  UNL1        0.1688
     49 H           4.3361    0.3415    1.9642 H       1  UNL1        0.0663
     50 H           6.4484    1.4352    2.1097 H       1  UNL1        0.0660
     51 H           6.1469   -0.1860    2.7849 H       1  UNL1        0.0660
     52 H           7.8460    0.3605    2.3330 H       1  UNL1        0.0660
@<TRIPOS>BOND
     1     1     2    1
     2     2     3    1
     3     3     4   ar
     4     4     5   ar
     5     5     6    1
     6     5     7   ar
     7     7     8    1
     8     8     9   ar
     9     9    10   ar
    10    10    11   ar
    11    11    12    1
    12    12    13    1
    13    13    14    1
    14    14    15    1
    15    15    16    1
    16    16    17    1
    17    17    18    1
    18    18    19    1
    19    11    20   ar
    20    20    21    1
    21    20    22   ar
    22    22    23   ar
    23    23    24   ar
    24    24    25   ar
    25     7    26   ar
    26    26    27   ar
    27    27    28    1
    28    28    29    1
    29    27     3   ar
    30    25     8   ar
    31    24    10   ar
    32    19    14    1
    33     1    30    1
    34     1    31    1
    35     1    32    1
    36     4    33    1
    37    12    34    1
    38    13    35    1
    39    13    36    1
    40    14    37    1
    41    15    38    1
    42    15    39    1
    43    16    40    1
    44    16    41    1
    45    17    42    1
    46    18    43    1
    47    18    44    1
    48    19    45    1
    49    19    46    1
    50    22    47    1
    51    25    48    1
    52    26    49    1
    53    29    50    1
    54    29    51    1
    55    29    52    1
