@<TRIPOS>MOLECULE
*****
 72 76 0 0 0
SMALL
GASTEIGER

@<TRIPOS>ATOM
      1 O           6.8143   -1.7628    0.4279 O.2     1  UNL1       -0.2702
      2 C           7.3329   -0.9431   -0.3620 C.2     1  UNL1        0.2445
      3 N           6.4849   -0.3833   -1.3621 N.am    1  UNL1       -0.3027
      4 C           5.0753   -0.7508   -1.4575 C.3     1  UNL1        0.0886
      5 C           4.3647   -0.4087   -0.2180 C.2     1  UNL1        0.2328
      6 O           5.0224    0.1350    0.7335 O.2     1  UNL1       -0.2739
      7 N           2.9832   -0.6815   -0.0965 N.am    1  UNL1       -0.2987
      8 C           2.1678   -1.2934   -1.1247 C.3     1  UNL1        0.0162
      9 C           0.7363   -0.9135   -0.7445 C.3     1  UNL1       -0.0202
     10 C           0.7418   -0.7165    0.7245 C.3     1  UNL1        0.0250
     11 N          -0.1452    0.2730    1.2446 N.3     1  UNL1       -0.3090
     12 C          -1.5355   -0.0129    1.0253 C.3     1  UNL1        0.0081
     13 C          -2.2947    0.9907    1.8944 C.3     1  UNL1       -0.0346
     14 C          -3.7660    0.5795    2.0269 C.3     1  UNL1       -0.0170
     15 C          -4.2251    0.0821    0.7043 C.3     1  UNL1        0.1077
     16 O          -3.9206   -1.2931    0.6047 O.3     1  UNL1       -0.3824
     17 C          -5.6869    0.1799    0.4860 C.ar    1  UNL1        0.0727
     18 C          -6.5898    0.6621    1.3777 C.ar    1  UNL1       -0.0369
     19 C          -7.9373    0.6984    1.0406 C.ar    1  UNL1       -0.0478
     20 C          -8.3867    0.2547   -0.1840 C.ar    1  UNL1        0.0372
     21 C          -9.8058    0.3054   -0.5111 C.ar    1  UNL1        0.1611
     22 N         -10.2765   -0.1159   -1.6923 N.ar    1  UNL1       -0.2356
     23 C         -11.5998   -0.0682   -1.9979 C.ar    1  UNL1        0.0314
     24 C         -12.5098    0.4254   -1.0804 C.ar    1  UNL1       -0.0254
     25 C         -12.0102    0.8544    0.1288 C.ar    1  UNL1        0.0314
     26 N         -10.6858    0.7836    0.3783 N.ar    1  UNL1       -0.2356
     27 C          -7.4380   -0.2266   -1.0589 C.ar    1  UNL1        0.0387
     28 N          -6.1387   -0.2522   -0.7109 N.ar    1  UNL1       -0.2563
     29 C          -3.4532    0.7968   -0.3640 C.3     1  UNL1       -0.0170
     30 C          -1.9917    0.3283   -0.4012 C.3     1  UNL1       -0.0346
     31 C           2.1951   -0.3884    1.0621 C.3     1  UNL1        0.0302
     32 C           8.7442   -0.6112   -0.2214 C.ar    1  UNL1        0.0372
     33 C           9.4842   -1.2091    0.7782 C.ar    1  UNL1       -0.0496
     34 C          10.8256   -0.9476    0.9772 C.ar    1  UNL1       -0.0605
     35 C          11.4885   -0.0573    0.1631 C.ar    1  UNL1       -0.0501
     36 C          10.7756    0.5562   -0.8447 C.ar    1  UNL1        0.0555
     37 C          11.4792    1.5244   -1.7361 C.3     1  UNL1        0.4174
     38 F          10.6511    1.8307   -2.7995 F       1  UNL1       -0.1659
     39 F          12.6888    1.0583   -2.1727 F       1  UNL1       -0.1659
     40 F          11.6447    2.6852   -0.9743 F       1  UNL1       -0.1659
     41 C           9.4165    0.2755   -1.0275 C.ar    1  UNL1       -0.0380
     42 H           6.9184    0.2992   -2.0202 H       1  UNL1        0.1495
     43 H           4.6692   -0.2227   -2.3448 H       1  UNL1        0.0558
     44 H           5.0713   -1.8547   -1.6425 H       1  UNL1        0.0558
     45 H           2.3873   -0.8624   -2.1061 H       1  UNL1        0.0465
     46 H           2.2952   -2.3834   -1.1745 H       1  UNL1        0.0465
     47 H           0.4779    0.0243   -1.2558 H       1  UNL1        0.0296
     48 H           0.1052   -1.7696   -1.0761 H       1  UNL1        0.0296
     49 H           0.5686   -1.7089    1.2377 H       1  UNL1        0.0476
     50 H           0.1211    1.1998    0.8374 H       1  UNL1        0.1225
     51 H          -1.7146   -1.0505    1.2979 H       1  UNL1        0.0460
     52 H          -2.2867    1.9509    1.3450 H       1  UNL1        0.0281
     53 H          -1.8192    1.1584    2.8602 H       1  UNL1        0.0281
     54 H          -3.7835   -0.2476    2.7489 H       1  UNL1        0.0297
     55 H          -4.2781    1.5000    2.3826 H       1  UNL1        0.0297
     56 H          -4.4201   -1.6079   -0.1939 H       1  UNL1        0.2107
     57 H          -6.2475    1.0061    2.3263 H       1  UNL1        0.0637
     58 H          -8.6509    1.0908    1.7727 H       1  UNL1        0.0626
     59 H         -11.9696   -0.4048   -2.9400 H       1  UNL1        0.0831
     60 H         -13.5686    0.4638   -1.3245 H       1  UNL1        0.0648
     61 H         -12.7167    1.2411    0.8497 H       1  UNL1        0.0831
     62 H          -7.7760   -0.5839   -2.0372 H       1  UNL1        0.0837
     63 H          -3.8812    0.5175   -1.3483 H       1  UNL1        0.0297
     64 H          -3.5311    1.8958   -0.2671 H       1  UNL1        0.0297
     65 H          -1.8514   -0.4785   -1.1104 H       1  UNL1        0.0281
     66 H          -1.4247    1.2575   -0.6694 H       1  UNL1        0.0281
     67 H           2.2334    0.6980    1.3254 H       1  UNL1        0.0480
     68 H           2.5671   -0.9435    1.9251 H       1  UNL1        0.0480
     69 H           8.9781   -1.9233    1.4410 H       1  UNL1        0.0625
     70 H          11.3905   -1.4341    1.7764 H       1  UNL1        0.0618
     71 H          12.5386    0.1683    0.2939 H       1  UNL1        0.0623
     72 H           8.8781    0.7608   -1.8151 H       1  UNL1        0.0631
@<TRIPOS>BOND
     1     1     2    2
     2     2     3   am
     3     3     4    1
     4     4     5    1
     5     5     6    2
     6     5     7   am
     7     7     8    1
     8     8     9    1
     9     9    10    1
    10    10    11    1
    11    11    12    1
    12    12    13    1
    13    13    14    1
    14    14    15    1
    15    15    16    1
    16    15    17    1
    17    17    18   ar
    18    18    19   ar
    19    19    20   ar
    20    20    21    1
    21    21    22   ar
    22    22    23   ar
    23    23    24   ar
    24    24    25   ar
    25    25    26   ar
    26    20    27   ar
    27    27    28   ar
    28    15    29    1
    29    29    30    1
    30    10    31    1
    31     2    32    1
    32    32    33   ar
    33    33    34   ar
    34    34    35   ar
    35    35    36   ar
    36    36    37    1
    37    37    38    1
    38    37    39    1
    39    37    40    1
    40    36    41   ar
    41    31     7    1
    42    41    32   ar
    43    30    12    1
    44    28    17   ar
    45    26    21   ar
    46     3    42    1
    47     4    43    1
    48     4    44    1
    49     8    45    1
    50     8    46    1
    51     9    47    1
    52     9    48    1
    53    10    49    1
    54    11    50    1
    55    12    51    1
    56    13    52    1
    57    13    53    1
    58    14    54    1
    59    14    55    1
    60    16    56    1
    61    18    57    1
    62    19    58    1
    63    23    59    1
    64    24    60    1
    65    25    61    1
    66    27    62    1
    67    29    63    1
    68    29    64    1
    69    30    65    1
    70    30    66    1
    71    31    67    1
    72    31    68    1
    73    33    69    1
    74    34    70    1
    75    35    71    1
    76    41    72    1
