
     RDKit          3D

 72 76  0  0  0  0  0  0  0  0999 V2000
    6.8143   -1.7628    0.4279 O   0  0  0  0  0  0  0  0  0  0  0  0
    7.3329   -0.9431   -0.3620 C   0  0  0  0  0  0  0  0  0  0  0  0
    6.4849   -0.3833   -1.3621 N   0  0  0  0  0  0  0  0  0  0  0  0
    5.0753   -0.7508   -1.4575 C   0  0  0  0  0  0  0  0  0  0  0  0
    4.3647   -0.4087   -0.2180 C   0  0  0  0  0  0  0  0  0  0  0  0
    5.0224    0.1350    0.7335 O   0  0  0  0  0  0  0  0  0  0  0  0
    2.9832   -0.6815   -0.0965 N   0  0  0  0  0  0  0  0  0  0  0  0
    2.1678   -1.2934   -1.1247 C   0  0  0  0  0  0  0  0  0  0  0  0
    0.7363   -0.9135   -0.7445 C   0  0  0  0  0  0  0  0  0  0  0  0
    0.7418   -0.7165    0.7245 C   0  0  2  0  0  0  0  0  0  0  0  0
   -0.1452    0.2730    1.2446 N   0  0  0  0  0  0  0  0  0  0  0  0
   -1.5355   -0.0129    1.0253 C   0  0  1  0  0  0  0  0  0  0  0  0
   -2.2947    0.9907    1.8944 C   0  0  0  0  0  0  0  0  0  0  0  0
   -3.7660    0.5795    2.0269 C   0  0  0  0  0  0  0  0  0  0  0  0
   -4.2251    0.0821    0.7043 C   0  0  1  0  0  0  0  0  0  0  0  0
   -3.9206   -1.2931    0.6047 O   0  0  0  0  0  0  0  0  0  0  0  0
   -5.6869    0.1799    0.4860 C   0  0  0  0  0  0  0  0  0  0  0  0
   -6.5898    0.6621    1.3777 C   0  0  0  0  0  0  0  0  0  0  0  0
   -7.9373    0.6984    1.0406 C   0  0  0  0  0  0  0  0  0  0  0  0
   -8.3867    0.2547   -0.1840 C   0  0  0  0  0  0  0  0  0  0  0  0
   -9.8058    0.3054   -0.5111 C   0  0  0  0  0  0  0  0  0  0  0  0
  -10.2765   -0.1159   -1.6923 N   0  0  0  0  0  0  0  0  0  0  0  0
  -11.5998   -0.0682   -1.9979 C   0  0  0  0  0  0  0  0  0  0  0  0
  -12.5098    0.4254   -1.0804 C   0  0  0  0  0  0  0  0  0  0  0  0
  -12.0102    0.8544    0.1288 C   0  0  0  0  0  0  0  0  0  0  0  0
  -10.6858    0.7836    0.3783 N   0  0  0  0  0  0  0  0  0  0  0  0
   -7.4380   -0.2266   -1.0589 C   0  0  0  0  0  0  0  0  0  0  0  0
   -6.1387   -0.2522   -0.7109 N   0  0  0  0  0  0  0  0  0  0  0  0
   -3.4532    0.7968   -0.3640 C   0  0  0  0  0  0  0  0  0  0  0  0
   -1.9917    0.3283   -0.4012 C   0  0  0  0  0  0  0  0  0  0  0  0
    2.1951   -0.3884    1.0621 C   0  0  0  0  0  0  0  0  0  0  0  0
    8.7442   -0.6112   -0.2214 C   0  0  0  0  0  0  0  0  0  0  0  0
    9.4842   -1.2091    0.7782 C   0  0  0  0  0  0  0  0  0  0  0  0
   10.8256   -0.9476    0.9772 C   0  0  0  0  0  0  0  0  0  0  0  0
   11.4885   -0.0573    0.1631 C   0  0  0  0  0  0  0  0  0  0  0  0
   10.7756    0.5562   -0.8447 C   0  0  0  0  0  0  0  0  0  0  0  0
   11.4792    1.5244   -1.7361 C   0  0  0  0  0  0  0  0  0  0  0  0
   10.6511    1.8307   -2.7995 F   0  0  0  0  0  0  0  0  0  0  0  0
   12.6888    1.0583   -2.1727 F   0  0  0  0  0  0  0  0  0  0  0  0
   11.6447    2.6852   -0.9743 F   0  0  0  0  0  0  0  0  0  0  0  0
    9.4165    0.2755   -1.0275 C   0  0  0  0  0  0  0  0  0  0  0  0
    6.9184    0.2992   -2.0202 H   0  0  0  0  0  0  0  0  0  0  0  0
    4.6692   -0.2227   -2.3448 H   0  0  0  0  0  0  0  0  0  0  0  0
    5.0713   -1.8547   -1.6425 H   0  0  0  0  0  0  0  0  0  0  0  0
    2.3873   -0.8624   -2.1061 H   0  0  0  0  0  0  0  0  0  0  0  0
    2.2952   -2.3834   -1.1745 H   0  0  0  0  0  0  0  0  0  0  0  0
    0.4779    0.0243   -1.2558 H   0  0  0  0  0  0  0  0  0  0  0  0
    0.1052   -1.7696   -1.0761 H   0  0  0  0  0  0  0  0  0  0  0  0
    0.5686   -1.7089    1.2377 H   0  0  0  0  0  0  0  0  0  0  0  0
    0.1211    1.1998    0.8374 H   0  0  0  0  0  0  0  0  0  0  0  0
   -1.7146   -1.0505    1.2979 H   0  0  0  0  0  0  0  0  0  0  0  0
   -2.2867    1.9509    1.3450 H   0  0  0  0  0  0  0  0  0  0  0  0
   -1.8192    1.1584    2.8602 H   0  0  0  0  0  0  0  0  0  0  0  0
   -3.7835   -0.2476    2.7489 H   0  0  0  0  0  0  0  0  0  0  0  0
   -4.2781    1.5000    2.3826 H   0  0  0  0  0  0  0  0  0  0  0  0
   -4.4201   -1.6079   -0.1939 H   0  0  0  0  0  0  0  0  0  0  0  0
   -6.2475    1.0061    2.3263 H   0  0  0  0  0  0  0  0  0  0  0  0
   -8.6509    1.0908    1.7727 H   0  0  0  0  0  0  0  0  0  0  0  0
  -11.9696   -0.4048   -2.9400 H   0  0  0  0  0  0  0  0  0  0  0  0
  -13.5686    0.4638   -1.3245 H   0  0  0  0  0  0  0  0  0  0  0  0
  -12.7167    1.2411    0.8497 H   0  0  0  0  0  0  0  0  0  0  0  0
   -7.7760   -0.5839   -2.0372 H   0  0  0  0  0  0  0  0  0  0  0  0
   -3.8812    0.5175   -1.3483 H   0  0  0  0  0  0  0  0  0  0  0  0
   -3.5311    1.8958   -0.2671 H   0  0  0  0  0  0  0  0  0  0  0  0
   -1.8514   -0.4785   -1.1104 H   0  0  0  0  0  0  0  0  0  0  0  0
   -1.4247    1.2575   -0.6694 H   0  0  0  0  0  0  0  0  0  0  0  0
    2.2334    0.6980    1.3254 H   0  0  0  0  0  0  0  0  0  0  0  0
    2.5671   -0.9435    1.9251 H   0  0  0  0  0  0  0  0  0  0  0  0
    8.9781   -1.9233    1.4410 H   0  0  0  0  0  0  0  0  0  0  0  0
   11.3905   -1.4341    1.7764 H   0  0  0  0  0  0  0  0  0  0  0  0
   12.5386    0.1683    0.2939 H   0  0  0  0  0  0  0  0  0  0  0  0
    8.8781    0.7608   -1.8151 H   0  0  0  0  0  0  0  0  0  0  0  0
  1  2  2  0
  2  3  1  0
  3  4  1  0
  4  5  1  0
  5  6  2  0
  5  7  1  0
  7  8  1  0
  8  9  1  0
  9 10  1  0
 10 11  1  0
 11 12  1  0
 12 13  1  0
 13 14  1  0
 14 15  1  0
 15 16  1  1
 15 17  1  0
 17 18  2  0
 18 19  1  0
 19 20  2  0
 20 21  1  0
 21 22  2  0
 22 23  1  0
 23 24  2  0
 24 25  1  0
 25 26  2  0
 20 27  1  0
 27 28  2  0
 15 29  1  0
 29 30  1  0
 10 31  1  0
  2 32  1  0
 32 33  2  0
 33 34  1  0
 34 35  2  0
 35 36  1  0
 36 37  1  0
 37 38  1  0
 37 39  1  0
 37 40  1  0
 36 41  2  0
 31  7  1  0
 41 32  1  0
 30 12  1  0
 28 17  1  0
 26 21  1  0
  3 42  1  0
  4 43  1  0
  4 44  1  0
  8 45  1  0
  8 46  1  0
  9 47  1  0
  9 48  1  0
 10 49  1  1
 11 50  1  0
 12 51  1  1
 13 52  1  0
 13 53  1  0
 14 54  1  0
 14 55  1  0
 16 56  1  0
 18 57  1  0
 19 58  1  0
 23 59  1  0
 24 60  1  0
 25 61  1  0
 27 62  1  0
 29 63  1  0
 29 64  1  0
 30 65  1  0
 30 66  1  0
 31 67  1  0
 31 68  1  0
 33 69  1  0
 34 70  1  0
 35 71  1  0
 41 72  1  0
M  END
$$$$
