@<TRIPOS>MOLECULE
*****
 53 56 0 0 0
SMALL
GASTEIGER

@<TRIPOS>ATOM
      1 C          -5.1423   -2.9531    0.9921 C.3     1  UNL1        0.0790
      2 O          -5.6267   -1.8925    0.2304 O.3     1  UNL1       -0.4913
      3 C          -4.9080   -0.7395   -0.0469 C.ar    1  UNL1        0.1650
      4 C          -3.6276   -0.5320    0.4017 C.ar    1  UNL1        0.0267
      5 C          -2.8811    0.5973    0.1506 C.ar    1  UNL1        0.1432
      6 C          -3.4937    1.5815   -0.6149 C.ar    1  UNL1        0.0713
      7 C          -4.7818    1.4038   -1.0824 C.ar    1  UNL1       -0.0018
      8 C          -5.5109    0.2640   -0.8189 C.ar    1  UNL1        0.1624
      9 O          -6.7983    0.0517   -1.2705 O.3     1  UNL1       -0.4914
     10 C          -7.4840    0.9955   -2.0513 C.3     1  UNL1        0.0790
     11 C          -2.5129    2.6528   -0.7315 C.2     1  UNL1        0.2316
     12 O          -2.6531    3.7402   -1.3442 O.2     1  UNL1       -0.2832
     13 C          -1.3153    2.2692   -0.0169 C.2     1  UNL1        0.1761
     14 C          -0.1630    2.9027    0.1701 C.2     1  UNL1       -0.0083
     15 C           0.8714    2.2398    0.9480 C.ar    1  UNL1       -0.0211
     16 C           1.5461    2.8653    1.9681 C.ar    1  UNL1       -0.0545
     17 C           2.5409    2.2530    2.6987 C.ar    1  UNL1       -0.0609
     18 C           2.9225    0.9423    2.4350 C.ar    1  UNL1       -0.0573
     19 C           2.2496    0.3124    1.4119 C.ar    1  UNL1       -0.0328
     20 C           2.6210   -1.0799    1.0754 C.3     1  UNL1        0.0241
     21 N           3.6553   -1.2394    0.1497 N.3     1  UNL1       -0.2982
     22 C           3.5050   -0.6840   -1.1363 C.3     1  UNL1       -0.0008
     23 C           4.8673   -0.3379   -1.7241 C.3     1  UNL1       -0.0402
     24 C           5.7450   -1.5448   -1.8344 C.3     1  UNL1       -0.0507
     25 C           5.4003   -2.5971   -0.8023 C.3     1  UNL1       -0.0402
     26 C           4.8005   -1.9854    0.4542 C.3     1  UNL1       -0.0008
     27 C           1.2631    0.9158    0.6876 C.ar    1  UNL1       -0.0501
     28 O          -1.5842    1.0040    0.5068 O.3     1  UNL1       -0.4513
     29 H          -5.7401   -3.8753    0.7937 H       1  UNL1        0.0660
     30 H          -5.2566   -2.6585    2.0713 H       1  UNL1        0.0660
     31 H          -4.1155   -3.1697    0.6935 H       1  UNL1        0.0660
     32 H          -3.1508   -1.3095    1.0086 H       1  UNL1        0.0692
     33 H          -5.2470    2.1876   -1.6823 H       1  UNL1        0.0664
     34 H          -8.5887    0.7843   -2.0658 H       1  UNL1        0.0660
     35 H          -7.1202    1.0050   -3.1137 H       1  UNL1        0.0660
     36 H          -7.3900    2.0267   -1.6499 H       1  UNL1        0.0660
     37 H          -0.0461    3.9003   -0.2728 H       1  UNL1        0.0661
     38 H           1.2873    3.8955    2.2211 H       1  UNL1        0.0623
     39 H           3.0673    2.7623    3.5057 H       1  UNL1        0.0618
     40 H           3.7056    0.4545    3.0070 H       1  UNL1        0.0621
     41 H           1.7208   -1.6265    0.7246 H       1  UNL1        0.0476
     42 H           2.9062   -1.5809    2.0471 H       1  UNL1        0.0476
     43 H           2.9640   -1.4302   -1.7881 H       1  UNL1        0.0427
     44 H           2.8961    0.2348   -1.1462 H       1  UNL1        0.0427
     45 H           5.3286    0.3683   -1.0149 H       1  UNL1        0.0278
     46 H           4.7465    0.1186   -2.7096 H       1  UNL1        0.0278
     47 H           5.6980   -2.0044   -2.8413 H       1  UNL1        0.0266
     48 H           6.8089   -1.1999   -1.7048 H       1  UNL1        0.0266
     49 H           4.7563   -3.3620   -1.2497 H       1  UNL1        0.0278
     50 H           6.3595   -3.1063   -0.5291 H       1  UNL1        0.0278
     51 H           4.5461   -2.8431    1.1119 H       1  UNL1        0.0427
     52 H           5.6253   -1.4145    0.9395 H       1  UNL1        0.0427
     53 H           0.7332    0.4374   -0.1129 H       1  UNL1        0.0627
@<TRIPOS>BOND
     1     1     2    1
     2     2     3    1
     3     3     4   ar
     4     4     5   ar
     5     5     6   ar
     6     6     7   ar
     7     7     8   ar
     8     8     9    1
     9     9    10    1
    10     6    11    1
    11    11    12    2
    12    11    13    1
    13    13    14    2
    14    14    15    1
    15    15    16   ar
    16    16    17   ar
    17    17    18   ar
    18    18    19   ar
    19    19    20    1
    20    20    21    1
    21    21    22    1
    22    22    23    1
    23    23    24    1
    24    24    25    1
    25    25    26    1
    26    19    27   ar
    27    13    28    1
    28     8     3   ar
    29    27    15   ar
    30    28     5    1
    31    26    21    1
    32     1    29    1
    33     1    30    1
    34     1    31    1
    35     4    32    1
    36     7    33    1
    37    10    34    1
    38    10    35    1
    39    10    36    1
    40    14    37    1
    41    16    38    1
    42    17    39    1
    43    18    40    1
    44    20    41    1
    45    20    42    1
    46    22    43    1
    47    22    44    1
    48    23    45    1
    49    23    46    1
    50    24    47    1
    51    24    48    1
    52    25    49    1
    53    25    50    1
    54    26    51    1
    55    26    52    1
    56    27    53    1
