@<TRIPOS>MOLECULE
*****
 67 72 0 0 0
SMALL
GASTEIGER

@<TRIPOS>ATOM
      1 C           4.6957   -1.8072   -1.0380 C.3     1  UNL1       -0.0390
      2 C           4.0666   -0.6870   -0.2902 C.ar    1  UNL1       -0.0378
      3 C           2.6756   -0.5610   -0.2717 C.ar    1  UNL1       -0.0502
      4 C           2.0707    0.4506    0.4202 C.ar    1  UNL1       -0.0125
      5 C           0.6269    0.6345    0.3997 C.ar    1  UNL1        0.0463
      6 C           0.0228    1.8909    0.3535 C.ar    1  UNL1        0.0598
      7 N          -1.2805    1.6804    0.3383 N.ar    1  UNL1       -0.1699
      8 N          -1.5843    0.4039    0.3707 N.ar    1  UNL1       -0.1827
      9 C          -2.7827   -0.2589    0.3635 C.ar    1  UNL1        0.2226
     10 N          -3.9074    0.5870    0.3066 N.pl3   1  UNL1       -0.3130
     11 C          -4.6991    0.8497   -0.8512 C.3     1  UNL1        0.0148
     12 C          -5.3799    2.2062   -0.7991 C.3     1  UNL1       -0.0213
     13 C          -4.3441    3.3158   -0.7342 C.3     1  UNL1       -0.0251
     14 C          -5.0340    4.6346   -0.6938 C.3     1  UNL1        0.0480
     15 O          -5.8357    4.7536    0.4407 O.3     1  UNL1       -0.3797
     16 C          -5.8413    3.6025    1.2035 C.3     1  UNL1        0.0480
     17 C          -6.2640    2.3737    0.3914 C.3     1  UNL1       -0.0251
     18 N          -2.7512   -1.5872    0.3949 N.ar    1  UNL1       -0.1609
     19 C          -1.6153   -2.3058    0.4318 C.ar    1  UNL1        0.3284
     20 O          -1.4530   -3.6319    0.4627 O.3     1  UNL1       -0.4205
     21 C          -2.1971   -4.7333    0.4639 C.ar    1  UNL1        0.1698
     22 C          -2.1169   -5.6572    1.4926 C.ar    1  UNL1       -0.0162
     23 C          -2.8777   -6.8154    1.5198 C.ar    1  UNL1       -0.0554
     24 C          -3.7535   -7.1012    0.5170 C.ar    1  UNL1       -0.0233
     25 C          -3.8688   -6.2097   -0.5286 C.ar    1  UNL1        0.1621
     26 F          -4.7405   -6.5141   -1.5073 F       1  UNL1       -0.2024
     27 C          -3.1049   -5.0479   -0.5534 C.ar    1  UNL1        0.2004
     28 F          -3.2785   -4.2364   -1.5956 F       1  UNL1       -0.1986
     29 N          -0.4522   -1.5731    0.4373 N.ar    1  UNL1       -0.1746
     30 C          -0.4108   -0.2552    0.4082 C.ar    1  UNL1        0.1720
     31 C           2.8828    1.3484    1.1075 C.ar    1  UNL1       -0.0531
     32 C           4.2344    1.2204    1.0871 C.ar    1  UNL1       -0.0488
     33 C           4.8588    0.2116    0.3942 C.ar    1  UNL1        0.0396
     34 C           6.3348    0.1312    0.3635 C.2     1  UNL1        0.2445
     35 O           6.9115   -0.8430    0.8514 O.2     1  UNL1       -0.2702
     36 N           7.1039    1.1743   -0.2283 N.am    1  UNL1       -0.3085
     37 C           8.5513    1.1776   -0.3010 C.3     1  UNL1        0.0235
     38 C           9.1275    1.9474   -1.5253 C.3     1  UNL1       -0.0328
     39 C           9.1817    2.5654   -0.1894 C.3     1  UNL1       -0.0328
     40 H           5.2257   -2.5099   -0.3244 H       1  UNL1        0.0278
     41 H           3.8893   -2.4370   -1.4660 H       1  UNL1        0.0278
     42 H           5.3180   -1.4832   -1.8764 H       1  UNL1        0.0278
     43 H           2.0914   -1.2776   -0.8114 H       1  UNL1        0.0626
     44 H           0.4995    2.8463    0.3371 H       1  UNL1        0.0855
     45 H          -4.1880    1.0667    1.1966 H       1  UNL1        0.1489
     46 H          -4.0195    0.7956   -1.7419 H       1  UNL1        0.0465
     47 H          -5.4791    0.0893   -1.0210 H       1  UNL1        0.0465
     48 H          -5.9680    2.3311   -1.7183 H       1  UNL1        0.0317
     49 H          -3.7322    3.2776   -1.6758 H       1  UNL1        0.0290
     50 H          -3.7263    3.1627    0.1614 H       1  UNL1        0.0290
     51 H          -4.2539    5.4437   -0.7161 H       1  UNL1        0.0560
     52 H          -5.6347    4.7483   -1.6303 H       1  UNL1        0.0560
     53 H          -6.6520    3.7617    1.9742 H       1  UNL1        0.0560
     54 H          -4.9238    3.4247    1.7701 H       1  UNL1        0.0560
     55 H          -6.2375    1.5040    1.0824 H       1  UNL1        0.0290
     56 H          -7.3363    2.5532    0.1235 H       1  UNL1        0.0290
     57 H          -1.4399   -5.4718    2.3035 H       1  UNL1        0.0655
     58 H          -2.7631   -7.4963    2.3600 H       1  UNL1        0.0620
     59 H          -4.3413   -8.0089    0.5447 H       1  UNL1        0.0647
     60 H           2.3651    2.1471    1.6615 H       1  UNL1        0.0624
     61 H           4.8062    1.9614    1.6479 H       1  UNL1        0.0625
     62 H           6.5456    1.9852   -0.6306 H       1  UNL1        0.1493
     63 H           9.1227    0.3207    0.0663 H       1  UNL1        0.0498
     64 H          10.0664    1.4992   -1.9077 H       1  UNL1        0.0284
     65 H           8.3969    2.3097   -2.2740 H       1  UNL1        0.0284
     66 H          10.1268    2.6883    0.3454 H       1  UNL1        0.0284
     67 H           8.4706    3.4342   -0.0560 H       1  UNL1        0.0284
@<TRIPOS>BOND
     1     1     2    1
     2     2     3   ar
     3     3     4   ar
     4     4     5    1
     5     5     6   ar
     6     6     7   ar
     7     7     8   ar
     8     8     9   ar
     9     9    10    1
    10    10    11    1
    11    11    12    1
    12    12    13    1
    13    13    14    1
    14    14    15    1
    15    15    16    1
    16    16    17    1
    17     9    18   ar
    18    18    19   ar
    19    19    20    1
    20    20    21    1
    21    21    22   ar
    22    22    23   ar
    23    23    24   ar
    24    24    25   ar
    25    25    26    1
    26    25    27   ar
    27    27    28    1
    28    19    29   ar
    29    29    30   ar
    30     4    31   ar
    31    31    32   ar
    32    32    33   ar
    33    33    34    1
    34    34    35    2
    35    34    36   am
    36    36    37    1
    37    37    38    1
    38    38    39    1
    39    33     2   ar
    40    39    37    1
    41    30     5   ar
    42    30     8   ar
    43    17    12    1
    44    27    21   ar
    45     1    40    1
    46     1    41    1
    47     1    42    1
    48     3    43    1
    49     6    44    1
    50    10    45    1
    51    11    46    1
    52    11    47    1
    53    12    48    1
    54    13    49    1
    55    13    50    1
    56    14    51    1
    57    14    52    1
    58    16    53    1
    59    16    54    1
    60    17    55    1
    61    17    56    1
    62    22    57    1
    63    23    58    1
    64    24    59    1
    65    31    60    1
    66    32    61    1
    67    36    62    1
    68    37    63    1
    69    38    64    1
    70    38    65    1
    71    39    66    1
    72    39    67    1
