@<TRIPOS>MOLECULE
*****
 56 59 0 0 0
SMALL
GASTEIGER

@<TRIPOS>ATOM
      1 C          -3.7606    4.0435   -1.1641 C.3     1  UNL1        0.0196
      2 N          -2.5141    3.3200   -1.1561 N.ar    1  UNL1       -0.2623
      3 C          -2.3673    2.3121   -0.2733 C.ar    1  UNL1        0.2806
      4 O          -3.2801    2.0193    0.5109 O.2     1  UNL1       -0.2652
      5 C          -1.2092    1.5704   -0.1996 C.ar    1  UNL1        0.1329
      6 C          -0.2175    1.9536   -1.1071 C.ar    1  UNL1        0.0780
      7 C           0.8296    1.1080   -0.8535 C.ar    1  UNL1        0.0025
      8 C           0.4867    0.2465    0.1658 C.ar    1  UNL1        0.1043
      9 N           1.4132   -0.6955    0.6807 N.pl3   1  UNL1       -0.3147
     10 C           1.8492   -0.5760    2.0715 C.3     1  UNL1        0.0136
     11 C           3.3494   -0.3404    2.0579 C.3     1  UNL1       -0.0355
     12 C           3.9367   -0.4978    0.6710 C.3     1  UNL1       -0.0322
     13 C           3.5050   -1.7674    0.0059 C.3     1  UNL1        0.0296
     14 C           4.1296   -1.8901   -1.3405 C.3     1  UNL1       -0.0455
     15 N           3.9399   -2.8794    0.8273 N.3     1  UNL1       -0.3236
     16 C           1.9889   -1.7392   -0.1240 C.3     1  UNL1        0.0313
     17 N          -0.7963    0.5522    0.5588 N.ar    1  UNL1       -0.3187
     18 C          -1.4309   -0.2145    1.5956 C.3     1  UNL1        0.0515
     19 C          -2.2891   -1.3249    1.1884 C.ar    1  UNL1       -0.0077
     20 C          -1.7551   -2.4314    0.5387 C.ar    1  UNL1       -0.0203
     21 C          -2.5421   -3.4596    0.0237 C.ar    1  UNL1        0.1238
     22 F          -2.0016   -4.5297   -0.6062 F       1  UNL1       -0.2055
     23 C          -3.9057   -3.3574    0.1749 C.ar    1  UNL1       -0.0252
     24 C          -4.4765   -2.2710    0.8187 C.ar    1  UNL1       -0.0413
     25 C          -3.6525   -1.2849    1.3102 C.ar    1  UNL1        0.0568
     26 C          -4.3216   -0.2589    2.0951 C.1     1  UNL1        0.0995
     27 N          -4.8728    0.5514    2.7148 N.1     1  UNL1       -0.1909
     28 N          -0.4164    2.9731   -1.9727 N.ar    1  UNL1       -0.2947
     29 C           0.6584    3.3075   -2.8827 C.3     1  UNL1        0.0167
     30 C          -1.5454    3.6586   -2.0103 C.ar    1  UNL1        0.3320
     31 O          -1.7201    4.6146   -2.8291 O.2     1  UNL1       -0.2463
     32 H          -3.6556    4.9541   -1.7766 H       1  UNL1        0.0458
     33 H          -4.6006    3.4466   -1.5987 H       1  UNL1        0.0458
     34 H          -4.0277    4.3792   -0.1291 H       1  UNL1        0.0458
     35 H           1.7777    1.1413   -1.3977 H       1  UNL1        0.0673
     36 H           1.3984    0.3260    2.5611 H       1  UNL1        0.0464
     37 H           1.5524   -1.4434    2.6827 H       1  UNL1        0.0464
     38 H           3.8441   -0.9605    2.8171 H       1  UNL1        0.0281
     39 H           3.5243    0.7114    2.3614 H       1  UNL1        0.0281
     40 H           5.0439   -0.4587    0.7978 H       1  UNL1        0.0284
     41 H           3.6514    0.3525    0.0232 H       1  UNL1        0.0284
     42 H           3.5169   -2.5582   -1.9676 H       1  UNL1        0.0248
     43 H           4.3158   -0.9211   -1.8526 H       1  UNL1        0.0248
     44 H           5.1172   -2.4109   -1.1984 H       1  UNL1        0.0248
     45 H           4.3393   -2.6089    1.7320 H       1  UNL1        0.1188
     46 H           4.4471   -3.6104    0.3197 H       1  UNL1        0.1188
     47 H           1.5685   -2.7347    0.1267 H       1  UNL1        0.0482
     48 H           1.7768   -1.5020   -1.2047 H       1  UNL1        0.0482
     49 H          -1.9779    0.5207    2.2506 H       1  UNL1        0.0542
     50 H          -0.6788   -0.6592    2.3051 H       1  UNL1        0.0542
     51 H          -0.7018   -2.5608    0.3960 H       1  UNL1        0.0650
     52 H          -4.5372   -4.1356   -0.2140 H       1  UNL1        0.0646
     53 H          -5.5309   -2.2169    0.9223 H       1  UNL1        0.0631
     54 H           0.8164    2.5222   -3.6566 H       1  UNL1        0.0457
     55 H           1.6101    3.4717   -2.3369 H       1  UNL1        0.0457
     56 H           0.3988    4.2430   -3.4537 H       1  UNL1        0.0457
@<TRIPOS>BOND
     1     1     2    1
     2     2     3   ar
     3     3     4    2
     4     3     5   ar
     5     5     6   ar
     6     6     7   ar
     7     7     8   ar
     8     8     9    1
     9     9    10    1
    10    10    11    1
    11    11    12    1
    12    12    13    1
    13    13    14    1
    14    13    15    1
    15    13    16    1
    16     8    17   ar
    17    17    18    1
    18    18    19    1
    19    19    20   ar
    20    20    21   ar
    21    21    22    1
    22    21    23   ar
    23    23    24   ar
    24    24    25   ar
    25    25    26    1
    26    26    27    3
    27     6    28   ar
    28    28    29    1
    29    28    30   ar
    30    30    31    2
    31    30     2   ar
    32    17     5   ar
    33    25    19   ar
    34    16     9    1
    35     1    32    1
    36     1    33    1
    37     1    34    1
    38     7    35    1
    39    10    36    1
    40    10    37    1
    41    11    38    1
    42    11    39    1
    43    12    40    1
    44    12    41    1
    45    14    42    1
    46    14    43    1
    47    14    44    1
    48    15    45    1
    49    15    46    1
    50    16    47    1
    51    16    48    1
    52    18    49    1
    53    18    50    1
    54    20    51    1
    55    23    52    1
    56    24    53    1
    57    29    54    1
    58    29    55    1
    59    29    56    1
