
     RDKit          3D

 63 66  0  0  0  0  0  0  0  0999 V2000
   -1.7735    0.2464    0.1864 O   0  0  0  0  0  0  0  0  0  0  0  0
   -1.1933    0.6182   -0.8521 C   0  0  0  0  0  0  0  0  0  0  0  0
   -1.6985    1.7171   -1.5999 N   0  0  0  0  0  0  0  0  0  0  0  0
   -2.9061    2.4356   -1.1729 C   0  0  0  0  0  0  0  0  0  0  0  0
   -2.5525    3.8953   -0.8743 C   0  0  0  0  0  0  0  0  0  0  0  0
   -3.8576    4.6392   -1.1300 C   0  0  0  0  0  0  0  0  0  0  0  0
   -4.5033    3.8923   -2.2933 C   0  0  0  0  0  0  0  0  0  0  0  0
   -3.8782    2.5331   -2.3209 C   0  0  0  0  0  0  0  0  0  0  0  0
   -0.0276   -0.0923   -1.2457 N   0  0  0  0  0  0  0  0  0  0  0  0
    0.5286   -1.2216   -0.5125 C   0  0  1  0  0  0  0  0  0  0  0  0
    1.7395   -1.6943   -1.2829 C   0  0  0  0  0  0  0  0  0  0  0  0
    2.4494   -2.8304   -0.7015 C   0  0  0  0  0  0  0  0  0  0  0  0
    2.1661   -4.1507   -0.9463 C   0  0  0  0  0  0  0  0  0  0  0  0
    2.8856   -5.1682   -0.3701 C   0  0  0  0  0  0  0  0  0  0  0  0
    3.9279   -4.8884    0.4826 C   0  0  0  0  0  0  0  0  0  0  0  0
    4.2445   -3.5852    0.7544 C   0  0  0  0  0  0  0  0  0  0  0  0
    3.5137   -2.5863    0.1690 C   0  0  0  0  0  0  0  0  0  0  0  0
    0.9097   -0.6750    0.8199 C   0  0  0  0  0  0  0  0  0  0  0  0
    1.2026   -1.4968    1.8870 C   0  0  0  0  0  0  0  0  0  0  0  0
    1.5704   -1.0037    3.1398 C   0  0  0  0  0  0  0  0  0  0  0  0
    1.8527   -1.8302    4.1698 F   0  0  0  0  0  0  0  0  0  0  0  0
    1.6541    0.3436    3.3538 C   0  0  0  0  0  0  0  0  0  0  0  0
    1.3679    1.1862    2.3079 C   0  0  0  0  0  0  0  0  0  0  0  0
    1.4503    2.5506    2.5170 O   0  0  0  0  0  0  0  0  0  0  0  0
    2.6614    3.2486    2.2938 C   0  0  0  0  0  0  0  0  0  0  0  0
    3.6911    2.7839    3.0891 F   0  0  0  0  0  0  0  0  0  0  0  0
    3.0934    3.1074    0.9816 F   0  0  0  0  0  0  0  0  0  0  0  0
    2.4608    4.7426    2.5091 C   0  0  0  0  0  0  0  0  0  0  0  0
    2.0410    5.0023    3.8026 F   0  0  0  0  0  0  0  0  0  0  0  0
    1.4763    5.1874    1.6558 F   0  0  0  0  0  0  0  0  0  0  0  0
    1.0061    0.6955    1.0751 C   0  0  0  0  0  0  0  0  0  0  0  0
   -0.5283   -2.2564   -0.4471 C   0  0  0  0  0  0  0  0  0  0  0  0
   -1.5439   -2.1846   -1.3831 C   0  0  0  0  0  0  0  0  0  0  0  0
   -2.5961   -3.0935   -1.4319 C   0  0  0  0  0  0  0  0  0  0  0  0
   -2.5876   -4.0925   -0.4893 C   0  0  0  0  0  0  0  0  0  0  0  0
   -3.8980   -5.2638   -0.5137 Cl  0  0  0  0  0  0  0  0  0  0  0  0
   -1.5640   -4.1428    0.4331 C   0  0  0  0  0  0  0  0  0  0  0  0
   -0.5616   -3.2526    0.4569 N   0  0  0  0  0  0  0  0  0  0  0  0
   -1.2233    2.0402   -2.4703 H   0  0  0  0  0  0  0  0  0  0  0  0
   -3.3237    2.0088   -0.2590 H   0  0  0  0  0  0  0  0  0  0  0  0
   -1.8073    4.2715   -1.6073 H   0  0  0  0  0  0  0  0  0  0  0  0
   -2.2474    4.0447    0.1693 H   0  0  0  0  0  0  0  0  0  0  0  0
   -3.6905    5.7112   -1.3589 H   0  0  0  0  0  0  0  0  0  0  0  0
   -4.4985    4.5849   -0.2382 H   0  0  0  0  0  0  0  0  0  0  0  0
   -4.2399    4.4745   -3.2034 H   0  0  0  0  0  0  0  0  0  0  0  0
   -5.5965    3.8390   -2.2044 H   0  0  0  0  0  0  0  0  0  0  0  0
   -4.6523    1.7189   -2.2725 H   0  0  0  0  0  0  0  0  0  0  0  0
   -3.3000    2.3386   -3.2619 H   0  0  0  0  0  0  0  0  0  0  0  0
    0.4534    0.2152   -2.1078 H   0  0  0  0  0  0  0  0  0  0  0  0
    1.4496   -1.9943   -2.3269 H   0  0  0  0  0  0  0  0  0  0  0  0
    2.4374   -0.8228   -1.4622 H   0  0  0  0  0  0  0  0  0  0  0  0
    1.3493   -4.3813   -1.6149 H   0  0  0  0  0  0  0  0  0  0  0  0
    2.6254   -6.2134   -0.5930 H   0  0  0  0  0  0  0  0  0  0  0  0
    4.5021   -5.7019    0.9426 H   0  0  0  0  0  0  0  0  0  0  0  0
    5.0685   -3.3496    1.4284 H   0  0  0  0  0  0  0  0  0  0  0  0
    3.7589   -1.5549    0.3797 H   0  0  0  0  0  0  0  0  0  0  0  0
    1.1697   -2.5658    1.8269 H   0  0  0  0  0  0  0  0  0  0  0  0
    1.9410    0.7425    4.3308 H   0  0  0  0  0  0  0  0  0  0  0  0
    3.3788    5.3093    2.2751 H   0  0  0  0  0  0  0  0  0  0  0  0
    0.7957    1.3560    0.2737 H   0  0  0  0  0  0  0  0  0  0  0  0
   -1.5874   -1.4087   -2.1533 H   0  0  0  0  0  0  0  0  0  0  0  0
   -3.3809   -3.0161   -2.1747 H   0  0  0  0  0  0  0  0  0  0  0  0
   -1.6050   -4.9622    1.1649 H   0  0  0  0  0  0  0  0  0  0  0  0
  1  2  2  0
  2  3  1  0
  3  4  1  0
  4  5  1  0
  5  6  1  0
  6  7  1  0
  7  8  1  0
  2  9  1  0
 10  9  1  6
 10 11  1  0
 11 12  1  0
 12 13  2  0
 13 14  1  0
 14 15  2  0
 15 16  1  0
 16 17  2  0
 10 18  1  0
 18 19  2  0
 19 20  1  0
 20 21  1  0
 20 22  2  0
 22 23  1  0
 23 24  1  0
 24 25  1  0
 25 26  1  0
 25 27  1  0
 25 28  1  0
 28 29  1  0
 28 30  1  0
 23 31  2  0
 10 32  1  0
 32 33  2  0
 33 34  1  0
 34 35  2  0
 35 36  1  0
 35 37  1  0
 37 38  2  0
  8  4  1  0
 17 12  1  0
 31 18  1  0
 38 32  1  0
  3 39  1  0
  4 40  1  0
  5 41  1  0
  5 42  1  0
  6 43  1  0
  6 44  1  0
  7 45  1  0
  7 46  1  0
  8 47  1  0
  8 48  1  0
  9 49  1  0
 11 50  1  0
 11 51  1  0
 13 52  1  0
 14 53  1  0
 15 54  1  0
 16 55  1  0
 17 56  1  0
 19 57  1  0
 22 58  1  0
 28 59  1  0
 31 60  1  0
 33 61  1  0
 34 62  1  0
 37 63  1  0
M  END
$$$$
