@<TRIPOS>MOLECULE
*****
 63 66 0 0 0
SMALL
GASTEIGER

@<TRIPOS>ATOM
      1 O          -1.7735    0.2464    0.1864 O.2     1  UNL1       -0.2528
      2 C          -1.1933    0.6182   -0.8521 C.2     1  UNL1        0.3008
      3 N          -1.6985    1.7171   -1.5999 N.am    1  UNL1       -0.2965
      4 C          -2.9061    2.4356   -1.1729 C.3     1  UNL1        0.0246
      5 C          -2.5525    3.8953   -0.8743 C.3     1  UNL1       -0.0345
      6 C          -3.8576    4.6392   -1.1300 C.3     1  UNL1       -0.0513
      7 C          -4.5033    3.8923   -2.2933 C.3     1  UNL1       -0.0513
      8 C          -3.8782    2.5331   -2.3209 C.3     1  UNL1       -0.0345
      9 N          -0.0276   -0.0923   -1.2457 N.am    1  UNL1       -0.2841
     10 C           0.5286   -1.2216   -0.5125 C.3     1  UNL1        0.1072
     11 C           1.7395   -1.6943   -1.2829 C.3     1  UNL1        0.0036
     12 C           2.4494   -2.8304   -0.7015 C.ar    1  UNL1       -0.0446
     13 C           2.1661   -4.1507   -0.9463 C.ar    1  UNL1       -0.0585
     14 C           2.8856   -5.1682   -0.3701 C.ar    1  UNL1       -0.0615
     15 C           3.9279   -4.8884    0.4826 C.ar    1  UNL1       -0.0617
     16 C           4.2445   -3.5852    0.7544 C.ar    1  UNL1       -0.0615
     17 C           3.5137   -2.5863    0.1690 C.ar    1  UNL1       -0.0585
     18 C           0.9097   -0.6750    0.8199 C.ar    1  UNL1       -0.0118
     19 C           1.2026   -1.4968    1.8870 C.ar    1  UNL1       -0.0206
     20 C           1.5704   -1.0037    3.1398 C.ar    1  UNL1        0.1272
     21 F           1.8527   -1.8302    4.1698 F       1  UNL1       -0.2054
     22 C           1.6541    0.3436    3.3538 C.ar    1  UNL1        0.0155
     23 C           1.3679    1.1862    2.3079 C.ar    1  UNL1        0.1304
     24 O           1.4503    2.5506    2.5170 O.3     1  UNL1       -0.4279
     25 C           2.6614    3.2486    2.2938 C.3     1  UNL1        0.4625
     26 F           3.6911    2.7839    3.0891 F       1  UNL1       -0.1583
     27 F           3.0934    3.1074    0.9816 F       1  UNL1       -0.1583
     28 C           2.4608    4.7426    2.5091 C.3     1  UNL1        0.3402
     29 F           2.0410    5.0023    3.8026 F       1  UNL1       -0.1984
     30 F           1.4763    5.1874    1.6558 F       1  UNL1       -0.1984
     31 C           1.0061    0.6955    1.0751 C.ar    1  UNL1       -0.0139
     32 C          -0.5283   -2.2564   -0.4471 C.ar    1  UNL1        0.0695
     33 C          -1.5439   -2.1846   -1.3831 C.ar    1  UNL1       -0.0365
     34 C          -2.5961   -3.0935   -1.4319 C.ar    1  UNL1       -0.0401
     35 C          -2.5876   -4.0925   -0.4893 C.ar    1  UNL1        0.0590
     36 CL         -3.8980   -5.2638   -0.5137 Cl      1  UNL1       -0.0820
     37 C          -1.5640   -4.1428    0.4331 C.ar    1  UNL1        0.0463
     38 N          -0.5616   -3.2526    0.4569 N.ar    1  UNL1       -0.2559
     39 H          -1.2233    2.0402   -2.4703 H       1  UNL1        0.1505
     40 H          -3.3237    2.0088   -0.2590 H       1  UNL1        0.0499
     41 H          -1.8073    4.2715   -1.6073 H       1  UNL1        0.0283
     42 H          -2.2474    4.0447    0.1693 H       1  UNL1        0.0283
     43 H          -3.6905    5.7112   -1.3589 H       1  UNL1        0.0266
     44 H          -4.4985    4.5849   -0.2382 H       1  UNL1        0.0266
     45 H          -4.2399    4.4745   -3.2034 H       1  UNL1        0.0266
     46 H          -5.5965    3.8390   -2.2044 H       1  UNL1        0.0266
     47 H          -4.6523    1.7189   -2.2725 H       1  UNL1        0.0283
     48 H          -3.3000    2.3386   -3.2619 H       1  UNL1        0.0283
     49 H           0.4534    0.2152   -2.1078 H       1  UNL1        0.1515
     50 H           1.4496   -1.9943   -2.3269 H       1  UNL1        0.0341
     51 H           2.4374   -0.8228   -1.4622 H       1  UNL1        0.0341
     52 H           1.3493   -4.3813   -1.6149 H       1  UNL1        0.0620
     53 H           2.6254   -6.2134   -0.5930 H       1  UNL1        0.0618
     54 H           4.5021   -5.7019    0.9426 H       1  UNL1        0.0618
     55 H           5.0685   -3.3496    1.4284 H       1  UNL1        0.0618
     56 H           3.7589   -1.5549    0.3797 H       1  UNL1        0.0620
     57 H           1.1697   -2.5658    1.8269 H       1  UNL1        0.0650
     58 H           1.9410    0.7425    4.3308 H       1  UNL1        0.0683
     59 H           3.3788    5.3093    2.2751 H       1  UNL1        0.1124
     60 H           0.7957    1.3560    0.2737 H       1  UNL1        0.0658
     61 H          -1.5874   -1.4087   -2.1533 H       1  UNL1        0.0637
     62 H          -3.3809   -3.0161   -2.1747 H       1  UNL1        0.0633
     63 H          -1.6050   -4.9622    1.1649 H       1  UNL1        0.0844
@<TRIPOS>BOND
     1     1     2    2
     2     2     3   am
     3     3     4    1
     4     4     5    1
     5     5     6    1
     6     6     7    1
     7     7     8    1
     8     2     9   am
     9    10     9    1
    10    10    11    1
    11    11    12    1
    12    12    13   ar
    13    13    14   ar
    14    14    15   ar
    15    15    16   ar
    16    16    17   ar
    17    10    18    1
    18    18    19   ar
    19    19    20   ar
    20    20    21    1
    21    20    22   ar
    22    22    23   ar
    23    23    24    1
    24    24    25    1
    25    25    26    1
    26    25    27    1
    27    25    28    1
    28    28    29    1
    29    28    30    1
    30    23    31   ar
    31    10    32    1
    32    32    33   ar
    33    33    34   ar
    34    34    35   ar
    35    35    36    1
    36    35    37   ar
    37    37    38   ar
    38     8     4    1
    39    17    12   ar
    40    31    18   ar
    41    38    32   ar
    42     3    39    1
    43     4    40    1
    44     5    41    1
    45     5    42    1
    46     6    43    1
    47     6    44    1
    48     7    45    1
    49     7    46    1
    50     8    47    1
    51     8    48    1
    52     9    49    1
    53    11    50    1
    54    11    51    1
    55    13    52    1
    56    14    53    1
    57    15    54    1
    58    16    55    1
    59    17    56    1
    60    19    57    1
    61    22    58    1
    62    28    59    1
    63    31    60    1
    64    33    61    1
    65    34    62    1
    66    37    63    1
