@<TRIPOS>MOLECULE
*****
 43 44 0 0 0
SMALL
GASTEIGER

@<TRIPOS>ATOM
      1 O           2.7273   -1.9296   -0.6825 O.2     1  UNL1       -0.2265
      2 C           2.8793   -0.6675   -0.6148 C.2     1  UNL1        0.4009
      3 N           4.1353   -0.2195   -0.1311 N.am    1  UNL1       -0.2683
      4 C           5.2045   -1.0858    0.2711 C.3     1  UNL1        0.1178
      5 C           6.5203   -0.5861   -0.3287 C.3     1  UNL1        0.0387
      6 N           6.5429    0.3357    0.7767 N.am    1  UNL1       -0.3115
      7 C           5.8544   -0.6287    1.5478 C.2     1  UNL1        0.2351
      8 O           5.8130   -0.9509    2.7634 O.2     1  UNL1       -0.2737
      9 O           1.8669    0.2103   -0.9952 O.3     1  UNL1       -0.4504
     10 C           0.6529   -0.3610   -1.4638 C.3     1  UNL1        0.0941
     11 C          -0.2764    0.7745   -1.8105 C.3     1  UNL1       -0.0185
     12 C          -0.5179    1.6111   -0.5923 C.3     1  UNL1       -0.0497
     13 C          -1.1368    0.7912    0.4885 C.3     1  UNL1       -0.0501
     14 C          -2.4557    0.2152    0.0316 C.3     1  UNL1       -0.0407
     15 C          -3.4454    1.2695   -0.3471 C.3     1  UNL1       -0.0448
     16 C          -4.8280    0.8579    0.0522 C.3     1  UNL1        0.0110
     17 C          -5.0790   -0.6211   -0.0773 C.3     1  UNL1        0.2490
     18 F          -5.1368   -0.9789   -1.4123 F       1  UNL1       -0.2057
     19 F          -6.3383   -0.8570    0.4855 F       1  UNL1       -0.2057
     20 C          -4.0995   -1.4460    0.7074 C.3     1  UNL1        0.0110
     21 C          -3.0454   -0.5072    1.2525 C.3     1  UNL1       -0.0448
     22 H           4.2786    0.8079   -0.0685 H       1  UNL1        0.1528
     23 H           5.0320   -2.1561    0.1969 H       1  UNL1        0.0611
     24 H           6.3291   -0.1674   -1.3208 H       1  UNL1        0.0485
     25 H           7.3375   -1.3387   -0.2905 H       1  UNL1        0.0485
     26 H           6.8940    1.2834    0.9626 H       1  UNL1        0.1488
     27 H           0.8973   -0.9240   -2.4188 H       1  UNL1        0.0698
     28 H           0.2147   -1.1050   -0.8028 H       1  UNL1        0.0698
     29 H          -1.2305    0.4069   -2.2482 H       1  UNL1        0.0298
     30 H           0.1762    1.4572   -2.5703 H       1  UNL1        0.0298
     31 H          -1.1349    2.5048   -0.8643 H       1  UNL1        0.0266
     32 H           0.4743    1.9655   -0.2375 H       1  UNL1        0.0266
     33 H          -0.4798   -0.0559    0.7664 H       1  UNL1        0.0268
     34 H          -1.2785    1.3728    1.4271 H       1  UNL1        0.0268
     35 H          -2.3216   -0.4999   -0.8007 H       1  UNL1        0.0301
     36 H          -3.4482    1.4705   -1.4494 H       1  UNL1        0.0270
     37 H          -3.1840    2.2166    0.1685 H       1  UNL1        0.0270
     38 H          -5.5564    1.3674   -0.6183 H       1  UNL1        0.0323
     39 H          -5.0605    1.2082    1.0795 H       1  UNL1        0.0323
     40 H          -4.5458   -2.0767    1.4767 H       1  UNL1        0.0323
     41 H          -3.5526   -2.1297   -0.0063 H       1  UNL1        0.0323
     42 H          -3.4786    0.2391    1.9280 H       1  UNL1        0.0270
     43 H          -2.2001   -1.0732    1.7078 H       1  UNL1        0.0270
@<TRIPOS>BOND
     1     1     2    2
     2     2     3   am
     3     3     4    1
     4     4     5    1
     5     5     6    1
     6     6     7   am
     7     7     8    2
     8     2     9    1
     9     9    10    1
    10    10    11    1
    11    11    12    1
    12    12    13    1
    13    13    14    1
    14    14    15    1
    15    15    16    1
    16    16    17    1
    17    17    18    1
    18    17    19    1
    19    17    20    1
    20    20    21    1
    21     7     4    1
    22    21    14    1
    23     3    22    1
    24     4    23    1
    25     5    24    1
    26     5    25    1
    27     6    26    1
    28    10    27    1
    29    10    28    1
    30    11    29    1
    31    11    30    1
    32    12    31    1
    33    12    32    1
    34    13    33    1
    35    13    34    1
    36    14    35    1
    37    15    36    1
    38    15    37    1
    39    16    38    1
    40    16    39    1
    41    20    40    1
    42    20    41    1
    43    21    42    1
    44    21    43    1
