
     RDKit          3D

 43 44  0  0  0  0  0  0  0  0999 V2000
    2.7273   -1.9296   -0.6825 O   0  0  0  0  0  0  0  0  0  0  0  0
    2.8793   -0.6675   -0.6148 C   0  0  0  0  0  0  0  0  0  0  0  0
    4.1353   -0.2195   -0.1311 N   0  0  0  0  0  0  0  0  0  0  0  0
    5.2045   -1.0858    0.2711 C   0  0  1  0  0  0  0  0  0  0  0  0
    6.5203   -0.5861   -0.3287 C   0  0  0  0  0  0  0  0  0  0  0  0
    6.5429    0.3357    0.7767 N   0  0  0  0  0  0  0  0  0  0  0  0
    5.8544   -0.6287    1.5478 C   0  0  0  0  0  0  0  0  0  0  0  0
    5.8130   -0.9509    2.7634 O   0  0  0  0  0  0  0  0  0  0  0  0
    1.8669    0.2103   -0.9952 O   0  0  0  0  0  0  0  0  0  0  0  0
    0.6529   -0.3610   -1.4638 C   0  0  0  0  0  0  0  0  0  0  0  0
   -0.2764    0.7745   -1.8105 C   0  0  0  0  0  0  0  0  0  0  0  0
   -0.5179    1.6111   -0.5923 C   0  0  0  0  0  0  0  0  0  0  0  0
   -1.1368    0.7912    0.4885 C   0  0  0  0  0  0  0  0  0  0  0  0
   -2.4557    0.2152    0.0316 C   0  0  0  0  0  0  0  0  0  0  0  0
   -3.4454    1.2695   -0.3471 C   0  0  0  0  0  0  0  0  0  0  0  0
   -4.8280    0.8579    0.0522 C   0  0  0  0  0  0  0  0  0  0  0  0
   -5.0790   -0.6211   -0.0773 C   0  0  0  0  0  0  0  0  0  0  0  0
   -5.1368   -0.9789   -1.4123 F   0  0  0  0  0  0  0  0  0  0  0  0
   -6.3383   -0.8570    0.4855 F   0  0  0  0  0  0  0  0  0  0  0  0
   -4.0995   -1.4460    0.7074 C   0  0  0  0  0  0  0  0  0  0  0  0
   -3.0454   -0.5072    1.2525 C   0  0  0  0  0  0  0  0  0  0  0  0
    4.2786    0.8079   -0.0685 H   0  0  0  0  0  0  0  0  0  0  0  0
    5.0320   -2.1561    0.1969 H   0  0  0  0  0  0  0  0  0  0  0  0
    6.3291   -0.1674   -1.3208 H   0  0  0  0  0  0  0  0  0  0  0  0
    7.3375   -1.3387   -0.2905 H   0  0  0  0  0  0  0  0  0  0  0  0
    6.8940    1.2834    0.9626 H   0  0  0  0  0  0  0  0  0  0  0  0
    0.8973   -0.9240   -2.4188 H   0  0  0  0  0  0  0  0  0  0  0  0
    0.2147   -1.1050   -0.8028 H   0  0  0  0  0  0  0  0  0  0  0  0
   -1.2305    0.4069   -2.2482 H   0  0  0  0  0  0  0  0  0  0  0  0
    0.1762    1.4572   -2.5703 H   0  0  0  0  0  0  0  0  0  0  0  0
   -1.1349    2.5048   -0.8643 H   0  0  0  0  0  0  0  0  0  0  0  0
    0.4743    1.9655   -0.2375 H   0  0  0  0  0  0  0  0  0  0  0  0
   -0.4798   -0.0559    0.7664 H   0  0  0  0  0  0  0  0  0  0  0  0
   -1.2785    1.3728    1.4271 H   0  0  0  0  0  0  0  0  0  0  0  0
   -2.3216   -0.4999   -0.8007 H   0  0  0  0  0  0  0  0  0  0  0  0
   -3.4482    1.4705   -1.4494 H   0  0  0  0  0  0  0  0  0  0  0  0
   -3.1840    2.2166    0.1685 H   0  0  0  0  0  0  0  0  0  0  0  0
   -5.5564    1.3674   -0.6183 H   0  0  0  0  0  0  0  0  0  0  0  0
   -5.0605    1.2082    1.0795 H   0  0  0  0  0  0  0  0  0  0  0  0
   -4.5458   -2.0767    1.4767 H   0  0  0  0  0  0  0  0  0  0  0  0
   -3.5526   -2.1297   -0.0063 H   0  0  0  0  0  0  0  0  0  0  0  0
   -3.4786    0.2391    1.9280 H   0  0  0  0  0  0  0  0  0  0  0  0
   -2.2001   -1.0732    1.7078 H   0  0  0  0  0  0  0  0  0  0  0  0
  1  2  2  0
  2  3  1  0
  3  4  1  0
  4  5  1  0
  5  6  1  0
  6  7  1  0
  7  8  2  0
  2  9  1  0
  9 10  1  0
 10 11  1  0
 11 12  1  0
 12 13  1  0
 13 14  1  0
 14 15  1  0
 15 16  1  0
 16 17  1  0
 17 18  1  0
 17 19  1  0
 17 20  1  0
 20 21  1  0
  7  4  1  0
 21 14  1  0
  3 22  1  0
  4 23  1  1
  5 24  1  0
  5 25  1  0
  6 26  1  0
 10 27  1  0
 10 28  1  0
 11 29  1  0
 11 30  1  0
 12 31  1  0
 12 32  1  0
 13 33  1  0
 13 34  1  0
 14 35  1  0
 15 36  1  0
 15 37  1  0
 16 38  1  0
 16 39  1  0
 20 40  1  0
 20 41  1  0
 21 42  1  0
 21 43  1  0
M  END
$$$$
