@<TRIPOS>MOLECULE
*****
 53 57 0 0 0
SMALL
GASTEIGER

@<TRIPOS>ATOM
      1 O           1.3999   -1.6707   -0.9870 O.2     1  UNL1       -0.2526
      2 C           1.1485   -0.5310   -0.5127 C.2     1  UNL1        0.3024
      3 N           2.2424    0.3918   -0.4358 N.am    1  UNL1       -0.2958
      4 C           3.5842    0.0371   -0.8818 C.3     1  UNL1        0.0320
      5 C           4.3847    1.0335   -1.6359 C.3     1  UNL1       -0.0254
      6 C           4.7774    0.6004   -0.2048 C.3     1  UNL1        0.0043
      7 C           6.0219   -0.1601   -0.0746 C.ar    1  UNL1       -0.0425
      8 C           6.3768   -1.1346   -0.9926 C.ar    1  UNL1       -0.0582
      9 C           7.5317   -1.8557   -0.8910 C.ar    1  UNL1       -0.0615
     10 C           8.3853   -1.6226    0.1500 C.ar    1  UNL1       -0.0617
     11 C           8.0780   -0.6577    1.0977 C.ar    1  UNL1       -0.0615
     12 C           6.8963    0.0597    0.9679 C.ar    1  UNL1       -0.0582
     13 N          -0.1626   -0.2089   -0.0854 N.am    1  UNL1       -0.2854
     14 C          -0.5339    1.0683    0.4704 C.3     1  UNL1        0.0197
     15 C          -1.7852    1.0013    1.3036 C.3     1  UNL1        0.0031
     16 C          -2.9569    0.4199    0.5647 C.3     1  UNL1        0.1163
     17 C          -2.5589   -0.6067   -0.4602 C.3     1  UNL1        0.0031
     18 C          -1.2019   -1.2010   -0.2056 C.3     1  UNL1        0.0197
     19 C          -3.6056    1.5647   -0.1929 C.3     1  UNL1        0.0190
     20 C          -4.9093    1.1823   -0.8035 C.3     1  UNL1        0.1041
     21 O          -5.6269    2.3681   -1.0424 O.3     1  UNL1       -0.3854
     22 C          -5.7620    0.3190    0.0203 C.ar    1  UNL1        0.1112
     23 N          -7.0455    0.1635   -0.3289 N.ar    1  UNL1       -0.2536
     24 C          -7.9156   -0.5976    0.3440 C.ar    1  UNL1        0.0282
     25 C          -7.4372   -1.2550    1.4666 C.ar    1  UNL1       -0.0401
     26 C          -6.1116   -1.1112    1.8506 C.ar    1  UNL1       -0.0166
     27 C          -5.2386   -0.3092    1.1222 C.ar    1  UNL1        0.1450
     28 O          -3.9193   -0.1240    1.4461 O.3     1  UNL1       -0.4836
     29 H           2.0234    1.3315   -0.0429 H       1  UNL1        0.1505
     30 H           3.6493   -1.0007   -1.2721 H       1  UNL1        0.0505
     31 H           4.0695    2.0823   -1.7347 H       1  UNL1        0.0290
     32 H           5.0288    0.6898   -2.4642 H       1  UNL1        0.0290
     33 H           4.6017    1.3629    0.5965 H       1  UNL1        0.0367
     34 H           5.7200   -1.3285   -1.8116 H       1  UNL1        0.0620
     35 H           7.8056   -2.6193   -1.6140 H       1  UNL1        0.0618
     36 H           9.3116   -2.1588    0.2845 H       1  UNL1        0.0618
     37 H           8.7625   -0.4680    1.9360 H       1  UNL1        0.0618
     38 H           6.6644    0.8093    1.7102 H       1  UNL1        0.0620
     39 H           0.2937    1.5803    0.9902 H       1  UNL1        0.0466
     40 H          -0.7911    1.7309   -0.4089 H       1  UNL1        0.0466
     41 H          -1.9867    2.0156    1.7007 H       1  UNL1        0.0319
     42 H          -1.5769    0.3490    2.1754 H       1  UNL1        0.0319
     43 H          -2.5741   -0.2074   -1.4969 H       1  UNL1        0.0319
     44 H          -3.3020   -1.4282   -0.4247 H       1  UNL1        0.0319
     45 H          -0.9625   -1.8489   -1.0750 H       1  UNL1        0.0466
     46 H          -1.1990   -1.8656    0.6975 H       1  UNL1        0.0466
     47 H          -3.6555    2.4844    0.4225 H       1  UNL1        0.0333
     48 H          -2.8944    1.8077   -1.0301 H       1  UNL1        0.0333
     49 H          -4.7492    0.6795   -1.7823 H       1  UNL1        0.0661
     50 H          -5.4919    3.0347   -0.3363 H       1  UNL1        0.2103
     51 H          -8.9588   -0.7074    0.0374 H       1  UNL1        0.0829
     52 H          -8.1240   -1.8770    2.0275 H       1  UNL1        0.0634
     53 H          -5.7201   -1.6117    2.7173 H       1  UNL1        0.0655
@<TRIPOS>BOND
     1     1     2    2
     2     2     3   am
     3     3     4    1
     4     4     5    1
     5     5     6    1
     6     6     7    1
     7     7     8   ar
     8     8     9   ar
     9     9    10   ar
    10    10    11   ar
    11    11    12   ar
    12     2    13   am
    13    13    14    1
    14    14    15    1
    15    15    16    1
    16    16    17    1
    17    17    18    1
    18    16    19    1
    19    19    20    1
    20    20    21    1
    21    20    22    1
    22    22    23   ar
    23    23    24   ar
    24    24    25   ar
    25    25    26   ar
    26    26    27   ar
    27    27    28    1
    28     6     4    1
    29    12     7   ar
    30    18    13    1
    31    27    22   ar
    32    28    16    1
    33     3    29    1
    34     4    30    1
    35     5    31    1
    36     5    32    1
    37     6    33    1
    38     8    34    1
    39     9    35    1
    40    10    36    1
    41    11    37    1
    42    12    38    1
    43    14    39    1
    44    14    40    1
    45    15    41    1
    46    15    42    1
    47    17    43    1
    48    17    44    1
    49    18    45    1
    50    18    46    1
    51    19    47    1
    52    19    48    1
    53    20    49    1
    54    21    50    1
    55    24    51    1
    56    25    52    1
    57    26    53    1
