
     RDKit          3D

 52 55  0  0  0  0  0  0  0  0999 V2000
   -2.0195    0.1942   -2.1897 C   0  0  0  0  0  0  0  0  0  0  0  0
   -1.3840    0.2615   -0.8504 C   0  0  2  0  0  0  0  0  0  0  0  0
   -0.1601    1.0966   -0.9060 C   0  0  0  0  0  0  0  0  0  0  0  0
    1.1042    0.5570   -0.6307 C   0  0  0  0  0  0  0  0  0  0  0  0
    2.2717    1.2666   -0.6515 C   0  0  0  0  0  0  0  0  0  0  0  0
    3.5590    0.7380   -0.3746 N   0  0  0  0  0  0  0  0  0  0  0  0
    3.8971   -0.5678   -0.0310 C   0  0  0  0  0  0  0  0  0  0  0  0
    3.0050   -1.4319    0.0628 O   0  0  0  0  0  0  0  0  0  0  0  0
    5.2615   -1.0129    0.2357 C   0  0  0  0  0  0  0  0  0  0  0  0
    5.5928   -2.3009    0.5758 C   0  0  0  0  0  0  0  0  0  0  0  0
    6.9259   -2.6612    0.8194 C   0  0  0  0  0  0  0  0  0  0  0  0
    7.9177   -1.7093    0.7162 C   0  0  0  0  0  0  0  0  0  0  0  0
    9.2276   -2.0413    0.9504 F   0  0  0  0  0  0  0  0  0  0  0  0
    7.5433   -0.4286    0.3727 C   0  0  0  0  0  0  0  0  0  0  0  0
    6.2472   -0.1070    0.1425 N   0  0  0  0  0  0  0  0  0  0  0  0
    2.1387    2.6237   -0.9768 C   0  0  0  0  0  0  0  0  0  0  0  0
    0.9393    3.2175   -1.2569 C   0  0  0  0  0  0  0  0  0  0  0  0
   -0.1930    2.4339   -1.2151 C   0  0  0  0  0  0  0  0  0  0  0  0
   -1.3536    3.0597   -1.5106 F   0  0  0  0  0  0  0  0  0  0  0  0
   -0.9418   -1.1050   -0.5080 N   0  0  0  0  0  0  0  0  0  0  0  0
   -1.8782   -1.9269   -0.1738 C   0  0  0  0  0  0  0  0  0  0  0  0
   -1.6275   -3.2680    0.1813 N   0  0  0  0  0  0  0  0  0  0  0  0
   -3.1785   -1.4620   -0.1670 O   0  0  0  0  0  0  0  0  0  0  0  0
   -3.5213   -0.1693    0.3635 C   0  0  0  0  0  0  0  0  0  0  0  0
   -4.5813    0.4598   -0.4754 C   0  0  0  0  0  0  0  0  0  0  0  0
   -5.6581    1.1656    0.3160 C   0  0  0  0  0  0  0  0  0  0  0  0
   -6.0435    0.4947    1.4504 O   0  0  0  0  0  0  0  0  0  0  0  0
   -4.9358    0.5292    2.3283 C   0  0  0  0  0  0  0  0  0  0  0  0
   -3.9159   -0.4124    1.7943 C   0  0  0  0  0  0  0  0  0  0  0  0
   -2.2685    0.6711    0.2767 C   0  0  0  0  0  0  0  0  0  0  0  0
   -1.5564    0.4085    1.4578 F   0  0  0  0  0  0  0  0  0  0  0  0
   -2.6414    1.9688    0.3275 F   0  0  0  0  0  0  0  0  0  0  0  0
   -2.2604    1.1774   -2.6320 H   0  0  0  0  0  0  0  0  0  0  0  0
   -2.8864   -0.4582   -2.2568 H   0  0  0  0  0  0  0  0  0  0  0  0
   -1.2484   -0.2501   -2.8869 H   0  0  0  0  0  0  0  0  0  0  0  0
    1.1151   -0.5064   -0.3872 H   0  0  0  0  0  0  0  0  0  0  0  0
    4.3929    1.4102   -0.4308 H   0  0  0  0  0  0  0  0  0  0  0  0
    4.8064   -3.0193    0.6492 H   0  0  0  0  0  0  0  0  0  0  0  0
    7.1787   -3.6655    1.0839 H   0  0  0  0  0  0  0  0  0  0  0  0
    8.3430    0.3067    0.2969 H   0  0  0  0  0  0  0  0  0  0  0  0
    3.0458    3.2093   -1.0006 H   0  0  0  0  0  0  0  0  0  0  0  0
    0.8722    4.2883   -1.5089 H   0  0  0  0  0  0  0  0  0  0  0  0
   -1.0441   -3.4783    1.0062 H   0  0  0  0  0  0  0  0  0  0  0  0
   -2.0226   -4.0407   -0.3768 H   0  0  0  0  0  0  0  0  0  0  0  0
   -5.0294   -0.2739   -1.1935 H   0  0  0  0  0  0  0  0  0  0  0  0
   -4.1388    1.2562   -1.1438 H   0  0  0  0  0  0  0  0  0  0  0  0
   -6.4796    1.4282   -0.3667 H   0  0  0  0  0  0  0  0  0  0  0  0
   -5.2093    2.1418    0.6412 H   0  0  0  0  0  0  0  0  0  0  0  0
   -4.5893    1.5765    2.3913 H   0  0  0  0  0  0  0  0  0  0  0  0
   -5.3033    0.1341    3.2917 H   0  0  0  0  0  0  0  0  0  0  0  0
   -3.0036   -0.3246    2.4250 H   0  0  0  0  0  0  0  0  0  0  0  0
   -4.3114   -1.4539    1.9448 H   0  0  0  0  0  0  0  0  0  0  0  0
  2  1  1  6
  2  3  1  0
  3  4  2  0
  4  5  1  0
  5  6  1  0
  6  7  1  0
  7  8  2  0
  7  9  1  0
  9 10  2  0
 10 11  1  0
 11 12  2  0
 12 13  1  0
 12 14  1  0
 14 15  2  0
  5 16  2  0
 16 17  1  0
 17 18  2  0
 18 19  1  0
  2 20  1  0
 20 21  2  0
 21 22  1  0
 21 23  1  0
 23 24  1  0
 24 25  1  0
 25 26  1  0
 26 27  1  0
 27 28  1  0
 28 29  1  0
 24 30  1  0
 30 31  1  0
 30 32  1  0
 30  2  1  0
 18  3  1  0
 29 24  1  0
 15  9  1  0
  1 33  1  0
  1 34  1  0
  1 35  1  0
  4 36  1  0
  6 37  1  0
 10 38  1  0
 11 39  1  0
 14 40  1  0
 16 41  1  0
 17 42  1  0
 22 43  1  0
 22 44  1  0
 25 45  1  0
 25 46  1  0
 26 47  1  0
 26 48  1  0
 28 49  1  0
 28 50  1  0
 29 51  1  0
 29 52  1  0
M  END
$$$$
