@<TRIPOS>MOLECULE
*****
 52 55 0 0 0
SMALL
GASTEIGER

@<TRIPOS>ATOM
      1 C          -2.0195    0.1942   -2.1897 C.3     1  UNL1       -0.0295
      2 C          -1.3840    0.2615   -0.8504 C.3     1  UNL1        0.1580
      3 C          -0.1601    1.0966   -0.9060 C.ar    1  UNL1        0.0226
      4 C           1.1042    0.5570   -0.6307 C.ar    1  UNL1       -0.0321
      5 C           2.2717    1.2666   -0.6515 C.ar    1  UNL1        0.0342
      6 N           3.5590    0.7380   -0.3746 N.am    1  UNL1       -0.2802
      7 C           3.8971   -0.5678   -0.0310 C.2     1  UNL1        0.2666
      8 O           3.0050   -1.4319    0.0628 O.2     1  UNL1       -0.2682
      9 C           5.2615   -1.0129    0.2357 C.ar    1  UNL1        0.1258
     10 C           5.5928   -2.3009    0.5758 C.ar    1  UNL1       -0.0285
     11 C           6.9259   -2.6612    0.8194 C.ar    1  UNL1       -0.0228
     12 C           7.9177   -1.7093    0.7162 C.ar    1  UNL1        0.1414
     13 F           9.2276   -2.0413    0.9504 F       1  UNL1       -0.2039
     14 C           7.5433   -0.4286    0.3727 C.ar    1  UNL1        0.0636
     15 N           6.2472   -0.1070    0.1425 N.ar    1  UNL1       -0.2475
     16 C           2.1387    2.6237   -0.9768 C.ar    1  UNL1       -0.0377
     17 C           0.9393    3.2175   -1.2569 C.ar    1  UNL1       -0.0243
     18 C          -0.1930    2.4339   -1.2151 C.ar    1  UNL1        0.1292
     19 F          -1.3536    3.0597   -1.5106 F       1  UNL1       -0.2051
     20 N          -0.9418   -1.1050   -0.5080 N.2     1  UNL1       -0.2196
     21 C          -1.8782   -1.9269   -0.1738 C.2     1  UNL1        0.2768
     22 N          -1.6275   -3.2680    0.1813 N.pl3   1  UNL1       -0.3133
     23 O          -3.1785   -1.4620   -0.1670 O.2     1  UNL1       -0.4530
     24 C          -3.5213   -0.1693    0.3635 C.3     1  UNL1        0.1828
     25 C          -4.5813    0.4598   -0.4754 C.3     1  UNL1        0.0166
     26 C          -5.6581    1.1656    0.3160 C.3     1  UNL1        0.0515
     27 O          -6.0435    0.4947    1.4504 O.3     1  UNL1       -0.3795
     28 C          -4.9358    0.5292    2.3283 C.3     1  UNL1        0.0515
     29 C          -3.9159   -0.4124    1.7943 C.3     1  UNL1        0.0166
     30 C          -2.2685    0.6711    0.2767 C.3     1  UNL1        0.3161
     31 F          -1.5564    0.4085    1.4578 F       1  UNL1       -0.1983
     32 F          -2.6414    1.9688    0.3275 F       1  UNL1       -0.1983
     33 H          -2.2604    1.1774   -2.6320 H       1  UNL1        0.0258
     34 H          -2.8864   -0.4582   -2.2568 H       1  UNL1        0.0258
     35 H          -1.2484   -0.2501   -2.8869 H       1  UNL1        0.0258
     36 H           1.1151   -0.5064   -0.3872 H       1  UNL1        0.0640
     37 H           4.3929    1.4102   -0.4308 H       1  UNL1        0.1552
     38 H           4.8064   -3.0193    0.6492 H       1  UNL1        0.0641
     39 H           7.1787   -3.6655    1.0839 H       1  UNL1        0.0647
     40 H           8.3430    0.3067    0.2969 H       1  UNL1        0.0859
     41 H           3.0458    3.2093   -1.0006 H       1  UNL1        0.0637
     42 H           0.8722    4.2883   -1.5089 H       1  UNL1        0.0647
     43 H          -1.0441   -3.4783    1.0062 H       1  UNL1        0.1466
     44 H          -2.0226   -4.0407   -0.3768 H       1  UNL1        0.1466
     45 H          -5.0294   -0.2739   -1.1935 H       1  UNL1        0.0328
     46 H          -4.1388    1.2562   -1.1438 H       1  UNL1        0.0328
     47 H          -6.4796    1.4282   -0.3667 H       1  UNL1        0.0561
     48 H          -5.2093    2.1418    0.6412 H       1  UNL1        0.0561
     49 H          -4.5893    1.5765    2.3913 H       1  UNL1        0.0561
     50 H          -5.3033    0.1341    3.2917 H       1  UNL1        0.0561
     51 H          -3.0036   -0.3246    2.4250 H       1  UNL1        0.0328
     52 H          -4.3114   -1.4539    1.9448 H       1  UNL1        0.0328
@<TRIPOS>BOND
     1     2     1    1
     2     2     3    1
     3     3     4   ar
     4     4     5   ar
     5     5     6    1
     6     6     7   am
     7     7     8    2
     8     7     9    1
     9     9    10   ar
    10    10    11   ar
    11    11    12   ar
    12    12    13    1
    13    12    14   ar
    14    14    15   ar
    15     5    16   ar
    16    16    17   ar
    17    17    18   ar
    18    18    19    1
    19     2    20    1
    20    20    21    2
    21    21    22    1
    22    21    23    1
    23    23    24    1
    24    24    25    1
    25    25    26    1
    26    26    27    1
    27    27    28    1
    28    28    29    1
    29    24    30    1
    30    30    31    1
    31    30    32    1
    32    30     2    1
    33    18     3   ar
    34    29    24    1
    35    15     9   ar
    36     1    33    1
    37     1    34    1
    38     1    35    1
    39     4    36    1
    40     6    37    1
    41    10    38    1
    42    11    39    1
    43    14    40    1
    44    16    41    1
    45    17    42    1
    46    22    43    1
    47    22    44    1
    48    25    45    1
    49    25    46    1
    50    26    47    1
    51    26    48    1
    52    28    49    1
    53    28    50    1
    54    29    51    1
    55    29    52    1
