@<TRIPOS>MOLECULE
*****
 49 53 0 0 0
SMALL
GASTEIGER

@<TRIPOS>ATOM
      1 N           5.4735    1.2679    1.8941 N.am    1  UNL1       -0.3241
      2 C           4.1471    1.0068    1.4556 C.2     1  UNL1        0.2599
      3 O           3.2113    1.5793    2.0527 O.2     1  UNL1       -0.2687
      4 C           3.9095    0.0988    0.3460 C.ar    1  UNL1        0.1280
      5 C           4.9022   -0.5783   -0.3682 C.ar    1  UNL1        0.0588
      6 N           4.2800   -1.3096   -1.3054 N.ar    1  UNL1       -0.2353
      7 C           2.9471   -1.1344   -1.2260 C.ar    1  UNL1        0.1381
      8 C           1.8627   -1.6253   -1.9210 C.ar    1  UNL1       -0.0182
      9 C           0.5992   -1.2153   -1.5541 C.ar    1  UNL1       -0.0477
     10 C           0.3815   -0.3322   -0.5172 C.ar    1  UNL1        0.0173
     11 C          -0.9690    0.0591   -0.1828 C.ar    1  UNL1        0.0781
     12 C          -1.4881    1.3575   -0.2106 C.ar    1  UNL1        0.0967
     13 C          -0.7531    2.5608   -0.5833 C.ar    1  UNL1        0.0026
     14 C          -0.5615    3.6251    0.2977 C.ar    1  UNL1       -0.0498
     15 C           0.1379    4.7520   -0.0781 C.ar    1  UNL1       -0.0258
     16 C           0.6767    4.8733   -1.3401 C.ar    1  UNL1        0.1234
     17 F           1.3704    5.9705   -1.7386 F       1  UNL1       -0.2055
     18 C           0.4945    3.8251   -2.2251 C.ar    1  UNL1       -0.0258
     19 C          -0.2103    2.6908   -1.8448 C.ar    1  UNL1       -0.0498
     20 N          -2.7782    1.2976    0.1665 N.ar    1  UNL1       -0.2351
     21 C          -3.0993    0.0390    0.4292 C.ar    1  UNL1        0.0973
     22 N          -1.9991   -0.7080    0.2160 N.ar    1  UNL1       -0.3265
     23 C          -1.9763   -2.1463    0.4047 C.3     1  UNL1        0.0360
     24 C          -2.6404   -2.4680    1.7080 C.3     1  UNL1       -0.0321
     25 C          -3.6937   -3.5014    1.4546 C.3     1  UNL1       -0.0511
     26 C          -4.0800   -3.2751    0.0259 C.3     1  UNL1       -0.0511
     27 C          -2.7969   -2.8718   -0.6277 C.3     1  UNL1       -0.0321
     28 C           1.5009    0.1319    0.1492 C.ar    1  UNL1        0.0211
     29 N           2.7464   -0.2749   -0.2157 N.ar    1  UNL1       -0.2949
     30 H           5.7371    2.2595    2.1546 H       1  UNL1        0.1453
     31 H           6.2177    0.5546    1.9812 H       1  UNL1        0.1453
     32 H           5.9562   -0.5006   -0.1715 H       1  UNL1        0.0853
     33 H           2.0295   -2.3241   -2.7420 H       1  UNL1        0.0654
     34 H          -0.2684   -1.6004   -2.1008 H       1  UNL1        0.0626
     35 H          -0.9933    3.5148    1.2926 H       1  UNL1        0.0625
     36 H           0.2826    5.5722    0.6089 H       1  UNL1        0.0646
     37 H           0.9242    3.9265   -3.2255 H       1  UNL1        0.0646
     38 H          -0.3132    1.9076   -2.5939 H       1  UNL1        0.0625
     39 H          -4.0822   -0.2811    0.7537 H       1  UNL1        0.1029
     40 H          -0.9342   -2.5140    0.4462 H       1  UNL1        0.0528
     41 H          -3.1167   -1.5726    2.1469 H       1  UNL1        0.0285
     42 H          -1.9242   -2.8694    2.4673 H       1  UNL1        0.0285
     43 H          -4.6039   -3.3186    2.0828 H       1  UNL1        0.0266
     44 H          -3.3251   -4.5354    1.5498 H       1  UNL1        0.0266
     45 H          -4.4412   -4.2109   -0.4708 H       1  UNL1        0.0266
     46 H          -4.8880   -2.5212   -0.0629 H       1  UNL1        0.0266
     47 H          -2.9179   -2.2162   -1.4988 H       1  UNL1        0.0285
     48 H          -2.2615   -3.7891   -1.0041 H       1  UNL1        0.0285
     49 H           1.3274    0.8230    0.9612 H       1  UNL1        0.0820
@<TRIPOS>BOND
     1     1     2   am
     2     2     3    2
     3     2     4    1
     4     4     5   ar
     5     5     6   ar
     6     6     7   ar
     7     7     8   ar
     8     8     9   ar
     9     9    10   ar
    10    10    11    1
    11    11    12   ar
    12    12    13    1
    13    13    14   ar
    14    14    15   ar
    15    15    16   ar
    16    16    17    1
    17    16    18   ar
    18    18    19   ar
    19    12    20   ar
    20    20    21   ar
    21    21    22   ar
    22    22    23    1
    23    23    24    1
    24    24    25    1
    25    25    26    1
    26    26    27    1
    27    10    28   ar
    28    28    29   ar
    29    29     4   ar
    30    29     7   ar
    31    22    11   ar
    32    27    23    1
    33    19    13   ar
    34     1    30    1
    35     1    31    1
    36     5    32    1
    37     8    33    1
    38     9    34    1
    39    14    35    1
    40    15    36    1
    41    18    37    1
    42    19    38    1
    43    21    39    1
    44    23    40    1
    45    24    41    1
    46    24    42    1
    47    25    43    1
    48    25    44    1
    49    26    45    1
    50    26    46    1
    51    27    47    1
    52    27    48    1
    53    28    49    1
