
     RDKit          3D

 39 42  0  0  0  0  0  0  0  0999 V2000
   -5.7692    2.2765    1.1290 C   0  0  0  0  0  0  0  0  0  0  0  0
   -4.4266    1.7314    0.7346 C   0  0  0  0  0  0  0  0  0  0  0  0
   -3.8707    0.5128    1.1058 C   0  0  0  0  0  0  0  0  0  0  0  0
   -2.6247    0.3957    0.5313 C   0  0  0  0  0  0  0  0  0  0  0  0
   -1.7472   -0.7268    0.6876 N   0  0  0  0  0  0  0  0  0  0  0  0
   -0.4785   -0.7910    0.0782 C   0  0  0  0  0  0  0  0  0  0  0  0
    0.5856   -0.3119    0.6956 N   0  0  0  0  0  0  0  0  0  0  0  0
    1.8182   -0.3387    0.1810 N   0  0  0  0  0  0  0  0  0  0  0  0
    2.9261    0.1892    0.8835 C   0  0  0  0  0  0  0  0  0  0  0  0
    2.8385    1.4002    1.5296 C   0  0  0  0  0  0  0  0  0  0  0  0
    3.9332    1.9229    2.2247 C   0  0  0  0  0  0  0  0  0  0  0  0
    5.1134    1.2305    2.2707 C   0  0  0  0  0  0  0  0  0  0  0  0
    6.4421    1.9377    3.1554 Cl  0  0  0  0  0  0  0  0  0  0  0  0
    5.2106    0.0082    1.6217 C   0  0  0  0  0  0  0  0  0  0  0  0
    4.1096   -0.4992    0.9327 C   0  0  0  0  0  0  0  0  0  0  0  0
    1.9869   -0.8866   -1.0396 C   0  0  0  0  0  0  0  0  0  0  0  0
    3.1341   -0.9325   -1.5627 O   0  0  0  0  0  0  0  0  0  0  0  0
    0.9185   -1.3997   -1.7273 C   0  0  0  0  0  0  0  0  0  0  0  0
    1.1151   -1.9475   -2.9572 C   0  0  0  0  0  0  0  0  0  0  0  0
    0.0252   -2.4598   -3.6345 C   0  0  0  0  0  0  0  0  0  0  0  0
   -1.2337   -2.4180   -3.0787 C   0  0  0  0  0  0  0  0  0  0  0  0
   -1.4508   -1.8683   -1.8368 C   0  0  0  0  0  0  0  0  0  0  0  0
   -0.3638   -1.3585   -1.1640 C   0  0  0  0  0  0  0  0  0  0  0  0
   -2.4308    1.5146   -0.1698 N   0  0  0  0  0  0  0  0  0  0  0  0
   -3.5014    2.3134   -0.0518 N   0  0  0  0  0  0  0  0  0  0  0  0
   -6.5132    2.1253    0.3406 H   0  0  0  0  0  0  0  0  0  0  0  0
   -5.6066    3.3291    1.4184 H   0  0  0  0  0  0  0  0  0  0  0  0
   -6.1050    1.7445    2.0622 H   0  0  0  0  0  0  0  0  0  0  0  0
   -4.3562   -0.2135    1.7447 H   0  0  0  0  0  0  0  0  0  0  0  0
   -2.0275   -1.5540    1.2730 H   0  0  0  0  0  0  0  0  0  0  0  0
    1.9013    1.9315    1.4829 H   0  0  0  0  0  0  0  0  0  0  0  0
    3.7881    2.8739    2.7041 H   0  0  0  0  0  0  0  0  0  0  0  0
    6.1534   -0.4999    1.6832 H   0  0  0  0  0  0  0  0  0  0  0  0
    4.2256   -1.4418    0.4471 H   0  0  0  0  0  0  0  0  0  0  0  0
    2.1138   -1.9660   -3.3674 H   0  0  0  0  0  0  0  0  0  0  0  0
    0.2078   -2.8917   -4.6147 H   0  0  0  0  0  0  0  0  0  0  0  0
   -2.0670   -2.8260   -3.6310 H   0  0  0  0  0  0  0  0  0  0  0  0
   -2.4123   -1.8133   -1.3642 H   0  0  0  0  0  0  0  0  0  0  0  0
   -1.5618    1.7074   -0.7181 H   0  0  0  0  0  0  0  0  0  0  0  0
  1  2  1  0
  2  3  1  0
  3  4  2  0
  4  5  1  0
  5  6  1  0
  6  7  2  0
  7  8  1  0
  8  9  1  0
  9 10  2  0
 10 11  1  0
 11 12  2  0
 12 13  1  0
 12 14  1  0
 14 15  2  0
  8 16  1  0
 16 17  2  0
 16 18  1  0
 18 19  2  0
 19 20  1  0
 20 21  2  0
 21 22  1  0
 22 23  2  0
  4 24  1  0
 24 25  1  0
 25  2  2  0
 23  6  1  0
 15  9  1  0
 23 18  1  0
  1 26  1  0
  1 27  1  0
  1 28  1  0
  3 29  1  0
  5 30  1  0
 10 31  1  0
 11 32  1  0
 14 33  1  0
 15 34  1  0
 19 35  1  0
 20 36  1  0
 21 37  1  0
 22 38  1  0
 24 39  1  0
M  END
$$$$
