@<TRIPOS>MOLECULE
*****
 39 42 0 0 0
SMALL
GASTEIGER

@<TRIPOS>ATOM
      1 C          -5.7692    2.2765    1.1290 C.3     1  UNL1       -0.0206
      2 C          -4.4266    1.7314    0.7346 C.ar    1  UNL1        0.0616
      3 C          -3.8707    0.5128    1.1058 C.ar    1  UNL1        0.0006
      4 C          -2.6247    0.3957    0.5313 C.ar    1  UNL1        0.1196
      5 N          -1.7472   -0.7268    0.6876 N.pl3   1  UNL1       -0.2829
      6 C          -0.4785   -0.7910    0.0782 C.ar    1  UNL1        0.1529
      7 N           0.5856   -0.3119    0.6956 N.ar    1  UNL1       -0.1474
      8 N           1.8182   -0.3387    0.1810 N.ar    1  UNL1       -0.1945
      9 C           2.9261    0.1892    0.8835 C.ar    1  UNL1        0.0694
     10 C           2.8385    1.4002    1.5296 C.ar    1  UNL1       -0.0348
     11 C           3.9332    1.9229    2.2247 C.ar    1  UNL1       -0.0414
     12 C           5.1134    1.2305    2.2707 C.ar    1  UNL1        0.0411
     13 CL          6.4421    1.9377    3.1554 Cl      1  UNL1       -0.0835
     14 C           5.2106    0.0082    1.6217 C.ar    1  UNL1       -0.0414
     15 C           4.1096   -0.4992    0.9327 C.ar    1  UNL1       -0.0348
     16 C           1.9869   -0.8866   -1.0396 C.ar    1  UNL1        0.2797
     17 O           3.1341   -0.9325   -1.5627 O.2     1  UNL1       -0.2652
     18 C           0.9185   -1.3997   -1.7273 C.ar    1  UNL1        0.0517
     19 C           1.1151   -1.9475   -2.9572 C.ar    1  UNL1       -0.0487
     20 C           0.0252   -2.4598   -3.6345 C.ar    1  UNL1       -0.0610
     21 C          -1.2337   -2.4180   -3.0787 C.ar    1  UNL1       -0.0611
     22 C          -1.4508   -1.8683   -1.8368 C.ar    1  UNL1       -0.0505
     23 C          -0.3638   -1.3585   -1.1640 C.ar    1  UNL1        0.0291
     24 N          -2.4308    1.5146   -0.1698 N.ar    1  UNL1       -0.2637
     25 N          -3.5014    2.3134   -0.0518 N.ar    1  UNL1       -0.1775
     26 H          -6.5132    2.1253    0.3406 H       1  UNL1        0.0293
     27 H          -5.6066    3.3291    1.4184 H       1  UNL1        0.0293
     28 H          -6.1050    1.7445    2.0622 H       1  UNL1        0.0293
     29 H          -4.3562   -0.2135    1.7447 H       1  UNL1        0.0670
     30 H          -2.0275   -1.5540    1.2730 H       1  UNL1        0.1550
     31 H           1.9013    1.9315    1.4829 H       1  UNL1        0.0639
     32 H           3.7881    2.8739    2.7041 H       1  UNL1        0.0633
     33 H           6.1534   -0.4999    1.6832 H       1  UNL1        0.0633
     34 H           4.2256   -1.4418    0.4471 H       1  UNL1        0.0639
     35 H           2.1138   -1.9660   -3.3674 H       1  UNL1        0.0625
     36 H           0.2078   -2.8917   -4.6147 H       1  UNL1        0.0618
     37 H          -2.0670   -2.8260   -3.6310 H       1  UNL1        0.0618
     38 H          -2.4123   -1.8133   -1.3642 H       1  UNL1        0.0625
     39 H          -1.5618    1.7074   -0.7181 H       1  UNL1        0.1903
@<TRIPOS>BOND
     1     1     2    1
     2     2     3   ar
     3     3     4   ar
     4     4     5    1
     5     5     6    1
     6     6     7   ar
     7     7     8   ar
     8     8     9    1
     9     9    10   ar
    10    10    11   ar
    11    11    12   ar
    12    12    13    1
    13    12    14   ar
    14    14    15   ar
    15     8    16   ar
    16    16    17    2
    17    16    18   ar
    18    18    19   ar
    19    19    20   ar
    20    20    21   ar
    21    21    22   ar
    22    22    23   ar
    23     4    24   ar
    24    24    25   ar
    25    25     2   ar
    26    23     6   ar
    27    15     9   ar
    28    23    18   ar
    29     1    26    1
    30     1    27    1
    31     1    28    1
    32     3    29    1
    33     5    30    1
    34    10    31    1
    35    11    32    1
    36    14    33    1
    37    15    34    1
    38    19    35    1
    39    20    36    1
    40    21    37    1
    41    22    38    1
    42    24    39    1
