@<TRIPOS>MOLECULE
*****
 46 50 0 0 0
SMALL
GASTEIGER

@<TRIPOS>ATOM
      1 O           2.4181    2.9377   -1.7009 O.2     1  UNL1       -0.2683
      2 C           3.3562    2.3375   -1.1157 C.2     1  UNL1        0.2659
      3 N           4.6648    2.8603   -1.0157 N.am    1  UNL1       -0.1763
      4 C           5.4050    2.0374   -0.3698 C.ar    1  UNL1        0.0657
      5 C           6.7231    1.9426    0.0582 C.ar    1  UNL1       -0.0359
      6 C           7.2847    0.9174    0.7593 C.ar    1  UNL1       -0.0334
      7 C           6.4786   -0.1751    1.1036 C.ar    1  UNL1        0.0789
      8 C           5.1712   -0.1044    0.6913 C.ar    1  UNL1        0.0484
      9 S           4.5027   -1.6415    1.3091 S.2     1  UNL1       -0.0748
     10 C           6.1820   -2.1495    2.0585 C.ar    1  UNL1        0.0659
     11 N           6.8297   -1.2547    1.7730 N.ar    1  UNL1       -0.2474
     12 C           4.6216    0.9509   -0.0222 C.ar    1  UNL1        0.0235
     13 C           3.3712    1.0445   -0.4302 C.2     1  UNL1        0.0433
     14 C           2.1760    0.2062   -0.3316 C.3     1  UNL1        0.0400
     15 N           1.0935    0.8922    0.3634 N.pl3   1  UNL1       -0.3395
     16 C          -0.1299    0.1467    0.5113 C.ar    1  UNL1        0.0275
     17 C          -0.2233   -1.1359    0.0088 C.ar    1  UNL1       -0.0390
     18 C          -1.4070   -1.8555    0.1525 C.ar    1  UNL1       -0.0333
     19 C          -2.5000   -1.2754    0.8070 C.ar    1  UNL1        0.1087
     20 C          -2.3879    0.0040    1.3013 C.ar    1  UNL1       -0.0333
     21 C          -1.2163    0.7183    1.1598 C.ar    1  UNL1       -0.0390
     22 S          -3.8832   -2.3320    0.8878 S.O2    1  UNL1        0.0735
     23 O          -4.7371   -2.0075    2.1051 O.2     1  UNL1       -0.1499
     24 O          -3.4827   -3.7704    0.9986 O.2     1  UNL1       -0.1499
     25 N          -4.8258   -2.0895   -0.5367 N.pl3   1  UNL1       -0.1995
     26 C          -5.4132   -0.8344   -0.8517 C.ar    1  UNL1        0.1377
     27 C          -6.1534   -0.6647   -1.9817 C.ar    1  UNL1       -0.0204
     28 C          -6.7542    0.5199   -2.3551 C.ar    1  UNL1       -0.0570
     29 C          -6.6148    1.6316   -1.5484 C.ar    1  UNL1       -0.0435
     30 C          -5.8631    1.4365   -0.4126 C.ar    1  UNL1        0.0297
     31 N          -5.3105    0.2618   -0.1133 N.ar    1  UNL1       -0.2390
     32 H           7.3308    2.8068   -0.2227 H       1  UNL1        0.0637
     33 H           8.3386    1.0266    1.0042 H       1  UNL1        0.0640
     34 H           6.1408   -3.1832    2.5911 H       1  UNL1        0.0907
     35 H           2.4001   -0.6995    0.2543 H       1  UNL1        0.0513
     36 H           1.8643   -0.1158   -1.3399 H       1  UNL1        0.0513
     37 H           1.1460    1.8504    0.7453 H       1  UNL1        0.1464
     38 H           0.6296   -1.5914   -0.5032 H       1  UNL1        0.0637
     39 H          -1.3982   -2.8680   -0.2752 H       1  UNL1        0.0638
     40 H          -3.2712    0.3743    1.7904 H       1  UNL1        0.0638
     41 H          -1.1763    1.7300    1.5689 H       1  UNL1        0.0637
     42 H          -4.9712   -2.8867   -1.1895 H       1  UNL1        0.1752
     43 H          -6.3367   -1.4596   -2.6963 H       1  UNL1        0.0652
     44 H          -7.3472    0.6465   -3.2654 H       1  UNL1        0.0619
     45 H          -7.0496    2.5846   -1.7689 H       1  UNL1        0.0633
     46 H          -5.6757    2.2303    0.3081 H       1  UNL1        0.0830
@<TRIPOS>BOND
     1     1     2    2
     2     2     3    1
     3     3     4    2
     4     4     5   ar
     5     5     6   ar
     6     6     7   ar
     7     7     8   ar
     8     8     9   ar
     9     9    10   ar
    10    10    11   ar
    11     8    12   ar
    12    12    13    2
    13    13    14    1
    14    14    15    1
    15    15    16    1
    16    16    17   ar
    17    17    18   ar
    18    18    19   ar
    19    19    20   ar
    20    20    21   ar
    21    19    22    1
    22    22    23    2
    23    22    24    2
    24    22    25    1
    25    25    26    1
    26    26    27   ar
    27    27    28   ar
    28    28    29   ar
    29    29    30   ar
    30    30    31   ar
    31    13     2    1
    32    21    16   ar
    33    31    26   ar
    34    12     4   ar
    35    11     7   ar
    36     5    32    1
    37     6    33    1
    38    10    34    1
    39    14    35    1
    40    14    36    1
    41    15    37    1
    42    17    38    1
    43    18    39    1
    44    20    40    1
    45    21    41    1
    46    25    42    1
    47    27    43    1
    48    28    44    1
    49    29    45    1
    50    30    46    1
