@<TRIPOS>MOLECULE
*****
 57 62 0 0 0
SMALL
GASTEIGER

@<TRIPOS>ATOM
      1 C          -0.6104   -1.4020   -1.3424 C.3     1  UNL1       -0.0382
      2 C          -0.0730   -1.5407    0.0732 C.3     1  UNL1        0.0814
      3 C           1.3496   -1.8871    0.0414 C.ar    1  UNL1        0.0126
      4 C           2.2844   -0.8777   -0.1763 C.ar    1  UNL1       -0.0446
      5 C           3.6400   -1.1214   -0.2156 C.ar    1  UNL1        0.0015
      6 C           4.5571   -0.1042   -0.4298 C.ar    1  UNL1       -0.0433
      7 C           5.9166   -0.3657   -0.4626 C.ar    1  UNL1        0.0038
      8 C           6.8838    0.7024   -0.6824 C.ar    1  UNL1        0.0210
      9 C           8.1013    0.5596   -1.3144 C.ar    1  UNL1        0.0571
     10 N           8.6967    1.7736   -1.3126 N.ar    1  UNL1       -0.1793
     11 N           7.9469    2.6718   -0.7268 N.ar    1  UNL1       -0.2739
     12 C           8.1805    4.0979   -0.4940 C.3     1  UNL1        0.0302
     13 C           6.8228    2.0335   -0.3300 C.ar    1  UNL1        0.0329
     14 C           6.2947   -1.6804   -0.2722 C.ar    1  UNL1        0.0361
     15 N           5.3827   -2.6476   -0.0662 N.ar    1  UNL1       -0.2543
     16 C           4.0569   -2.4239   -0.0288 C.ar    1  UNL1        0.0737
     17 C           3.1297   -3.4194    0.1864 C.ar    1  UNL1       -0.0001
     18 C           1.7776   -3.1997    0.2290 C.ar    1  UNL1        0.1306
     19 F           0.8471   -4.1592    0.4386 F       1  UNL1       -0.2051
     20 N          -0.3489   -0.3622    0.8735 N.ar    1  UNL1       -0.2179
     21 N           0.4585    0.3921    1.5985 N.ar    1  UNL1       -0.0611
     22 N          -0.2283    1.3735    2.1623 N.ar    1  UNL1       -0.1076
     23 C          -1.5257    1.2524    1.7906 C.ar    1  UNL1        0.2206
     24 N          -2.6448    1.9643    2.0637 N.ar    1  UNL1       -0.2295
     25 C          -3.8419    1.6000    1.5373 C.ar    1  UNL1        0.0562
     26 C          -3.9222    0.5103    0.7276 C.ar    1  UNL1        0.0945
     27 C          -5.1982    0.0699    0.1271 C.ar    1  UNL1        0.0393
     28 C          -5.3890   -1.0111   -0.7049 C.ar    1  UNL1        0.0586
     29 N          -6.6984   -1.0366   -1.0047 N.ar    1  UNL1       -0.1789
     30 N          -7.3402   -0.0429   -0.4153 N.ar    1  UNL1       -0.2686
     31 C          -8.7592    0.2536   -0.5031 C.3     1  UNL1        0.0646
     32 C          -9.5534   -0.4526    0.5767 C.3     1  UNL1        0.0637
     33 O          -9.1302   -0.0759    1.8383 O.3     1  UNL1       -0.3932
     34 C          -6.4156    0.6504    0.2905 C.ar    1  UNL1        0.0348
     35 N          -2.8040   -0.1914    0.4613 N.ar    1  UNL1       -0.2232
     36 C          -1.6024    0.1453    0.9686 C.ar    1  UNL1        0.1989
     37 H          -1.7220   -1.5866   -1.2971 H       1  UNL1        0.0253
     38 H          -0.1684   -2.1724   -1.9880 H       1  UNL1        0.0253
     39 H          -0.4075   -0.3853   -1.7162 H       1  UNL1        0.0253
     40 H          -0.6193   -2.3957    0.5740 H       1  UNL1        0.0594
     41 H           1.9557    0.1469   -0.3226 H       1  UNL1        0.0628
     42 H           4.2401    0.9136   -0.5758 H       1  UNL1        0.0631
     43 H           8.5149   -0.3484   -1.7365 H       1  UNL1        0.0854
     44 H           9.2507    4.3207   -0.3031 H       1  UNL1        0.0473
     45 H           7.7781    4.7092   -1.3247 H       1  UNL1        0.0473
     46 H           7.6329    4.4064    0.4159 H       1  UNL1        0.0473
     47 H           5.9932    2.4886    0.1870 H       1  UNL1        0.0832
     48 H           7.3746   -1.8942   -0.2992 H       1  UNL1        0.0836
     49 H           3.4666   -4.4558    0.3340 H       1  UNL1        0.0668
     50 H          -4.7288    2.1759    1.7612 H       1  UNL1        0.0852
     51 H          -4.6432   -1.7104   -1.0563 H       1  UNL1        0.0854
     52 H          -8.8856    1.3425   -0.3814 H       1  UNL1        0.0531
     53 H          -9.1401   -0.0284   -1.4920 H       1  UNL1        0.0531
     54 H         -10.6242   -0.1638    0.3827 H       1  UNL1        0.0575
     55 H          -9.4910   -1.5431    0.4108 H       1  UNL1        0.0575
     56 H          -9.4004    0.8460    2.0387 H       1  UNL1        0.2095
     57 H          -6.6174    1.5244    0.8862 H       1  UNL1        0.0833
@<TRIPOS>BOND
     1     1     2    1
     2     2     3    1
     3     3     4   ar
     4     4     5   ar
     5     5     6   ar
     6     6     7   ar
     7     7     8    1
     8     8     9   ar
     9     9    10   ar
    10    10    11   ar
    11    11    12    1
    12    11    13   ar
    13     7    14   ar
    14    14    15   ar
    15    15    16   ar
    16    16    17   ar
    17    17    18   ar
    18    18    19    1
    19     2    20    1
    20    20    21   ar
    21    21    22   ar
    22    22    23   ar
    23    23    24   ar
    24    24    25   ar
    25    25    26   ar
    26    26    27    1
    27    27    28   ar
    28    28    29   ar
    29    29    30   ar
    30    30    31    1
    31    31    32    1
    32    32    33    1
    33    30    34   ar
    34    26    35   ar
    35    35    36   ar
    36    18     3   ar
    37    36    20   ar
    38    16     5   ar
    39    36    23   ar
    40    13     8   ar
    41    34    27   ar
    42     1    37    1
    43     1    38    1
    44     1    39    1
    45     2    40    1
    46     4    41    1
    47     6    42    1
    48     9    43    1
    49    12    44    1
    50    12    45    1
    51    12    46    1
    52    13    47    1
    53    14    48    1
    54    17    49    1
    55    25    50    1
    56    28    51    1
    57    31    52    1
    58    31    53    1
    59    32    54    1
    60    32    55    1
    61    33    56    1
    62    34    57    1
