
     RDKit          3D

 57 62  0  0  0  0  0  0  0  0999 V2000
   -0.6104   -1.4020   -1.3424 C   0  0  0  0  0  0  0  0  0  0  0  0
   -0.0730   -1.5407    0.0732 C   0  0  0  0  0  0  0  0  0  0  0  0
    1.3496   -1.8871    0.0414 C   0  0  0  0  0  0  0  0  0  0  0  0
    2.2844   -0.8777   -0.1763 C   0  0  0  0  0  0  0  0  0  0  0  0
    3.6400   -1.1214   -0.2156 C   0  0  0  0  0  0  0  0  0  0  0  0
    4.5571   -0.1042   -0.4298 C   0  0  0  0  0  0  0  0  0  0  0  0
    5.9166   -0.3657   -0.4626 C   0  0  0  0  0  0  0  0  0  0  0  0
    6.8838    0.7024   -0.6824 C   0  0  0  0  0  0  0  0  0  0  0  0
    8.1013    0.5596   -1.3144 C   0  0  0  0  0  0  0  0  0  0  0  0
    8.6967    1.7736   -1.3126 N   0  0  0  0  0  0  0  0  0  0  0  0
    7.9469    2.6718   -0.7268 N   0  0  0  0  0  0  0  0  0  0  0  0
    8.1805    4.0979   -0.4940 C   0  0  0  0  0  0  0  0  0  0  0  0
    6.8228    2.0335   -0.3300 C   0  0  0  0  0  0  0  0  0  0  0  0
    6.2947   -1.6804   -0.2722 C   0  0  0  0  0  0  0  0  0  0  0  0
    5.3827   -2.6476   -0.0662 N   0  0  0  0  0  0  0  0  0  0  0  0
    4.0569   -2.4239   -0.0288 C   0  0  0  0  0  0  0  0  0  0  0  0
    3.1297   -3.4194    0.1864 C   0  0  0  0  0  0  0  0  0  0  0  0
    1.7776   -3.1997    0.2290 C   0  0  0  0  0  0  0  0  0  0  0  0
    0.8471   -4.1592    0.4386 F   0  0  0  0  0  0  0  0  0  0  0  0
   -0.3489   -0.3622    0.8735 N   0  0  0  0  0  0  0  0  0  0  0  0
    0.4585    0.3921    1.5985 N   0  0  0  0  0  0  0  0  0  0  0  0
   -0.2283    1.3735    2.1623 N   0  0  0  0  0  0  0  0  0  0  0  0
   -1.5257    1.2524    1.7906 C   0  0  0  0  0  0  0  0  0  0  0  0
   -2.6448    1.9643    2.0637 N   0  0  0  0  0  0  0  0  0  0  0  0
   -3.8419    1.6000    1.5373 C   0  0  0  0  0  0  0  0  0  0  0  0
   -3.9222    0.5103    0.7276 C   0  0  0  0  0  0  0  0  0  0  0  0
   -5.1982    0.0699    0.1271 C   0  0  0  0  0  0  0  0  0  0  0  0
   -5.3890   -1.0111   -0.7049 C   0  0  0  0  0  0  0  0  0  0  0  0
   -6.6984   -1.0366   -1.0047 N   0  0  0  0  0  0  0  0  0  0  0  0
   -7.3402   -0.0429   -0.4153 N   0  0  0  0  0  0  0  0  0  0  0  0
   -8.7592    0.2536   -0.5031 C   0  0  0  0  0  0  0  0  0  0  0  0
   -9.5534   -0.4526    0.5767 C   0  0  0  0  0  0  0  0  0  0  0  0
   -9.1302   -0.0759    1.8383 O   0  0  0  0  0  0  0  0  0  0  0  0
   -6.4156    0.6504    0.2905 C   0  0  0  0  0  0  0  0  0  0  0  0
   -2.8040   -0.1914    0.4613 N   0  0  0  0  0  0  0  0  0  0  0  0
   -1.6024    0.1453    0.9686 C   0  0  0  0  0  0  0  0  0  0  0  0
   -1.7220   -1.5866   -1.2971 H   0  0  0  0  0  0  0  0  0  0  0  0
   -0.1684   -2.1724   -1.9880 H   0  0  0  0  0  0  0  0  0  0  0  0
   -0.4075   -0.3853   -1.7162 H   0  0  0  0  0  0  0  0  0  0  0  0
   -0.6193   -2.3957    0.5740 H   0  0  0  0  0  0  0  0  0  0  0  0
    1.9557    0.1469   -0.3226 H   0  0  0  0  0  0  0  0  0  0  0  0
    4.2401    0.9136   -0.5758 H   0  0  0  0  0  0  0  0  0  0  0  0
    8.5149   -0.3484   -1.7365 H   0  0  0  0  0  0  0  0  0  0  0  0
    9.2507    4.3207   -0.3031 H   0  0  0  0  0  0  0  0  0  0  0  0
    7.7781    4.7092   -1.3247 H   0  0  0  0  0  0  0  0  0  0  0  0
    7.6329    4.4064    0.4159 H   0  0  0  0  0  0  0  0  0  0  0  0
    5.9932    2.4886    0.1870 H   0  0  0  0  0  0  0  0  0  0  0  0
    7.3746   -1.8942   -0.2992 H   0  0  0  0  0  0  0  0  0  0  0  0
    3.4666   -4.4558    0.3340 H   0  0  0  0  0  0  0  0  0  0  0  0
   -4.7288    2.1759    1.7612 H   0  0  0  0  0  0  0  0  0  0  0  0
   -4.6432   -1.7104   -1.0563 H   0  0  0  0  0  0  0  0  0  0  0  0
   -8.8856    1.3425   -0.3814 H   0  0  0  0  0  0  0  0  0  0  0  0
   -9.1401   -0.0284   -1.4920 H   0  0  0  0  0  0  0  0  0  0  0  0
  -10.6242   -0.1638    0.3827 H   0  0  0  0  0  0  0  0  0  0  0  0
   -9.4910   -1.5431    0.4108 H   0  0  0  0  0  0  0  0  0  0  0  0
   -9.4004    0.8460    2.0387 H   0  0  0  0  0  0  0  0  0  0  0  0
   -6.6174    1.5244    0.8862 H   0  0  0  0  0  0  0  0  0  0  0  0
  1  2  1  0
  2  3  1  0
  3  4  2  0
  4  5  1  0
  5  6  2  0
  6  7  1  0
  7  8  1  0
  8  9  1  0
  9 10  2  0
 10 11  1  0
 11 12  1  0
 11 13  1  0
  7 14  2  0
 14 15  1  0
 15 16  2  0
 16 17  1  0
 17 18  2  0
 18 19  1  0
  2 20  1  0
 20 21  1  0
 21 22  2  0
 22 23  1  0
 23 24  2  0
 24 25  1  0
 25 26  2  0
 26 27  1  0
 27 28  1  0
 28 29  2  0
 29 30  1  0
 30 31  1  0
 31 32  1  0
 32 33  1  0
 30 34  1  0
 26 35  1  0
 35 36  2  0
 18  3  1  0
 36 20  1  0
 16  5  1  0
 36 23  1  0
 13  8  2  0
 34 27  2  0
  1 37  1  0
  1 38  1  0
  1 39  1  0
  2 40  1  0
  4 41  1  0
  6 42  1  0
  9 43  1  0
 12 44  1  0
 12 45  1  0
 12 46  1  0
 13 47  1  0
 14 48  1  0
 17 49  1  0
 25 50  1  0
 28 51  1  0
 31 52  1  0
 31 53  1  0
 32 54  1  0
 32 55  1  0
 33 56  1  0
 34 57  1  0
M  END
$$$$
