
     RDKit          3D

 70 74  0  0  0  0  0  0  0  0999 V2000
    7.9719    4.7364   -0.1563 C   0  0  0  0  0  0  0  0  0  0  0  0
    7.1701    3.5727   -0.0892 O   0  0  0  0  0  0  0  0  0  0  0  0
    7.7955    2.3539   -0.3661 C   0  0  0  0  0  0  0  0  0  0  0  0
    9.0686    2.1245   -0.6917 N   0  0  0  0  0  0  0  0  0  0  0  0
    9.2790    0.8429   -0.8769 N   0  0  0  0  0  0  0  0  0  0  0  0
   10.5378    0.1776   -1.2450 C   0  0  0  0  0  0  0  0  0  0  0  0
    8.1125    0.1809   -0.6707 C   0  0  0  0  0  0  0  0  0  0  0  0
    7.1694    1.1035   -0.3499 C   0  0  0  0  0  0  0  0  0  0  0  0
    5.8226    0.9322   -0.0481 N   0  0  0  0  0  0  0  0  0  0  0  0
    5.1910   -0.3386   -0.0366 C   0  0  0  0  0  0  0  0  0  0  0  0
    5.8815   -1.4411   -0.3276 N   0  0  0  0  0  0  0  0  0  0  0  0
    5.2734   -2.6272   -0.3113 C   0  0  0  0  0  0  0  0  0  0  0  0
    3.9153   -2.7125    0.0105 C   0  0  0  0  0  0  0  0  0  0  0  0
    3.1841   -1.6083    0.3103 C   0  0  0  0  0  0  0  0  0  0  0  0
    1.7897   -1.5571    0.7131 C   0  0  0  0  0  0  0  0  0  0  0  0
    1.2146   -0.4878    1.4361 C   0  0  0  0  0  0  0  0  0  0  0  0
   -0.0705   -0.7269    1.6159 N   0  0  0  0  0  0  0  0  0  0  0  0
   -0.4297   -1.9046    1.0582 C   0  0  0  0  0  0  0  0  0  0  0  0
   -1.6341   -2.5670    0.9726 C   0  0  0  0  0  0  0  0  0  0  0  0
   -2.7872   -1.9785    1.5796 N   0  0  0  0  0  0  0  0  0  0  0  0
   -3.5820   -1.1015    0.7990 C   0  0  0  0  0  0  0  0  0  0  0  0
   -3.2605   -0.8710   -0.3735 O   0  0  0  0  0  0  0  0  0  0  0  0
   -4.7648   -0.4993    1.4251 C   0  0  1  0  0  0  0  0  0  0  0  0
   -4.3293    0.2755    2.6636 C   0  0  0  0  0  0  0  0  0  0  0  0
   -5.5077    0.3946    0.5980 N   0  0  0  0  0  0  0  0  0  0  0  0
   -4.8114    1.5532    0.1422 C   0  0  0  0  0  0  0  0  0  0  0  0
   -5.6784    2.2162   -0.9323 C   0  0  0  0  0  0  0  0  0  0  0  0
   -7.0747    1.9388   -0.7478 N   0  0  0  0  0  0  0  0  0  0  0  0
   -7.5756    2.5810    0.4459 C   0  0  0  0  0  0  0  0  0  0  0  0
   -7.4101    0.5491   -0.8229 C   0  0  1  0  0  0  0  0  0  0  0  0
   -8.0820    0.1400   -2.0924 C   0  0  0  0  0  0  0  0  0  0  0  0
   -6.1551   -0.2446   -0.5250 C   0  0  0  0  0  0  0  0  0  0  0  0
   -1.6787   -3.7640    0.3108 C   0  0  0  0  0  0  0  0  0  0  0  0
   -0.5385   -4.2840   -0.2532 C   0  0  0  0  0  0  0  0  0  0  0  0
    0.6751   -3.6334   -0.1759 C   0  0  0  0  0  0  0  0  0  0  0  0
    0.7410   -2.4232    0.4908 C   0  0  0  0  0  0  0  0  0  0  0  0
    3.8638   -0.4295    0.2764 N   0  0  0  0  0  0  0  0  0  0  0  0
    8.6804    4.8069    0.6928 H   0  0  0  0  0  0  0  0  0  0  0  0
    7.3559    5.6474   -0.2844 H   0  0  0  0  0  0  0  0  0  0  0  0
    8.5863    4.6278   -1.0950 H   0  0  0  0  0  0  0  0  0  0  0  0
   11.0126    0.8268   -2.0028 H   0  0  0  0  0  0  0  0  0  0  0  0
   11.1999    0.1163   -0.3465 H   0  0  0  0  0  0  0  0  0  0  0  0
   10.3390   -0.8258   -1.6449 H   0  0  0  0  0  0  0  0  0  0  0  0
    8.0215   -0.9159   -0.7648 H   0  0  0  0  0  0  0  0  0  0  0  0
    5.2149    1.7742    0.1882 H   0  0  0  0  0  0  0  0  0  0  0  0
    5.8443   -3.5156   -0.5494 H   0  0  0  0  0  0  0  0  0  0  0  0
    3.5230   -3.6997    0.0306 H   0  0  0  0  0  0  0  0  0  0  0  0
    1.8145    0.3710    1.7620 H   0  0  0  0  0  0  0  0  0  0  0  0
   -0.7672   -0.1152    2.1191 H   0  0  0  0  0  0  0  0  0  0  0  0
   -2.9967   -2.2125    2.5576 H   0  0  0  0  0  0  0  0  0  0  0  0
   -5.4345   -1.2994    1.7925 H   0  0  0  0  0  0  0  0  0  0  0  0
   -4.2193   -0.3889    3.5390 H   0  0  0  0  0  0  0  0  0  0  0  0
   -3.3728    0.7779    2.4717 H   0  0  0  0  0  0  0  0  0  0  0  0
   -5.0711    1.0582    2.9133 H   0  0  0  0  0  0  0  0  0  0  0  0
   -3.8227    1.3791   -0.2774 H   0  0  0  0  0  0  0  0  0  0  0  0
   -4.6856    2.2663    0.9980 H   0  0  0  0  0  0  0  0  0  0  0  0
   -5.3371    1.9517   -1.9493 H   0  0  0  0  0  0  0  0  0  0  0  0
   -5.5389    3.3134   -0.8208 H   0  0  0  0  0  0  0  0  0  0  0  0
   -7.2102    2.1231    1.3709 H   0  0  0  0  0  0  0  0  0  0  0  0
   -8.6818    2.4896    0.4317 H   0  0  0  0  0  0  0  0  0  0  0  0
   -7.2297    3.6321    0.4271 H   0  0  0  0  0  0  0  0  0  0  0  0
   -8.1282    0.3410    0.0165 H   0  0  0  0  0  0  0  0  0  0  0  0
   -8.1944   -0.9671   -2.0694 H   0  0  0  0  0  0  0  0  0  0  0  0
   -9.1279    0.5390   -2.0570 H   0  0  0  0  0  0  0  0  0  0  0  0
   -7.5946    0.4782   -3.0079 H   0  0  0  0  0  0  0  0  0  0  0  0
   -5.4610   -0.1668   -1.3900 H   0  0  0  0  0  0  0  0  0  0  0  0
   -6.3811   -1.3141   -0.3304 H   0  0  0  0  0  0  0  0  0  0  0  0
   -2.6311   -4.2896    0.2426 H   0  0  0  0  0  0  0  0  0  0  0  0
   -0.5486   -5.2283   -0.7821 H   0  0  0  0  0  0  0  0  0  0  0  0
    1.5556   -4.0538   -0.6483 H   0  0  0  0  0  0  0  0  0  0  0  0
  1  2  1  0
  2  3  1  0
  3  4  2  0
  4  5  1  0
  5  6  1  0
  5  7  1  0
  7  8  2  0
  8  9  1  0
  9 10  1  0
 10 11  2  0
 11 12  1  0
 12 13  2  0
 13 14  1  0
 14 15  1  0
 15 16  2  0
 16 17  1  0
 17 18  1  0
 18 19  2  0
 19 20  1  0
 20 21  1  0
 21 22  2  0
 21 23  1  0
 23 24  1  0
 23 25  1  0
 25 26  1  0
 26 27  1  0
 27 28  1  0
 28 29  1  0
 28 30  1  0
 30 31  1  0
 30 32  1  0
 19 33  1  0
 33 34  2  0
 34 35  1  0
 35 36  2  0
 14 37  2  0
  8  3  1  0
 37 10  1  0
 36 15  1  0
 36 18  1  0
 32 25  1  0
  1 38  1  0
  1 39  1  0
  1 40  1  0
  6 41  1  0
  6 42  1  0
  6 43  1  0
  7 44  1  0
  9 45  1  0
 12 46  1  0
 13 47  1  0
 16 48  1  0
 17 49  1  0
 20 50  1  0
 23 51  1  1
 24 52  1  0
 24 53  1  0
 24 54  1  0
 26 55  1  0
 26 56  1  0
 27 57  1  0
 27 58  1  0
 29 59  1  0
 29 60  1  0
 29 61  1  0
 30 62  1  1
 31 63  1  0
 31 64  1  0
 31 65  1  0
 32 66  1  0
 32 67  1  0
 33 68  1  0
 34 69  1  0
 35 70  1  0
M  END
$$$$
