@<TRIPOS>MOLECULE
*****
 70 74 0 0 0
SMALL
GASTEIGER

@<TRIPOS>ATOM
      1 C           7.9719    4.7364   -0.1563 C.3     1  UNL1        0.0805
      2 O           7.1701    3.5727   -0.0892 O.3     1  UNL1       -0.4774
      3 C           7.7955    2.3539   -0.3661 C.ar    1  UNL1        0.2552
      4 N           9.0686    2.1245   -0.6917 N.ar    1  UNL1       -0.1317
      5 N           9.2790    0.8429   -0.8769 N.ar    1  UNL1       -0.2692
      6 C          10.5378    0.1776   -1.2450 C.3     1  UNL1        0.0304
      7 C           8.1125    0.1809   -0.6707 C.ar    1  UNL1        0.0503
      8 C           7.1694    1.1035   -0.3499 C.ar    1  UNL1        0.1152
      9 N           5.8226    0.9322   -0.0481 N.pl3   1  UNL1       -0.2782
     10 C           5.1910   -0.3386   -0.0366 C.ar    1  UNL1        0.2201
     11 N           5.8815   -1.4411   -0.3276 N.ar    1  UNL1       -0.2226
     12 C           5.2734   -2.6272   -0.3113 C.ar    1  UNL1        0.0332
     13 C           3.9153   -2.7125    0.0105 C.ar    1  UNL1       -0.0173
     14 C           3.1841   -1.6083    0.3103 C.ar    1  UNL1        0.0780
     15 C           1.7897   -1.5571    0.7131 C.ar    1  UNL1        0.0256
     16 C           1.2146   -0.4878    1.4361 C.ar    1  UNL1        0.0120
     17 N          -0.0705   -0.7269    1.6159 N.ar    1  UNL1       -0.3586
     18 C          -0.4297   -1.9046    1.0582 C.ar    1  UNL1        0.0686
     19 C          -1.6341   -2.5670    0.9726 C.ar    1  UNL1        0.0576
     20 N          -2.7872   -1.9785    1.5796 N.am    1  UNL1       -0.2825
     21 C          -3.5820   -1.1015    0.7990 C.2     1  UNL1        0.2342
     22 O          -3.2605   -0.8710   -0.3735 O.2     1  UNL1       -0.2738
     23 C          -4.7648   -0.4993    1.4251 C.3     1  UNL1        0.0848
     24 C          -4.3293    0.2755    2.6636 C.3     1  UNL1       -0.0409
     25 N          -5.5077    0.3946    0.5980 N.3     1  UNL1       -0.2890
     26 C          -4.8114    1.5532    0.1422 C.3     1  UNL1        0.0124
     27 C          -5.6784    2.2162   -0.9323 C.3     1  UNL1        0.0117
     28 N          -7.0747    1.9388   -0.7478 N.3     1  UNL1       -0.3002
     29 C          -7.5756    2.5810    0.4459 C.3     1  UNL1       -0.0124
     30 C          -7.4101    0.5491   -0.8229 C.3     1  UNL1        0.0201
     31 C          -8.0820    0.1400   -2.0924 C.3     1  UNL1       -0.0483
     32 C          -6.1551   -0.2446   -0.5250 C.3     1  UNL1        0.0150
     33 C          -1.6787   -3.7640    0.3108 C.ar    1  UNL1       -0.0384
     34 C          -0.5385   -4.2840   -0.2532 C.ar    1  UNL1       -0.0593
     35 C           0.6751   -3.6334   -0.1759 C.ar    1  UNL1       -0.0518
     36 C           0.7410   -2.4232    0.4908 C.ar    1  UNL1        0.0107
     37 N           3.8638   -0.4295    0.2764 N.ar    1  UNL1       -0.2142
     38 H           8.6804    4.8069    0.6928 H       1  UNL1        0.0660
     39 H           7.3559    5.6474   -0.2844 H       1  UNL1        0.0660
     40 H           8.5863    4.6278   -1.0950 H       1  UNL1        0.0660
     41 H          11.0126    0.8268   -2.0028 H       1  UNL1        0.0473
     42 H          11.1999    0.1163   -0.3465 H       1  UNL1        0.0473
     43 H          10.3390   -0.8258   -1.6449 H       1  UNL1        0.0473
     44 H           8.0215   -0.9159   -0.7648 H       1  UNL1        0.0846
     45 H           5.2149    1.7742    0.1882 H       1  UNL1        0.1552
     46 H           5.8443   -3.5156   -0.5494 H       1  UNL1        0.0831
     47 H           3.5230   -3.6997    0.0306 H       1  UNL1        0.0654
     48 H           1.8145    0.3710    1.7620 H       1  UNL1        0.0814
     49 H          -0.7672   -0.1152    2.1191 H       1  UNL1        0.1654
     50 H          -2.9967   -2.2125    2.5576 H       1  UNL1        0.1549
     51 H          -5.4345   -1.2994    1.7925 H       1  UNL1        0.0556
     52 H          -4.2193   -0.3889    3.5390 H       1  UNL1        0.0249
     53 H          -3.3728    0.7779    2.4717 H       1  UNL1        0.0249
     54 H          -5.0711    1.0582    2.9133 H       1  UNL1        0.0249
     55 H          -3.8227    1.3791   -0.2774 H       1  UNL1        0.0439
     56 H          -4.6856    2.2663    0.9980 H       1  UNL1        0.0439
     57 H          -5.3371    1.9517   -1.9493 H       1  UNL1        0.0439
     58 H          -5.5389    3.3134   -0.8208 H       1  UNL1        0.0439
     59 H          -7.2102    2.1231    1.3709 H       1  UNL1        0.0391
     60 H          -8.6818    2.4896    0.4317 H       1  UNL1        0.0391
     61 H          -7.2297    3.6321    0.4271 H       1  UNL1        0.0391
     62 H          -8.1282    0.3410    0.0165 H       1  UNL1        0.0472
     63 H          -8.1944   -0.9671   -2.0694 H       1  UNL1        0.0245
     64 H          -9.1279    0.5390   -2.0570 H       1  UNL1        0.0245
     65 H          -7.5946    0.4782   -3.0079 H       1  UNL1        0.0245
     66 H          -5.4610   -0.1668   -1.3900 H       1  UNL1        0.0442
     67 H          -6.3811   -1.3141   -0.3304 H       1  UNL1        0.0442
     68 H          -2.6311   -4.2896    0.2426 H       1  UNL1        0.0637
     69 H          -0.5486   -5.2283   -0.7821 H       1  UNL1        0.0618
     70 H           1.5556   -4.0538   -0.6483 H       1  UNL1        0.0624
@<TRIPOS>BOND
     1     1     2    1
     2     2     3    1
     3     3     4   ar
     4     4     5   ar
     5     5     6    1
     6     5     7   ar
     7     7     8   ar
     8     8     9    1
     9     9    10    1
    10    10    11   ar
    11    11    12   ar
    12    12    13   ar
    13    13    14   ar
    14    14    15    1
    15    15    16   ar
    16    16    17   ar
    17    17    18   ar
    18    18    19   ar
    19    19    20    1
    20    20    21   am
    21    21    22    2
    22    21    23    1
    23    23    24    1
    24    23    25    1
    25    25    26    1
    26    26    27    1
    27    27    28    1
    28    28    29    1
    29    28    30    1
    30    30    31    1
    31    30    32    1
    32    19    33   ar
    33    33    34   ar
    34    34    35   ar
    35    35    36   ar
    36    14    37   ar
    37     8     3   ar
    38    37    10   ar
    39    36    15   ar
    40    36    18   ar
    41    32    25    1
    42     1    38    1
    43     1    39    1
    44     1    40    1
    45     6    41    1
    46     6    42    1
    47     6    43    1
    48     7    44    1
    49     9    45    1
    50    12    46    1
    51    13    47    1
    52    16    48    1
    53    17    49    1
    54    20    50    1
    55    23    51    1
    56    24    52    1
    57    24    53    1
    58    24    54    1
    59    26    55    1
    60    26    56    1
    61    27    57    1
    62    27    58    1
    63    29    59    1
    64    29    60    1
    65    29    61    1
    66    30    62    1
    67    31    63    1
    68    31    64    1
    69    31    65    1
    70    32    66    1
    71    32    67    1
    72    33    68    1
    73    34    69    1
    74    35    70    1
