
     RDKit          3D

 50 53  0  0  0  0  0  0  0  0999 V2000
   -3.5951   -0.0444    2.4039 O   0  0  0  0  0  0  0  0  0  0  0  0
   -3.2836   -0.5652    1.2837 C   0  0  0  0  0  0  0  0  0  0  0  0
   -4.3670   -0.9693    0.4704 N   0  0  0  0  0  0  0  0  0  0  0  0
   -5.7606   -0.8272    0.8233 C   0  0  0  0  0  0  0  0  0  0  0  0
   -6.0733    0.6398    1.0141 C   0  0  2  0  0  0  0  0  0  0  0  0
   -7.5527    0.8138    1.3893 C   0  0  0  0  0  0  0  0  0  0  0  0
   -8.2123    0.7148    0.0538 C   0  0  0  0  0  0  0  0  0  0  0  0
   -7.2942    0.9629   -0.9245 O   0  0  0  0  0  0  0  0  0  0  0  0
   -6.0978    1.3153   -0.3646 C   0  0  0  0  0  0  0  0  0  0  0  0
   -1.8737   -0.7097    0.9168 C   0  0  0  0  0  0  0  0  0  0  0  0
   -0.8985   -0.2677    1.8165 C   0  0  0  0  0  0  0  0  0  0  0  0
    0.4122   -0.4013    1.4772 C   0  0  0  0  0  0  0  0  0  0  0  0
    0.8467   -0.9506    0.2903 C   0  0  0  0  0  0  0  0  0  0  0  0
    2.2241   -1.0707   -0.0227 N   0  0  0  0  0  0  0  0  0  0  0  0
    2.8841   -0.0073   -0.7053 C   0  0  0  0  0  0  0  0  0  0  0  0
    2.1721    1.0024   -0.9939 O   0  0  0  0  0  0  0  0  0  0  0  0
    4.2632   -0.0683   -1.0467 N   0  0  0  0  0  0  0  0  0  0  0  0
    4.9723    0.9854   -1.7379 C   0  0  0  0  0  0  0  0  0  0  0  0
    6.3676    0.8530   -1.2476 C   0  0  0  0  0  0  0  0  0  0  0  0
    7.4374    1.7261   -1.2667 C   0  0  0  0  0  0  0  0  0  0  0  0
    8.6606    1.3428   -0.7286 C   0  0  0  0  0  0  0  0  0  0  0  0
    8.8111    0.0988   -0.1772 C   0  0  0  0  0  0  0  0  0  0  0  0
    7.7403   -0.7548   -0.1664 C   0  0  0  0  0  0  0  0  0  0  0  0
    6.5120   -0.4056   -0.6923 C   0  0  0  0  0  0  0  0  0  0  0  0
    5.2251   -1.1188   -0.8059 C   0  0  0  0  0  0  0  0  0  0  0  0
   -0.1305   -1.3786   -0.5797 C   0  0  0  0  0  0  0  0  0  0  0  0
   -1.4908   -1.2562   -0.2620 C   0  0  0  0  0  0  0  0  0  0  0  0
   -4.1588   -1.4083   -0.4654 H   0  0  0  0  0  0  0  0  0  0  0  0
   -6.0043   -1.3939    1.7510 H   0  0  0  0  0  0  0  0  0  0  0  0
   -6.4023   -1.2398    0.0215 H   0  0  0  0  0  0  0  0  0  0  0  0
   -5.4212    1.1607    1.7061 H   0  0  0  0  0  0  0  0  0  0  0  0
   -7.6400    1.8652    1.7393 H   0  0  0  0  0  0  0  0  0  0  0  0
   -7.8802    0.0749    2.1201 H   0  0  0  0  0  0  0  0  0  0  0  0
   -9.1410    1.3128   -0.0335 H   0  0  0  0  0  0  0  0  0  0  0  0
   -8.5456   -0.3576   -0.0675 H   0  0  0  0  0  0  0  0  0  0  0  0
   -5.2108    1.0564   -0.9497 H   0  0  0  0  0  0  0  0  0  0  0  0
   -6.1387    2.4159   -0.1450 H   0  0  0  0  0  0  0  0  0  0  0  0
   -1.2429    0.1694    2.7609 H   0  0  0  0  0  0  0  0  0  0  0  0
    1.1857   -0.0620    2.1668 H   0  0  0  0  0  0  0  0  0  0  0  0
    2.7783   -1.9325    0.2380 H   0  0  0  0  0  0  0  0  0  0  0  0
    4.8822    0.7898   -2.8167 H   0  0  0  0  0  0  0  0  0  0  0  0
    4.5187    1.9601   -1.4292 H   0  0  0  0  0  0  0  0  0  0  0  0
    7.2895    2.6859   -1.7021 H   0  0  0  0  0  0  0  0  0  0  0  0
    9.4830    2.0449   -0.7558 H   0  0  0  0  0  0  0  0  0  0  0  0
    9.7718   -0.1791    0.2360 H   0  0  0  0  0  0  0  0  0  0  0  0
    7.8931   -1.7405    0.2810 H   0  0  0  0  0  0  0  0  0  0  0  0
    5.2202   -1.9020   -1.5856 H   0  0  0  0  0  0  0  0  0  0  0  0
    4.9641   -1.5629    0.1863 H   0  0  0  0  0  0  0  0  0  0  0  0
    0.1398   -1.8133   -1.5159 H   0  0  0  0  0  0  0  0  0  0  0  0
   -2.2393   -1.6033   -0.9693 H   0  0  0  0  0  0  0  0  0  0  0  0
  1  2  2  0
  2  3  1  0
  3  4  1  0
  4  5  1  0
  5  6  1  0
  6  7  1  0
  7  8  1  0
  8  9  1  0
  2 10  1  0
 10 11  2  0
 11 12  1  0
 12 13  2  0
 13 14  1  0
 14 15  1  0
 15 16  2  0
 15 17  1  0
 17 18  1  0
 18 19  1  0
 19 20  2  0
 20 21  1  0
 21 22  2  0
 22 23  1  0
 23 24  2  0
 24 25  1  0
 13 26  1  0
 26 27  2  0
  9  5  1  0
 27 10  1  0
 25 17  1  0
 24 19  1  0
  3 28  1  0
  4 29  1  0
  4 30  1  0
  5 31  1  1
  6 32  1  0
  6 33  1  0
  7 34  1  0
  7 35  1  0
  9 36  1  0
  9 37  1  0
 11 38  1  0
 12 39  1  0
 14 40  1  0
 18 41  1  0
 18 42  1  0
 20 43  1  0
 21 44  1  0
 22 45  1  0
 23 46  1  0
 25 47  1  0
 25 48  1  0
 26 49  1  0
 27 50  1  0
M  END
$$$$
