@<TRIPOS>MOLECULE
*****
 50 53 0 0 0
SMALL
GASTEIGER

@<TRIPOS>ATOM
      1 O          -3.5951   -0.0444    2.4039 O.2     1  UNL1       -0.2702
      2 C          -3.2836   -0.5652    1.2837 C.2     1  UNL1        0.2441
      3 N          -4.3670   -0.9693    0.4704 N.am    1  UNL1       -0.3110
      4 C          -5.7606   -0.8272    0.8233 C.3     1  UNL1        0.0169
      5 C          -6.0733    0.6398    1.0141 C.3     1  UNL1        0.0001
      6 C          -7.5527    0.8138    1.3893 C.3     1  UNL1       -0.0231
      7 C          -8.2123    0.7148    0.0538 C.3     1  UNL1        0.0480
      8 O          -7.2942    0.9629   -0.9245 O.3     1  UNL1       -0.3794
      9 C          -6.0978    1.3153   -0.3646 C.3     1  UNL1        0.0520
     10 C          -1.8737   -0.7097    0.9168 C.ar    1  UNL1        0.0368
     11 C          -0.8985   -0.2677    1.8165 C.ar    1  UNL1       -0.0479
     12 C           0.4122   -0.4013    1.4772 C.ar    1  UNL1       -0.0397
     13 C           0.8467   -0.9506    0.2903 C.ar    1  UNL1        0.0348
     14 N           2.2241   -1.0707   -0.0227 N.am    1  UNL1       -0.2693
     15 C           2.8841   -0.0073   -0.7053 C.2     1  UNL1        0.3070
     16 O           2.1721    1.0024   -0.9939 O.2     1  UNL1       -0.2523
     17 N           4.2632   -0.0683   -1.0467 N.am    1  UNL1       -0.2767
     18 C           4.9723    0.9854   -1.7379 C.3     1  UNL1        0.0418
     19 C           6.3676    0.8530   -1.2476 C.ar    1  UNL1       -0.0254
     20 C           7.4374    1.7261   -1.2667 C.ar    1  UNL1       -0.0568
     21 C           8.6606    1.3428   -0.7286 C.ar    1  UNL1       -0.0614
     22 C           8.8111    0.0988   -0.1772 C.ar    1  UNL1       -0.0614
     23 C           7.7403   -0.7548   -0.1664 C.ar    1  UNL1       -0.0568
     24 C           6.5120   -0.4056   -0.6923 C.ar    1  UNL1       -0.0254
     25 C           5.2251   -1.1188   -0.8059 C.3     1  UNL1        0.0418
     26 C          -0.1305   -1.3786   -0.5797 C.ar    1  UNL1       -0.0397
     27 C          -1.4908   -1.2562   -0.2620 C.ar    1  UNL1       -0.0479
     28 H          -4.1588   -1.4083   -0.4654 H       1  UNL1        0.1490
     29 H          -6.0043   -1.3939    1.7510 H       1  UNL1        0.0465
     30 H          -6.4023   -1.2398    0.0215 H       1  UNL1        0.0465
     31 H          -5.4212    1.1607    1.7061 H       1  UNL1        0.0339
     32 H          -7.6400    1.8652    1.7393 H       1  UNL1        0.0291
     33 H          -7.8802    0.0749    2.1201 H       1  UNL1        0.0291
     34 H          -9.1410    1.3128   -0.0335 H       1  UNL1        0.0560
     35 H          -8.5456   -0.3576   -0.0675 H       1  UNL1        0.0560
     36 H          -5.2108    1.0564   -0.9497 H       1  UNL1        0.0563
     37 H          -6.1387    2.4159   -0.1450 H       1  UNL1        0.0563
     38 H          -1.2429    0.1694    2.7609 H       1  UNL1        0.0626
     39 H           1.1857   -0.0620    2.1668 H       1  UNL1        0.0636
     40 H           2.7783   -1.9325    0.2380 H       1  UNL1        0.1564
     41 H           4.8822    0.7898   -2.8167 H       1  UNL1        0.0514
     42 H           4.5187    1.9601   -1.4292 H       1  UNL1        0.0514
     43 H           7.2895    2.6859   -1.7021 H       1  UNL1        0.0621
     44 H           9.4830    2.0449   -0.7558 H       1  UNL1        0.0618
     45 H           9.7718   -0.1791    0.2360 H       1  UNL1        0.0618
     46 H           7.8931   -1.7405    0.2810 H       1  UNL1        0.0621
     47 H           5.2202   -1.9020   -1.5856 H       1  UNL1        0.0514
     48 H           4.9641   -1.5629    0.1863 H       1  UNL1        0.0514
     49 H           0.1398   -1.8133   -1.5159 H       1  UNL1        0.0636
     50 H          -2.2393   -1.6033   -0.9693 H       1  UNL1        0.0626
@<TRIPOS>BOND
     1     1     2    2
     2     2     3   am
     3     3     4    1
     4     4     5    1
     5     5     6    1
     6     6     7    1
     7     7     8    1
     8     8     9    1
     9     2    10    1
    10    10    11   ar
    11    11    12   ar
    12    12    13   ar
    13    13    14    1
    14    14    15   am
    15    15    16    2
    16    15    17   am
    17    17    18    1
    18    18    19    1
    19    19    20   ar
    20    20    21   ar
    21    21    22   ar
    22    22    23   ar
    23    23    24   ar
    24    24    25    1
    25    13    26   ar
    26    26    27   ar
    27     9     5    1
    28    27    10   ar
    29    25    17    1
    30    24    19   ar
    31     3    28    1
    32     4    29    1
    33     4    30    1
    34     5    31    1
    35     6    32    1
    36     6    33    1
    37     7    34    1
    38     7    35    1
    39     9    36    1
    40     9    37    1
    41    11    38    1
    42    12    39    1
    43    14    40    1
    44    18    41    1
    45    18    42    1
    46    20    43    1
    47    21    44    1
    48    22    45    1
    49    23    46    1
    50    25    47    1
    51    25    48    1
    52    26    49    1
    53    27    50    1
