
     RDKit          3D

 38 41  0  0  0  0  0  0  0  0999 V2000
   -3.6234   -4.1197   -1.0221 F   0  0  0  0  0  0  0  0  0  0  0  0
   -3.1531   -2.8455   -0.8844 C   0  0  0  0  0  0  0  0  0  0  0  0
   -2.9349   -2.0675   -1.9942 C   0  0  0  0  0  0  0  0  0  0  0  0
   -2.4592   -0.7844   -1.8623 C   0  0  0  0  0  0  0  0  0  0  0  0
   -2.2155   -0.3274   -0.5739 C   0  0  0  0  0  0  0  0  0  0  0  0
   -1.7038    1.0383   -0.3254 C   0  0  0  0  0  0  0  0  0  0  0  0
   -2.2852    2.2214   -0.5383 N   0  0  0  0  0  0  0  0  0  0  0  0
   -1.4840    3.2382   -0.1751 C   0  0  0  0  0  0  0  0  0  0  0  0
   -0.3542    2.6682    0.2845 N   0  0  0  0  0  0  0  0  0  0  0  0
    0.8263    3.3514    0.7978 C   0  0  0  0  0  0  0  0  0  0  0  0
    1.8176    3.6477   -0.2959 C   0  0  0  0  0  0  0  0  0  0  0  0
    1.3451    4.4383   -1.2926 F   0  0  0  0  0  0  0  0  0  0  0  0
    2.1869    2.4350   -0.8915 F   0  0  0  0  0  0  0  0  0  0  0  0
   -0.4492    1.3301    0.2089 C   0  0  0  0  0  0  0  0  0  0  0  0
    0.5181    0.2903    0.5841 C   0  0  0  0  0  0  0  0  0  0  0  0
    0.9132    0.1262    1.8920 C   0  0  0  0  0  0  0  0  0  0  0  0
    1.8349   -0.8830    2.1812 C   0  0  0  0  0  0  0  0  0  0  0  0
    2.3342   -1.6955    1.1695 C   0  0  0  0  0  0  0  0  0  0  0  0
    3.2174   -2.7318    1.1451 N   0  0  0  0  0  0  0  0  0  0  0  0
    3.3726   -3.1960   -0.1027 C   0  0  0  0  0  0  0  0  0  0  0  0
    2.5655   -2.4344   -0.8975 C   0  0  0  0  0  0  0  0  0  0  0  0
    1.9372   -1.5217   -0.1064 N   0  0  0  0  0  0  0  0  0  0  0  0
    1.0519   -0.5554   -0.3986 C   0  0  0  0  0  0  0  0  0  0  0  0
   -2.4379   -1.1175    0.5412 C   0  0  0  0  0  0  0  0  0  0  0  0
   -2.1759   -0.5984    1.7813 F   0  0  0  0  0  0  0  0  0  0  0  0
   -2.9157   -2.4036    0.3978 C   0  0  0  0  0  0  0  0  0  0  0  0
   -3.1348   -2.4524   -3.0067 H   0  0  0  0  0  0  0  0  0  0  0  0
   -2.2667   -0.1190   -2.7060 H   0  0  0  0  0  0  0  0  0  0  0  0
   -1.7201    4.2981   -0.2460 H   0  0  0  0  0  0  0  0  0  0  0  0
    1.3470    2.6863    1.5268 H   0  0  0  0  0  0  0  0  0  0  0  0
    0.5452    4.2611    1.3564 H   0  0  0  0  0  0  0  0  0  0  0  0
    2.6945    4.1255    0.1574 H   0  0  0  0  0  0  0  0  0  0  0  0
    0.5260    0.7557    2.6843 H   0  0  0  0  0  0  0  0  0  0  0  0
    2.1726   -1.0478    3.1883 H   0  0  0  0  0  0  0  0  0  0  0  0
    3.9956   -4.0050   -0.4605 H   0  0  0  0  0  0  0  0  0  0  0  0
    2.4594   -2.5506   -1.9527 H   0  0  0  0  0  0  0  0  0  0  0  0
    0.7457   -0.4301   -1.4184 H   0  0  0  0  0  0  0  0  0  0  0  0
   -3.0931   -3.0251    1.2546 H   0  0  0  0  0  0  0  0  0  0  0  0
  1  2  1  0
  2  3  2  0
  3  4  1  0
  4  5  2  0
  5  6  1  0
  6  7  1  0
  7  8  2  0
  8  9  1  0
  9 10  1  0
 10 11  1  0
 11 12  1  0
 11 13  1  0
  9 14  1  0
 14 15  1  0
 15 16  1  0
 16 17  2  0
 17 18  1  0
 18 19  2  0
 19 20  1  0
 20 21  2  0
 21 22  1  0
 22 23  1  0
  5 24  1  0
 24 25  1  0
 24 26  2  0
 26  2  1  0
 14  6  2  0
 23 15  2  0
 22 18  1  0
  3 27  1  0
  4 28  1  0
  8 29  1  0
 10 30  1  0
 10 31  1  0
 11 32  1  0
 16 33  1  0
 17 34  1  0
 20 35  1  0
 21 36  1  0
 23 37  1  0
 26 38  1  0
M  END
$$$$
