@<TRIPOS>MOLECULE
*****
 38 41 0 0 0
SMALL
GASTEIGER

@<TRIPOS>ATOM
      1 F          -3.6234   -4.1197   -1.0221 F       1  UNL1       -0.2054
      2 C          -3.1531   -2.8455   -0.8844 C.ar    1  UNL1        0.1262
      3 C          -2.9349   -2.0675   -1.9942 C.ar    1  UNL1       -0.0257
      4 C          -2.4592   -0.7844   -1.8623 C.ar    1  UNL1       -0.0470
      5 C          -2.2155   -0.3274   -0.5739 C.ar    1  UNL1        0.0378
      6 C          -1.7038    1.0383   -0.3254 C.ar    1  UNL1        0.0995
      7 N          -2.2852    2.2214   -0.5383 N.ar    1  UNL1       -0.2350
      8 C          -1.4840    3.2382   -0.1751 C.ar    1  UNL1        0.0972
      9 N          -0.3542    2.6682    0.2845 N.ar    1  UNL1       -0.3241
     10 C           0.8263    3.3514    0.7978 C.3     1  UNL1        0.0852
     11 C           1.8176    3.6477   -0.2959 C.3     1  UNL1        0.2569
     12 F           1.3451    4.4383   -1.2926 F       1  UNL1       -0.2073
     13 F           2.1869    2.4350   -0.8915 F       1  UNL1       -0.2073
     14 C          -0.4492    1.3301    0.2089 C.ar    1  UNL1        0.0781
     15 C           0.5181    0.2903    0.5841 C.ar    1  UNL1        0.0172
     16 C           0.9132    0.1262    1.8920 C.ar    1  UNL1       -0.0477
     17 C           1.8349   -0.8830    2.1812 C.ar    1  UNL1       -0.0182
     18 C           2.3342   -1.6955    1.1695 C.ar    1  UNL1        0.1375
     19 N           3.2174   -2.7318    1.1451 N.ar    1  UNL1       -0.2361
     20 C           3.3726   -3.1960   -0.1027 C.ar    1  UNL1        0.0464
     21 C           2.5655   -2.4344   -0.8975 C.ar    1  UNL1        0.0293
     22 N           1.9372   -1.5217   -0.1064 N.ar    1  UNL1       -0.3060
     23 C           1.0519   -0.5554   -0.3986 C.ar    1  UNL1        0.0204
     24 C          -2.4379   -1.1175    0.5412 C.ar    1  UNL1        0.1353
     25 F          -2.1759   -0.5984    1.7813 F       1  UNL1       -0.2047
     26 C          -2.9157   -2.4036    0.3978 C.ar    1  UNL1        0.0095
     27 H          -3.1348   -2.4524   -3.0067 H       1  UNL1        0.0646
     28 H          -2.2667   -0.1190   -2.7060 H       1  UNL1        0.0626
     29 H          -1.7201    4.2981   -0.2460 H       1  UNL1        0.1029
     30 H           1.3470    2.6863    1.5268 H       1  UNL1        0.0548
     31 H           0.5452    4.2611    1.3564 H       1  UNL1        0.0548
     32 H           2.6945    4.1255    0.1574 H       1  UNL1        0.1037
     33 H           0.5260    0.7557    2.6843 H       1  UNL1        0.0626
     34 H           2.1726   -1.0478    3.1883 H       1  UNL1        0.0654
     35 H           3.9956   -4.0050   -0.4605 H       1  UNL1        0.0845
     36 H           2.4594   -2.5506   -1.9527 H       1  UNL1        0.0829
     37 H           0.7457   -0.4301   -1.4184 H       1  UNL1        0.0820
     38 H          -3.0931   -3.0251    1.2546 H       1  UNL1        0.0675
@<TRIPOS>BOND
     1     1     2    1
     2     2     3   ar
     3     3     4   ar
     4     4     5   ar
     5     5     6    1
     6     6     7   ar
     7     7     8   ar
     8     8     9   ar
     9     9    10    1
    10    10    11    1
    11    11    12    1
    12    11    13    1
    13     9    14   ar
    14    14    15    1
    15    15    16   ar
    16    16    17   ar
    17    17    18   ar
    18    18    19   ar
    19    19    20   ar
    20    20    21   ar
    21    21    22   ar
    22    22    23   ar
    23     5    24   ar
    24    24    25    1
    25    24    26   ar
    26    26     2   ar
    27    14     6   ar
    28    23    15   ar
    29    22    18   ar
    30     3    27    1
    31     4    28    1
    32     8    29    1
    33    10    30    1
    34    10    31    1
    35    11    32    1
    36    16    33    1
    37    17    34    1
    38    20    35    1
    39    21    36    1
    40    23    37    1
    41    26    38    1
