@<TRIPOS>MOLECULE
*****
 88 93 0 0 0
SMALL
GASTEIGER

@<TRIPOS>ATOM
      1 C          -8.6916   -0.2980    2.9159 C.3     1  UNL1       -0.0612
      2 C          -8.8737   -1.0752    1.6142 C.3     1  UNL1       -0.0288
      3 C          -9.2047   -0.1466    0.5063 C.ar    1  UNL1       -0.0261
      4 C         -10.4935   -0.0489    0.0325 C.ar    1  UNL1       -0.0568
      5 C         -10.8432    0.8052   -0.9946 C.ar    1  UNL1       -0.0611
      6 C          -9.8516    1.5879   -1.5620 C.ar    1  UNL1       -0.0568
      7 C          -8.5480    1.4977   -1.0924 C.ar    1  UNL1       -0.0261
      8 C          -7.4508    2.3176   -1.6732 C.3     1  UNL1       -0.0288
      9 C          -7.1395    3.4348   -0.7234 C.3     1  UNL1       -0.0612
     10 C          -8.2244    0.6323   -0.0602 C.ar    1  UNL1        0.0401
     11 N          -6.9003    0.5229    0.4373 N.am    1  UNL1       -0.2797
     12 C          -6.0050   -0.4034   -0.1302 C.2     1  UNL1        0.2686
     13 O          -6.4341   -1.1162   -1.0803 O.2     1  UNL1       -0.2681
     14 C          -4.6438   -0.5721    0.3140 C.ar    1  UNL1        0.1511
     15 N          -4.0214    0.0719    1.3117 N.ar    1  UNL1       -0.1659
     16 N          -2.7639   -0.3357    1.4216 N.ar    1  UNL1       -0.2643
     17 C          -1.7701    0.1157    2.3730 C.3     1  UNL1        0.0309
     18 C          -2.5420   -1.2691    0.4798 C.ar    1  UNL1        0.0911
     19 C          -3.6981   -1.4418   -0.2300 C.ar    1  UNL1        0.0121
     20 C          -3.8479   -2.3923   -1.3249 C.3     1  UNL1       -0.0193
     21 C          -2.6432   -3.1106   -1.7569 C.3     1  UNL1       -0.0200
     22 C          -1.4501   -2.9168   -0.9474 C.ar    1  UNL1       -0.0014
     23 C          -0.3014   -3.6745   -1.3018 C.ar    1  UNL1        0.0365
     24 N           0.7938   -3.4905   -0.5906 N.ar    1  UNL1       -0.2224
     25 C           0.8624   -2.6181    0.4508 C.ar    1  UNL1        0.2201
     26 N           2.1396   -2.5495    1.0820 N.pl3   1  UNL1       -0.2807
     27 C           3.0271   -1.5535    0.5925 C.ar    1  UNL1        0.0761
     28 C           2.6024   -0.6234   -0.3672 C.ar    1  UNL1       -0.0362
     29 C           3.4623    0.3587   -0.8086 C.ar    1  UNL1       -0.0477
     30 C           4.7477    0.4594   -0.3311 C.ar    1  UNL1        0.0403
     31 C           5.6553    1.4929   -0.7900 C.2     1  UNL1        0.2444
     32 O           5.1875    2.3800   -1.5616 O.2     1  UNL1       -0.2702
     33 N           7.0267    1.5868   -0.4431 N.am    1  UNL1       -0.3084
     34 C           7.8891    2.6465   -0.9342 C.3     1  UNL1        0.0257
     35 C           8.5812    3.2963    0.2195 C.3     1  UNL1       -0.0216
     36 C           9.6084    2.3881    0.8643 C.3     1  UNL1        0.0003
     37 N          10.5891    1.9530   -0.0881 N.3     1  UNL1       -0.3052
     38 C          11.4595    0.9896    0.5680 C.3     1  UNL1       -0.0128
     39 C          10.0101    1.3286   -1.2360 C.3     1  UNL1        0.0003
     40 C           8.9277    2.1113   -1.8977 C.3     1  UNL1       -0.0216
     41 C           5.1454   -0.4647    0.6111 C.ar    1  UNL1       -0.0057
     42 C           4.3055   -1.4629    1.0745 C.ar    1  UNL1        0.1518
     43 O           4.7211   -2.3903    2.0212 O.3     1  UNL1       -0.4038
     44 C           5.3589   -3.5507    1.5235 C.3     1  UNL1        0.5753
     45 F           4.4988   -4.2125    0.6807 F       1  UNL1       -0.1328
     46 F           5.8239   -4.3735    2.5270 F       1  UNL1       -0.1328
     47 F           6.4213   -3.1241    0.7117 F       1  UNL1       -0.1328
     48 N          -0.2078   -1.8962    0.8011 N.ar    1  UNL1       -0.2124
     49 C          -1.3673   -2.0492    0.0963 C.ar    1  UNL1        0.0973
     50 H          -9.3771   -0.7115    3.6985 H       1  UNL1        0.0233
     51 H          -8.9318    0.7587    2.7078 H       1  UNL1        0.0233
     52 H          -7.6547   -0.4323    3.3189 H       1  UNL1        0.0233
     53 H          -9.6556   -1.8556    1.7413 H       1  UNL1        0.0311
     54 H          -7.9256   -1.6160    1.4069 H       1  UNL1        0.0311
     55 H         -11.2785   -0.6447    0.4553 H       1  UNL1        0.0621
     56 H         -11.8767    0.8727   -1.3631 H       1  UNL1        0.0618
     57 H         -10.0651    2.2694   -2.3628 H       1  UNL1        0.0621
     58 H          -6.5755    1.6166   -1.7818 H       1  UNL1        0.0311
     59 H          -7.7819    2.6917   -2.6729 H       1  UNL1        0.0311
     60 H          -7.7521    4.3243   -1.0278 H       1  UNL1        0.0233
     61 H          -7.4097    3.2358    0.3264 H       1  UNL1        0.0233
     62 H          -6.0716    3.7528   -0.7815 H       1  UNL1        0.0233
     63 H          -6.5499    1.1262    1.2387 H       1  UNL1        0.1552
     64 H          -0.9971    0.7095    1.8648 H       1  UNL1        0.0473
     65 H          -1.3795   -0.7073    2.9901 H       1  UNL1        0.0473
     66 H          -2.2807    0.8202    3.0864 H       1  UNL1        0.0473
     67 H          -4.6247   -3.1655   -1.0426 H       1  UNL1        0.0318
     68 H          -4.3242   -1.8297   -2.1997 H       1  UNL1        0.0318
     69 H          -2.3768   -2.7228   -2.7964 H       1  UNL1        0.0317
     70 H          -2.8531   -4.2197   -1.8794 H       1  UNL1        0.0317
     71 H          -0.3387   -4.3717   -2.1254 H       1  UNL1        0.0834
     72 H           2.3652   -3.1933    1.8487 H       1  UNL1        0.1551
     73 H           1.5877   -0.7033   -0.7439 H       1  UNL1        0.0637
     74 H           3.0827    1.0548   -1.5537 H       1  UNL1        0.0626
     75 H           7.4071    0.8528    0.1915 H       1  UNL1        0.1493
     76 H           7.3330    3.4183   -1.4974 H       1  UNL1        0.0499
     77 H           8.9880    4.2913   -0.0017 H       1  UNL1        0.0295
     78 H           7.7984    3.4667    1.0156 H       1  UNL1        0.0295
     79 H           9.0618    1.4854    1.2130 H       1  UNL1        0.0427
     80 H          10.0936    2.9514    1.6723 H       1  UNL1        0.0427
     81 H          11.4152    1.1480    1.6631 H       1  UNL1        0.0391
     82 H          10.9996   -0.0220    0.3773 H       1  UNL1        0.0391
     83 H          12.4860    1.0016    0.1553 H       1  UNL1        0.0391
     84 H          10.8288    1.2004   -1.9966 H       1  UNL1        0.0427
     85 H           9.7108    0.3000   -0.9599 H       1  UNL1        0.0427
     86 H           9.3866    3.0010   -2.3896 H       1  UNL1        0.0295
     87 H           8.4746    1.4932   -2.6923 H       1  UNL1        0.0295
     88 H           6.1342   -0.4642    1.0436 H       1  UNL1        0.0662
@<TRIPOS>BOND
     1     1     2    1
     2     2     3    1
     3     3     4   ar
     4     4     5   ar
     5     5     6   ar
     6     6     7   ar
     7     7     8    1
     8     8     9    1
     9     7    10   ar
    10    10    11    1
    11    11    12   am
    12    12    13    2
    13    12    14    1
    14    14    15   ar
    15    15    16   ar
    16    16    17    1
    17    16    18   ar
    18    18    19   ar
    19    19    20    1
    20    20    21    1
    21    21    22    1
    22    22    23   ar
    23    23    24   ar
    24    24    25   ar
    25    25    26    1
    26    26    27    1
    27    27    28   ar
    28    28    29   ar
    29    29    30   ar
    30    30    31    1
    31    31    32    2
    32    31    33   am
    33    33    34    1
    34    34    35    1
    35    35    36    1
    36    36    37    1
    37    37    38    1
    38    37    39    1
    39    39    40    1
    40    30    41   ar
    41    41    42   ar
    42    42    43    1
    43    43    44    1
    44    44    45    1
    45    44    46    1
    46    44    47    1
    47    25    48   ar
    48    48    49   ar
    49    10     3   ar
    50    19    14   ar
    51    49    22   ar
    52    49    18    1
    53    42    27   ar
    54    40    34    1
    55     1    50    1
    56     1    51    1
    57     1    52    1
    58     2    53    1
    59     2    54    1
    60     4    55    1
    61     5    56    1
    62     6    57    1
    63     8    58    1
    64     8    59    1
    65     9    60    1
    66     9    61    1
    67     9    62    1
    68    11    63    1
    69    17    64    1
    70    17    65    1
    71    17    66    1
    72    20    67    1
    73    20    68    1
    74    21    69    1
    75    21    70    1
    76    23    71    1
    77    26    72    1
    78    28    73    1
    79    29    74    1
    80    33    75    1
    81    34    76    1
    82    35    77    1
    83    35    78    1
    84    36    79    1
    85    36    80    1
    86    38    81    1
    87    38    82    1
    88    38    83    1
    89    39    84    1
    90    39    85    1
    91    40    86    1
    92    40    87    1
    93    41    88    1
