@<TRIPOS>MOLECULE
*****
 42 45 0 0 0
SMALL
GASTEIGER

@<TRIPOS>ATOM
      1 C           3.6960    2.8276   -0.8266 C.3     1  UNL1       -0.0045
      2 C           3.7540    1.4628   -0.2130 C.ar    1  UNL1        0.1305
      3 N           4.7117    1.1370    0.6867 N.ar    1  UNL1       -0.2157
      4 C           4.7626   -0.0894    1.2370 C.ar    1  UNL1        0.1493
      5 N           5.7562   -0.4611    2.1845 N.pl3   1  UNL1       -0.3413
      6 C           3.7895   -0.9951    0.8369 C.ar    1  UNL1        0.1708
      7 N           3.5286   -2.2740    1.1580 N.ar    1  UNL1       -0.1243
      8 N           2.4691   -2.6754    0.4781 N.ar    1  UNL1       -0.0630
      9 N           2.0018   -1.7069   -0.2959 N.ar    1  UNL1       -0.2239
     10 C           0.8506   -1.8095   -1.1688 C.3     1  UNL1        0.0728
     11 C          -0.4194   -1.4375   -0.4605 C.3     1  UNL1        0.0909
     12 C          -0.4294   -0.0260    0.0686 C.3     1  UNL1        0.0274
     13 N          -1.7975    0.4713    0.1830 N.3     1  UNL1       -0.2915
     14 C          -2.5960   -0.3381    1.0434 C.3     1  UNL1        0.0478
     15 C          -3.9875    0.2811    1.0722 C.ar    1  UNL1        0.0922
     16 N          -4.6674    1.0470    1.5739 N.ar    1  UNL1       -0.2510
     17 C          -5.9238    1.3701    1.3757 C.ar    1  UNL1        0.0351
     18 C          -6.5099    0.6404    0.3763 C.ar    1  UNL1       -0.0045
     19 S          -5.2460   -0.4400   -0.2024 S.2     1  UNL1       -0.0793
     20 C          -2.2943    0.5581   -1.1688 C.3     1  UNL1        0.0229
     21 C          -2.0002   -0.6641   -1.9869 C.3     1  UNL1        0.0609
     22 O          -1.4918   -1.7174   -1.2705 O.3     1  UNL1       -0.3722
     23 C           2.8037   -0.6496   -0.0935 C.ar    1  UNL1        0.1837
     24 N           2.8115    0.5918   -0.6032 N.ar    1  UNL1       -0.2114
     25 H           4.7048    3.2791   -0.7212 H       1  UNL1        0.0308
     26 H           3.4441    2.6816   -1.9054 H       1  UNL1        0.0308
     27 H           2.9073    3.4008   -0.3338 H       1  UNL1        0.0308
     28 H           5.5888   -1.2299    2.8663 H       1  UNL1        0.1438
     29 H           6.6559    0.0287    2.2062 H       1  UNL1        0.1438
     30 H           1.0023   -1.1384   -2.0637 H       1  UNL1        0.0536
     31 H           0.8234   -2.8363   -1.5754 H       1  UNL1        0.0536
     32 H          -0.5274   -2.0939    0.4367 H       1  UNL1        0.0627
     33 H           0.0358    0.6086   -0.7291 H       1  UNL1        0.0453
     34 H           0.1253    0.1092    1.0075 H       1  UNL1        0.0453
     35 H          -2.2558   -0.2283    2.0856 H       1  UNL1        0.0496
     36 H          -2.6468   -1.4041    0.7323 H       1  UNL1        0.0496
     37 H          -6.4594    2.1333    1.9356 H       1  UNL1        0.0835
     38 H          -7.6013    0.7016   -0.0219 H       1  UNL1        0.0709
     39 H          -1.7375    1.4378   -1.6224 H       1  UNL1        0.0449
     40 H          -3.3516    0.8843   -1.2014 H       1  UNL1        0.0449
     41 H          -2.9329   -1.0590   -2.4907 H       1  UNL1        0.0573
     42 H          -1.3470   -0.3783   -2.8554 H       1  UNL1        0.0573
@<TRIPOS>BOND
     1     1     2    1
     2     2     3   ar
     3     3     4   ar
     4     4     5    1
     5     4     6   ar
     6     6     7   ar
     7     7     8   ar
     8     8     9   ar
     9     9    10    1
    10    10    11    1
    11    11    12    1
    12    12    13    1
    13    13    14    1
    14    14    15    1
    15    15    16   ar
    16    16    17   ar
    17    17    18   ar
    18    18    19   ar
    19    13    20    1
    20    20    21    1
    21    21    22    1
    22     9    23   ar
    23    23    24   ar
    24    24     2   ar
    25    23     6   ar
    26    22    11    1
    27    19    15   ar
    28     1    25    1
    29     1    26    1
    30     1    27    1
    31     5    28    1
    32     5    29    1
    33    10    30    1
    34    10    31    1
    35    11    32    1
    36    12    33    1
    37    12    34    1
    38    14    35    1
    39    14    36    1
    40    17    37    1
    41    18    38    1
    42    20    39    1
    43    20    40    1
    44    21    41    1
    45    21    42    1
