
     RDKit          3D

 42 45  0  0  0  0  0  0  0  0999 V2000
    3.6960    2.8276   -0.8266 C   0  0  0  0  0  0  0  0  0  0  0  0
    3.7540    1.4628   -0.2130 C   0  0  0  0  0  0  0  0  0  0  0  0
    4.7117    1.1370    0.6867 N   0  0  0  0  0  0  0  0  0  0  0  0
    4.7626   -0.0894    1.2370 C   0  0  0  0  0  0  0  0  0  0  0  0
    5.7562   -0.4611    2.1845 N   0  0  0  0  0  0  0  0  0  0  0  0
    3.7895   -0.9951    0.8369 C   0  0  0  0  0  0  0  0  0  0  0  0
    3.5286   -2.2740    1.1580 N   0  0  0  0  0  0  0  0  0  0  0  0
    2.4691   -2.6754    0.4781 N   0  0  0  0  0  0  0  0  0  0  0  0
    2.0018   -1.7069   -0.2959 N   0  0  0  0  0  0  0  0  0  0  0  0
    0.8506   -1.8095   -1.1688 C   0  0  0  0  0  0  0  0  0  0  0  0
   -0.4194   -1.4375   -0.4605 C   0  0  1  0  0  0  0  0  0  0  0  0
   -0.4294   -0.0260    0.0686 C   0  0  0  0  0  0  0  0  0  0  0  0
   -1.7975    0.4713    0.1830 N   0  0  0  0  0  0  0  0  0  0  0  0
   -2.5960   -0.3381    1.0434 C   0  0  0  0  0  0  0  0  0  0  0  0
   -3.9875    0.2811    1.0722 C   0  0  0  0  0  0  0  0  0  0  0  0
   -4.6674    1.0470    1.5739 N   0  0  0  0  0  0  0  0  0  0  0  0
   -5.9238    1.3701    1.3757 C   0  0  0  0  0  0  0  0  0  0  0  0
   -6.5099    0.6404    0.3763 C   0  0  0  0  0  0  0  0  0  0  0  0
   -5.2460   -0.4400   -0.2024 S   0  0  0  0  0  0  0  0  0  0  0  0
   -2.2943    0.5581   -1.1688 C   0  0  0  0  0  0  0  0  0  0  0  0
   -2.0002   -0.6641   -1.9869 C   0  0  0  0  0  0  0  0  0  0  0  0
   -1.4918   -1.7174   -1.2705 O   0  0  0  0  0  0  0  0  0  0  0  0
    2.8037   -0.6496   -0.0935 C   0  0  0  0  0  0  0  0  0  0  0  0
    2.8115    0.5918   -0.6032 N   0  0  0  0  0  0  0  0  0  0  0  0
    4.7048    3.2791   -0.7212 H   0  0  0  0  0  0  0  0  0  0  0  0
    3.4441    2.6816   -1.9054 H   0  0  0  0  0  0  0  0  0  0  0  0
    2.9073    3.4008   -0.3338 H   0  0  0  0  0  0  0  0  0  0  0  0
    5.5888   -1.2299    2.8663 H   0  0  0  0  0  0  0  0  0  0  0  0
    6.6559    0.0287    2.2062 H   0  0  0  0  0  0  0  0  0  0  0  0
    1.0023   -1.1384   -2.0637 H   0  0  0  0  0  0  0  0  0  0  0  0
    0.8234   -2.8363   -1.5754 H   0  0  0  0  0  0  0  0  0  0  0  0
   -0.5274   -2.0939    0.4367 H   0  0  0  0  0  0  0  0  0  0  0  0
    0.0358    0.6086   -0.7291 H   0  0  0  0  0  0  0  0  0  0  0  0
    0.1253    0.1092    1.0075 H   0  0  0  0  0  0  0  0  0  0  0  0
   -2.2558   -0.2283    2.0856 H   0  0  0  0  0  0  0  0  0  0  0  0
   -2.6468   -1.4041    0.7323 H   0  0  0  0  0  0  0  0  0  0  0  0
   -6.4594    2.1333    1.9356 H   0  0  0  0  0  0  0  0  0  0  0  0
   -7.6013    0.7016   -0.0219 H   0  0  0  0  0  0  0  0  0  0  0  0
   -1.7375    1.4378   -1.6224 H   0  0  0  0  0  0  0  0  0  0  0  0
   -3.3516    0.8843   -1.2014 H   0  0  0  0  0  0  0  0  0  0  0  0
   -2.9329   -1.0590   -2.4907 H   0  0  0  0  0  0  0  0  0  0  0  0
   -1.3470   -0.3783   -2.8554 H   0  0  0  0  0  0  0  0  0  0  0  0
  1  2  1  0
  2  3  2  0
  3  4  1  0
  4  5  1  0
  4  6  2  0
  6  7  1  0
  7  8  2  0
  8  9  1  0
  9 10  1  0
 10 11  1  0
 11 12  1  0
 12 13  1  0
 13 14  1  0
 14 15  1  0
 15 16  2  0
 16 17  1  0
 17 18  2  0
 18 19  1  0
 13 20  1  0
 20 21  1  0
 21 22  1  0
  9 23  1  0
 23 24  2  0
 24  2  1  0
 23  6  1  0
 22 11  1  0
 19 15  1  0
  1 25  1  0
  1 26  1  0
  1 27  1  0
  5 28  1  0
  5 29  1  0
 10 30  1  0
 10 31  1  0
 11 32  1  1
 12 33  1  0
 12 34  1  0
 14 35  1  0
 14 36  1  0
 17 37  1  0
 18 38  1  0
 20 39  1  0
 20 40  1  0
 21 41  1  0
 21 42  1  0
M  END
$$$$
