@<TRIPOS>MOLECULE
*****
 70 73 0 0 0
SMALL
GASTEIGER

@<TRIPOS>ATOM
      1 C          -1.7145   -1.1031   -4.7209 C.3     1  UNL1        0.0789
      2 O          -0.8843   -0.4150   -3.8244 O.3     1  UNL1       -0.4932
      3 C          -1.2164   -0.3020   -2.4806 C.ar    1  UNL1        0.1431
      4 C          -0.3811    0.3805   -1.6203 C.ar    1  UNL1        0.0776
      5 N           0.8078    0.9426   -2.1576 N.pl3   1  UNL1       -0.2806
      6 C           1.9161    1.7074   -1.7607 C.ar    1  UNL1        0.2201
      7 N           1.9467    3.0401   -1.9028 N.ar    1  UNL1       -0.2226
      8 C           2.9990    3.7545   -1.5215 C.ar    1  UNL1        0.0332
      9 C           4.0495    3.0482   -0.9747 C.ar    1  UNL1       -0.0173
     10 C           4.0714    1.6817   -0.8050 C.ar    1  UNL1        0.0780
     11 N           2.9624    1.0263   -1.2186 N.ar    1  UNL1       -0.2142
     12 C           5.2373    1.0438   -0.2055 C.ar    1  UNL1        0.0257
     13 C           6.3980    1.6888    0.2051 C.ar    1  UNL1        0.0146
     14 N           7.2221    0.7608    0.7065 N.ar    1  UNL1       -0.3490
     15 C           8.5565    1.0179    1.2545 C.3     1  UNL1        0.0119
     16 C           6.6320   -0.4490    0.6312 C.ar    1  UNL1        0.0495
     17 C           5.3666   -0.3030    0.0550 C.ar    1  UNL1        0.0090
     18 C           4.5989   -1.4229   -0.1087 C.ar    1  UNL1       -0.0519
     19 C           5.0200   -2.6856    0.2700 C.ar    1  UNL1       -0.0611
     20 C           6.2745   -2.8620    0.8460 C.ar    1  UNL1       -0.0598
     21 C           7.0323   -1.7358    1.0042 C.ar    1  UNL1       -0.0376
     22 C          -0.6080    0.5558   -0.2719 C.ar    1  UNL1       -0.0138
     23 C          -1.7522    0.0135    0.2733 C.ar    1  UNL1        0.0569
     24 N          -2.1737    0.0797    1.6292 N.am    1  UNL1       -0.2804
     25 C          -1.7824   -0.9086    2.5935 C.2     1  UNL1        0.2406
     26 O          -1.0341   -1.8335    2.1309 O.2     1  UNL1       -0.2705
     27 C          -2.1673   -0.9206    3.9978 C.2     1  UNL1       -0.0066
     28 C          -1.7520   -1.8788    4.8075 C.2     1  UNL1       -0.0938
     29 C          -2.6243   -0.6789   -0.5381 C.ar    1  UNL1        0.0546
     30 C          -2.3471   -0.8250   -1.8873 C.ar    1  UNL1        0.0048
     31 N          -3.8665   -1.3191   -0.1879 N.pl3   1  UNL1       -0.3302
     32 C          -4.1459   -2.4114    0.7358 C.3     1  UNL1        0.0008
     33 C          -5.0771   -0.8640   -0.8101 C.3     1  UNL1        0.0247
     34 C          -6.0624   -0.1837    0.0727 C.3     1  UNL1        0.0140
     35 N          -5.6360    0.9993    0.7337 N.3     1  UNL1       -0.3069
     36 C          -6.6133    1.6091    1.5845 C.3     1  UNL1       -0.0130
     37 C          -4.8832    1.9164   -0.0575 C.3     1  UNL1       -0.0130
     38 H          -2.7658   -0.7991   -4.5461 H       1  UNL1        0.0660
     39 H          -1.6439   -2.1858   -4.4664 H       1  UNL1        0.0660
     40 H          -1.4043   -1.0078   -5.7679 H       1  UNL1        0.0660
     41 H           1.0684    0.8254   -3.1763 H       1  UNL1        0.1551
     42 H           3.0316    4.8424   -1.6346 H       1  UNL1        0.0831
     43 H           4.9157    3.6388   -0.6620 H       1  UNL1        0.0654
     44 H           6.6523    2.7469    0.1574 H       1  UNL1        0.0816
     45 H           9.2950    1.0066    0.4291 H       1  UNL1        0.0456
     46 H           8.7814    0.2113    1.9763 H       1  UNL1        0.0456
     47 H           8.5153    2.0140    1.7261 H       1  UNL1        0.0456
     48 H           3.6314   -1.2864   -0.5530 H       1  UNL1        0.0624
     49 H           4.4061   -3.5780    0.1399 H       1  UNL1        0.0618
     50 H           6.6385   -3.8338    1.1552 H       1  UNL1        0.0618
     51 H           8.0062   -1.8851    1.4541 H       1  UNL1        0.0638
     52 H           0.0285    1.0828    0.4142 H       1  UNL1        0.0656
     53 H          -2.7970    0.8562    2.0067 H       1  UNL1        0.1552
     54 H          -2.7993   -0.0972    4.2855 H       1  UNL1        0.0663
     55 H          -1.1275   -2.6459    4.4113 H       1  UNL1        0.0536
     56 H          -2.0640   -1.8496    5.8472 H       1  UNL1        0.0536
     57 H          -2.9929   -1.3644   -2.6042 H       1  UNL1        0.0674
     58 H          -4.7538   -2.0309    1.5555 H       1  UNL1        0.0428
     59 H          -3.2540   -2.9950    1.0120 H       1  UNL1        0.0428
     60 H          -4.8053   -3.1764    0.2314 H       1  UNL1        0.0428
     61 H          -4.9079   -0.1862   -1.6699 H       1  UNL1        0.0476
     62 H          -5.5912   -1.7493   -1.2447 H       1  UNL1        0.0476
     63 H          -6.9038    0.1124   -0.6154 H       1  UNL1        0.0442
     64 H          -6.5783   -0.8794    0.7876 H       1  UNL1        0.0442
     65 H          -6.4599    1.4310    2.6728 H       1  UNL1        0.0391
     66 H          -6.6171    2.7018    1.4081 H       1  UNL1        0.0391
     67 H          -7.6044    1.2086    1.2980 H       1  UNL1        0.0391
     68 H          -3.8218    2.0076    0.1638 H       1  UNL1        0.0391
     69 H          -5.1332    1.7610   -1.1215 H       1  UNL1        0.0391
     70 H          -5.3140    2.9390    0.1715 H       1  UNL1        0.0391
@<TRIPOS>BOND
     1     1     2    1
     2     2     3    1
     3     3     4   ar
     4     4     5    1
     5     5     6    1
     6     6     7   ar
     7     7     8   ar
     8     8     9   ar
     9     9    10   ar
    10    10    11   ar
    11    10    12    1
    12    12    13   ar
    13    13    14   ar
    14    14    15    1
    15    14    16   ar
    16    16    17   ar
    17    17    18   ar
    18    18    19   ar
    19    19    20   ar
    20    20    21   ar
    21     4    22   ar
    22    22    23   ar
    23    23    24    1
    24    24    25   am
    25    25    26    2
    26    25    27    1
    27    27    28    2
    28    23    29   ar
    29    29    30   ar
    30    29    31    1
    31    31    32    1
    32    31    33    1
    33    33    34    1
    34    34    35    1
    35    35    36    1
    36    35    37    1
    37    30     3   ar
    38    11     6   ar
    39    17    12   ar
    40    21    16   ar
    41     1    38    1
    42     1    39    1
    43     1    40    1
    44     5    41    1
    45     8    42    1
    46     9    43    1
    47    13    44    1
    48    15    45    1
    49    15    46    1
    50    15    47    1
    51    18    48    1
    52    19    49    1
    53    20    50    1
    54    21    51    1
    55    22    52    1
    56    24    53    1
    57    27    54    1
    58    28    55    1
    59    28    56    1
    60    30    57    1
    61    32    58    1
    62    32    59    1
    63    32    60    1
    64    33    61    1
    65    33    62    1
    66    34    63    1
    67    34    64    1
    68    36    65    1
    69    36    66    1
    70    36    67    1
    71    37    68    1
    72    37    69    1
    73    37    70    1
