
     RDKit          3D

 72 75  0  0  0  0  0  0  0  0999 V2000
    9.5560    0.1014    0.8137 C   0  0  0  0  0  0  0  0  0  0  0  0
    8.8856    1.0971   -0.0803 C   0  0  0  0  0  0  0  0  0  0  0  0
    7.5138    0.6896   -0.3086 N   0  0  0  0  0  0  0  0  0  0  0  0
    6.5634    1.1275    0.5345 C   0  0  0  0  0  0  0  0  0  0  0  0
    6.9463    1.9972    1.6493 C   0  0  0  0  0  0  0  0  0  0  0  0
    5.2274    0.7615    0.3554 C   0  0  0  0  0  0  0  0  0  0  0  0
    4.8721   -0.0631   -0.7030 C   0  0  0  0  0  0  0  0  0  0  0  0
    3.4851   -0.4611   -0.9139 C   0  0  0  0  0  0  0  0  0  0  0  0
    2.6554   -0.6139    0.1767 C   0  0  0  0  0  0  0  0  0  0  0  0
    1.3258   -0.9904    0.0471 C   0  0  0  0  0  0  0  0  0  0  0  0
    0.8156   -1.2203   -1.2235 C   0  0  0  0  0  0  0  0  0  0  0  0
   -0.6324   -1.6252   -1.3089 C   0  0  2  0  0  0  0  0  0  0  0  0
   -1.0423   -1.4202   -2.7476 C   0  0  0  0  0  0  0  0  0  0  0  0
   -1.4185   -0.7826   -0.4461 N   0  0  0  0  0  0  0  0  0  0  0  0
   -1.4948    0.6505   -0.5659 C   0  0  0  0  0  0  0  0  0  0  0  0
   -2.8727    1.1972   -0.4602 C   0  0  0  0  0  0  0  0  0  0  0  0
   -3.8566    0.3222    0.2953 C   0  0  2  0  0  0  0  0  0  0  0  0
   -4.6393   -0.4459   -0.7046 C   0  0  0  0  0  0  0  0  0  0  0  0
   -5.6583   -1.3767   -0.2219 C   0  0  0  0  0  0  0  0  0  0  0  0
   -6.3136   -2.0291   -1.4491 C   0  0  0  0  0  0  0  0  0  0  0  0
   -5.2068   -2.4981    0.6517 C   0  0  0  0  0  0  0  0  0  0  0  0
   -6.6710   -0.7040    0.4507 O   0  0  0  0  0  0  0  0  0  0  0  0
   -4.6777    1.2902    1.0871 C   0  0  0  0  0  0  0  0  0  0  0  0
   -4.3011    1.5254    2.3886 C   0  0  0  0  0  0  0  0  0  0  0  0
   -4.9989    2.4184    3.1999 C   0  0  0  0  0  0  0  0  0  0  0  0
   -6.0861    3.0592    2.6439 C   0  0  0  0  0  0  0  0  0  0  0  0
   -6.4550    2.8158    1.3369 C   0  0  0  0  0  0  0  0  0  0  0  0
   -5.7502    1.9179    0.5269 C   0  0  0  0  0  0  0  0  0  0  0  0
   -3.1359   -0.5412    1.1850 O   0  0  0  0  0  0  0  0  0  0  0  0
   -2.1827   -1.3597    0.6067 C   0  0  0  0  0  0  0  0  0  0  0  0
   -1.9526   -2.5489    0.9413 O   0  0  0  0  0  0  0  0  0  0  0  0
    1.6116   -1.0775   -2.3251 C   0  0  0  0  0  0  0  0  0  0  0  0
    2.9443   -0.6977   -2.1589 C   0  0  0  0  0  0  0  0  0  0  0  0
    5.8918   -0.4804   -1.5346 C   0  0  0  0  0  0  0  0  0  0  0  0
    7.2144   -0.1083   -1.3438 C   0  0  0  0  0  0  0  0  0  0  0  0
    8.1285   -0.5051   -2.1210 O   0  0  0  0  0  0  0  0  0  0  0  0
    8.8939   -0.7720    0.9858 H   0  0  0  0  0  0  0  0  0  0  0  0
   10.5088   -0.2941    0.3926 H   0  0  0  0  0  0  0  0  0  0  0  0
    9.8136    0.5166    1.8157 H   0  0  0  0  0  0  0  0  0  0  0  0
    9.4234    1.0643   -1.0677 H   0  0  0  0  0  0  0  0  0  0  0  0
    8.9472    2.1079    0.3513 H   0  0  0  0  0  0  0  0  0  0  0  0
    7.2910    2.9843    1.2771 H   0  0  0  0  0  0  0  0  0  0  0  0
    6.0478    2.2158    2.2930 H   0  0  0  0  0  0  0  0  0  0  0  0
    7.7106    1.5606    2.3152 H   0  0  0  0  0  0  0  0  0  0  0  0
    4.4595    1.1113    1.0317 H   0  0  0  0  0  0  0  0  0  0  0  0
    3.0207   -0.4430    1.1756 H   0  0  0  0  0  0  0  0  0  0  0  0
    0.6792   -1.1088    0.9055 H   0  0  0  0  0  0  0  0  0  0  0  0
   -0.7395   -2.6694   -1.0151 H   0  0  0  0  0  0  0  0  0  0  0  0
   -2.1287   -1.4585   -2.9099 H   0  0  0  0  0  0  0  0  0  0  0  0
   -0.5926   -2.2121   -3.4013 H   0  0  0  0  0  0  0  0  0  0  0  0
   -0.6612   -0.4585   -3.1515 H   0  0  0  0  0  0  0  0  0  0  0  0
   -1.0003    1.0391   -1.4808 H   0  0  0  0  0  0  0  0  0  0  0  0
   -0.8913    1.0682    0.2875 H   0  0  0  0  0  0  0  0  0  0  0  0
   -2.7935    2.2252   -0.0461 H   0  0  0  0  0  0  0  0  0  0  0  0
   -3.2314    1.3634   -1.5209 H   0  0  0  0  0  0  0  0  0  0  0  0
   -5.0730    0.2780   -1.4301 H   0  0  0  0  0  0  0  0  0  0  0  0
   -3.8677   -0.9951   -1.3292 H   0  0  0  0  0  0  0  0  0  0  0  0
   -5.6713   -2.8949   -1.7074 H   0  0  0  0  0  0  0  0  0  0  0  0
   -6.4470   -1.3065   -2.2610 H   0  0  0  0  0  0  0  0  0  0  0  0
   -7.2757   -2.4399   -1.0729 H   0  0  0  0  0  0  0  0  0  0  0  0
   -6.0896   -3.1561    0.9103 H   0  0  0  0  0  0  0  0  0  0  0  0
   -4.7628   -2.2169    1.5997 H   0  0  0  0  0  0  0  0  0  0  0  0
   -4.4999   -3.1854    0.1396 H   0  0  0  0  0  0  0  0  0  0  0  0
   -7.5643   -0.9012    0.1308 H   0  0  0  0  0  0  0  0  0  0  0  0
   -3.4475    1.0345    2.8537 H   0  0  0  0  0  0  0  0  0  0  0  0
   -4.7313    2.6273    4.2252 H   0  0  0  0  0  0  0  0  0  0  0  0
   -6.6377    3.7620    3.2787 H   0  0  0  0  0  0  0  0  0  0  0  0
   -7.3116    3.3185    0.8943 H   0  0  0  0  0  0  0  0  0  0  0  0
   -6.0808    1.7716   -0.4923 H   0  0  0  0  0  0  0  0  0  0  0  0
    1.2064   -1.2592   -3.3175 H   0  0  0  0  0  0  0  0  0  0  0  0
    3.5758   -0.5834   -3.0191 H   0  0  0  0  0  0  0  0  0  0  0  0
    5.6303   -1.1159   -2.3535 H   0  0  0  0  0  0  0  0  0  0  0  0
  1  2  1  0
  2  3  1  0
  3  4  1  0
  4  5  1  0
  4  6  2  0
  6  7  1  0
  7  8  1  0
  8  9  2  0
  9 10  1  0
 10 11  2  0
 11 12  1  0
 12 13  1  0
 12 14  1  0
 14 15  1  0
 15 16  1  0
 16 17  1  0
 17 18  1  6
 18 19  1  0
 19 20  1  0
 19 21  1  0
 19 22  1  0
 17 23  1  0
 23 24  2  0
 24 25  1  0
 25 26  2  0
 26 27  1  0
 27 28  2  0
 17 29  1  0
 29 30  1  0
 30 31  2  0
 11 32  1  0
 32 33  2  0
  7 34  2  0
 34 35  1  0
 35 36  2  0
 35  3  1  0
 33  8  1  0
 30 14  1  0
 28 23  1  0
  1 37  1  0
  1 38  1  0
  1 39  1  0
  2 40  1  0
  2 41  1  0
  5 42  1  0
  5 43  1  0
  5 44  1  0
  6 45  1  0
  9 46  1  0
 10 47  1  0
 12 48  1  1
 13 49  1  0
 13 50  1  0
 13 51  1  0
 15 52  1  0
 15 53  1  0
 16 54  1  0
 16 55  1  0
 18 56  1  0
 18 57  1  0
 20 58  1  0
 20 59  1  0
 20 60  1  0
 21 61  1  0
 21 62  1  0
 21 63  1  0
 22 64  1  0
 24 65  1  0
 25 66  1  0
 26 67  1  0
 27 68  1  0
 28 69  1  0
 32 70  1  0
 33 71  1  0
 34 72  1  0
M  END
$$$$
