@<TRIPOS>MOLECULE
*****
 72 75 0 0 0
SMALL
GASTEIGER

@<TRIPOS>ATOM
      1 C           9.5560    0.1014    0.8137 C.3     1  UNL1       -0.0470
      2 C           8.8856    1.0971   -0.0803 C.3     1  UNL1        0.0235
      3 N           7.5138    0.6896   -0.3086 N.ar    1  UNL1       -0.3129
      4 C           6.5634    1.1275    0.5345 C.ar    1  UNL1        0.0195
      5 C           6.9463    1.9972    1.6493 C.3     1  UNL1       -0.0241
      6 C           5.2274    0.7615    0.3554 C.ar    1  UNL1       -0.0346
      7 C           4.8721   -0.0631   -0.7030 C.ar    1  UNL1       -0.0111
      8 C           3.4851   -0.4611   -0.9139 C.ar    1  UNL1       -0.0176
      9 C           2.6554   -0.6139    0.1767 C.ar    1  UNL1       -0.0537
     10 C           1.3258   -0.9904    0.0471 C.ar    1  UNL1       -0.0562
     11 C           0.8156   -1.2203   -1.2235 C.ar    1  UNL1       -0.0271
     12 C          -0.6324   -1.6252   -1.3089 C.3     1  UNL1        0.0515
     13 C          -1.0423   -1.4202   -2.7476 C.3     1  UNL1       -0.0421
     14 N          -1.4185   -0.7826   -0.4461 N.am    1  UNL1       -0.2605
     15 C          -1.4948    0.6505   -0.5659 C.3     1  UNL1        0.0224
     16 C          -2.8727    1.1972   -0.4602 C.3     1  UNL1        0.0076
     17 C          -3.8566    0.3222    0.2953 C.3     1  UNL1        0.1440
     18 C          -4.6393   -0.4459   -0.7046 C.3     1  UNL1        0.0199
     19 C          -5.6583   -1.3767   -0.2219 C.3     1  UNL1        0.0645
     20 C          -6.3136   -2.0291   -1.4491 C.3     1  UNL1       -0.0362
     21 C          -5.2068   -2.4981    0.6517 C.3     1  UNL1       -0.0362
     22 O          -6.6710   -0.7040    0.4507 O.3     1  UNL1       -0.3890
     23 C          -4.6777    1.2902    1.0871 C.ar    1  UNL1       -0.0040
     24 C          -4.3011    1.5254    2.3886 C.ar    1  UNL1       -0.0548
     25 C          -4.9989    2.4184    3.1999 C.ar    1  UNL1       -0.0614
     26 C          -6.0861    3.0592    2.6439 C.ar    1  UNL1       -0.0617
     27 C          -6.4550    2.8158    1.3369 C.ar    1  UNL1       -0.0614
     28 C          -5.7502    1.9179    0.5269 C.ar    1  UNL1       -0.0548
     29 O          -3.1359   -0.5412    1.1850 O.3     1  UNL1       -0.4387
     30 C          -2.1827   -1.3597    0.6067 C.2     1  UNL1        0.4042
     31 O          -1.9526   -2.5489    0.9413 O.2     1  UNL1       -0.2262
     32 C           1.6116   -1.0775   -2.3251 C.ar    1  UNL1       -0.0562
     33 C           2.9443   -0.6977   -2.1589 C.ar    1  UNL1       -0.0537
     34 C           5.8918   -0.4804   -1.5346 C.ar    1  UNL1        0.0107
     35 C           7.2144   -0.1083   -1.3438 C.ar    1  UNL1        0.2520
     36 O           8.1285   -0.5051   -2.1210 O.2     1  UNL1       -0.2677
     37 H           8.8939   -0.7720    0.9858 H       1  UNL1        0.0247
     38 H          10.5088   -0.2941    0.3926 H       1  UNL1        0.0247
     39 H           9.8136    0.5166    1.8157 H       1  UNL1        0.0247
     40 H           9.4234    1.0643   -1.0677 H       1  UNL1        0.0490
     41 H           8.9472    2.1079    0.3513 H       1  UNL1        0.0490
     42 H           7.2910    2.9843    1.2771 H       1  UNL1        0.0292
     43 H           6.0478    2.2158    2.2930 H       1  UNL1        0.0292
     44 H           7.7106    1.5606    2.3152 H       1  UNL1        0.0292
     45 H           4.4595    1.1113    1.0317 H       1  UNL1        0.0641
     46 H           3.0207   -0.4430    1.1756 H       1  UNL1        0.0624
     47 H           0.6792   -1.1088    0.9055 H       1  UNL1        0.0621
     48 H          -0.7395   -2.6694   -1.0151 H       1  UNL1        0.0549
     49 H          -2.1287   -1.4585   -2.9099 H       1  UNL1        0.0251
     50 H          -0.5926   -2.2121   -3.4013 H       1  UNL1        0.0251
     51 H          -0.6612   -0.4585   -3.1515 H       1  UNL1        0.0251
     52 H          -1.0003    1.0391   -1.4808 H       1  UNL1        0.0467
     53 H          -0.8913    1.0682    0.2875 H       1  UNL1        0.0467
     54 H          -2.7935    2.2252   -0.0461 H       1  UNL1        0.0322
     55 H          -3.2314    1.3634   -1.5209 H       1  UNL1        0.0322
     56 H          -5.0730    0.2780   -1.4301 H       1  UNL1        0.0335
     57 H          -3.8677   -0.9951   -1.3292 H       1  UNL1        0.0335
     58 H          -5.6713   -2.8949   -1.7074 H       1  UNL1        0.0257
     59 H          -6.4470   -1.3065   -2.2610 H       1  UNL1        0.0257
     60 H          -7.2757   -2.4399   -1.0729 H       1  UNL1        0.0257
     61 H          -6.0896   -3.1561    0.9103 H       1  UNL1        0.0257
     62 H          -4.7628   -2.2169    1.5997 H       1  UNL1        0.0257
     63 H          -4.4999   -3.1854    0.1396 H       1  UNL1        0.0257
     64 H          -7.5643   -0.9012    0.1308 H       1  UNL1        0.2101
     65 H          -3.4475    1.0345    2.8537 H       1  UNL1        0.0622
     66 H          -4.7313    2.6273    4.2252 H       1  UNL1        0.0618
     67 H          -6.6377    3.7620    3.2787 H       1  UNL1        0.0618
     68 H          -7.3116    3.3185    0.8943 H       1  UNL1        0.0618
     69 H          -6.0808    1.7716   -0.4923 H       1  UNL1        0.0622
     70 H           1.2064   -1.2592   -3.3175 H       1  UNL1        0.0621
     71 H           3.5758   -0.5834   -3.0191 H       1  UNL1        0.0624
     72 H           5.6303   -1.1159   -2.3535 H       1  UNL1        0.0678
@<TRIPOS>BOND
     1     1     2    1
     2     2     3    1
     3     3     4   ar
     4     4     5    1
     5     4     6   ar
     6     6     7   ar
     7     7     8    1
     8     8     9   ar
     9     9    10   ar
    10    10    11   ar
    11    11    12    1
    12    12    13    1
    13    12    14    1
    14    14    15    1
    15    15    16    1
    16    16    17    1
    17    17    18    1
    18    18    19    1
    19    19    20    1
    20    19    21    1
    21    19    22    1
    22    17    23    1
    23    23    24   ar
    24    24    25   ar
    25    25    26   ar
    26    26    27   ar
    27    27    28   ar
    28    17    29    1
    29    29    30    1
    30    30    31    2
    31    11    32   ar
    32    32    33   ar
    33     7    34   ar
    34    34    35   ar
    35    35    36    2
    36    35     3   ar
    37    33     8   ar
    38    30    14   am
    39    28    23   ar
    40     1    37    1
    41     1    38    1
    42     1    39    1
    43     2    40    1
    44     2    41    1
    45     5    42    1
    46     5    43    1
    47     5    44    1
    48     6    45    1
    49     9    46    1
    50    10    47    1
    51    12    48    1
    52    13    49    1
    53    13    50    1
    54    13    51    1
    55    15    52    1
    56    15    53    1
    57    16    54    1
    58    16    55    1
    59    18    56    1
    60    18    57    1
    61    20    58    1
    62    20    59    1
    63    20    60    1
    64    21    61    1
    65    21    62    1
    66    21    63    1
    67    22    64    1
    68    24    65    1
    69    25    66    1
    70    26    67    1
    71    27    68    1
    72    28    69    1
    73    32    70    1
    74    33    71    1
    75    34    72    1
