@<TRIPOS>MOLECULE
*****
 45 48 0 0 0
SMALL
GASTEIGER

@<TRIPOS>ATOM
      1 O          -1.2145    0.2919    1.0278 O.2     1  UNL1       -0.2748
      2 C          -1.6081   -0.4524    0.0938 C.2     1  UNL1        0.2271
      3 C          -0.7531   -1.5866   -0.3964 C.3     1  UNL1        0.0826
      4 C           0.4955   -1.6015    0.3908 C.ar    1  UNL1        0.1206
      5 N           1.5625   -0.8821   -0.0502 N.ar    1  UNL1       -0.2186
      6 C           2.7113   -0.8763    0.6444 C.ar    1  UNL1        0.1285
      7 N           3.8126   -0.1313    0.1853 N.pl3   1  UNL1       -0.3106
      8 C           3.8285    0.6599   -1.0084 C.3     1  UNL1        0.0370
      9 C           5.1849    0.5036   -1.6692 C.3     1  UNL1        0.0634
     10 O           6.2224    0.8875   -0.8621 O.3     1  UNL1       -0.3767
     11 C           5.8628    1.0452    0.4693 C.3     1  UNL1        0.0634
     12 C           5.0535   -0.1504    0.9742 C.3     1  UNL1        0.0370
     13 C           2.7723   -1.6145    1.8045 C.ar    1  UNL1        0.0427
     14 C           1.6739   -2.3542    2.2571 C.ar    1  UNL1        0.2533
     15 O           1.7942   -3.0084    3.3259 O.2     1  UNL1       -0.2677
     16 N           0.5446   -2.3288    1.5271 N.ar    1  UNL1       -0.3104
     17 N          -2.8616   -0.2278   -0.5046 N.am    1  UNL1       -0.2704
     18 C          -3.4584   -0.9748   -1.5714 C.3     1  UNL1        0.0239
     19 C          -4.9364   -0.7438   -1.3826 C.3     1  UNL1       -0.0083
     20 C          -5.0202    0.5351   -0.6543 C.ar    1  UNL1       -0.0062
     21 C          -6.0585    1.4332   -0.4144 C.ar    1  UNL1        0.0460
     22 CL         -7.6161    1.0129   -1.1017 Cl      1  UNL1       -0.0832
     23 C          -5.9136    2.5871    0.3099 C.ar    1  UNL1       -0.0430
     24 C          -4.6632    2.8497    0.8174 C.ar    1  UNL1       -0.0586
     25 C          -3.6231    1.9823    0.5961 C.ar    1  UNL1       -0.0399
     26 C          -3.7718    0.8030   -0.1444 C.ar    1  UNL1        0.0409
     27 H          -0.5557   -1.4989   -1.4828 H       1  UNL1        0.0438
     28 H          -1.2759   -2.5505   -0.2233 H       1  UNL1        0.0438
     29 H           3.0839    0.2792   -1.7665 H       1  UNL1        0.0487
     30 H           3.6274    1.7228   -0.8272 H       1  UNL1        0.0487
     31 H           5.3137   -0.5656   -1.9784 H       1  UNL1        0.0575
     32 H           5.1843    1.1337   -2.5833 H       1  UNL1        0.0575
     33 H           5.1933    1.9326    0.5276 H       1  UNL1        0.0575
     34 H           6.7618    1.1757    1.0873 H       1  UNL1        0.0575
     35 H           5.5991   -1.0913    0.8643 H       1  UNL1        0.0487
     36 H           4.7728    0.1001    2.0166 H       1  UNL1        0.0487
     37 H           3.6978   -1.6019    2.3520 H       1  UNL1        0.0706
     38 H          -0.2915   -2.8746    1.8455 H       1  UNL1        0.1700
     39 H          -3.1389   -0.6126   -2.5830 H       1  UNL1        0.0472
     40 H          -3.1986   -2.0574   -1.5498 H       1  UNL1        0.0472
     41 H          -5.4603   -0.6258   -2.3703 H       1  UNL1        0.0330
     42 H          -5.3924   -1.5874   -0.8255 H       1  UNL1        0.0330
     43 H          -6.7738    3.2295    0.4484 H       1  UNL1        0.0632
     44 H          -4.5396    3.7560    1.3891 H       1  UNL1        0.0619
     45 H          -2.6281    2.1836    0.9953 H       1  UNL1        0.0636
@<TRIPOS>BOND
     1     1     2    2
     2     2     3    1
     3     3     4    1
     4     4     5   ar
     5     5     6   ar
     6     6     7    1
     7     7     8    1
     8     8     9    1
     9     9    10    1
    10    10    11    1
    11    11    12    1
    12     6    13   ar
    13    13    14   ar
    14    14    15    2
    15    14    16   ar
    16     2    17   am
    17    17    18    1
    18    18    19    1
    19    19    20    1
    20    20    21   ar
    21    21    22    1
    22    21    23   ar
    23    23    24   ar
    24    24    25   ar
    25    25    26   ar
    26    16     4   ar
    27    26    17    1
    28    12     7    1
    29    26    20   ar
    30     3    27    1
    31     3    28    1
    32     8    29    1
    33     8    30    1
    34     9    31    1
    35     9    32    1
    36    11    33    1
    37    11    34    1
    38    12    35    1
    39    12    36    1
    40    13    37    1
    41    16    38    1
    42    18    39    1
    43    18    40    1
    44    19    41    1
    45    19    42    1
    46    23    43    1
    47    24    44    1
    48    25    45    1
