@<TRIPOS>MOLECULE
*****
 56 60 0 0 0
SMALL
GASTEIGER

@<TRIPOS>ATOM
      1 C           6.2838   -0.0114   -0.6241 C.3     1  UNL1       -0.0134
      2 S           5.4722   -1.4990   -1.2998 S.3     1  UNL1       -0.1268
      3 C           4.4539   -2.1670    0.0373 C.ar    1  UNL1        0.0288
      4 C           5.0089   -3.0871    0.9005 C.ar    1  UNL1       -0.0465
      5 C           4.2338   -3.5959    1.9467 C.ar    1  UNL1       -0.0606
      6 C           2.9339   -3.1429    2.0619 C.ar    1  UNL1       -0.0599
      7 C           2.3815   -2.2154    1.1883 C.ar    1  UNL1       -0.0394
      8 C           3.1617   -1.7328    0.1719 C.ar    1  UNL1        0.0460
      9 N           2.6664   -0.7779   -0.7579 N.pl3   1  UNL1       -0.2967
     10 C           1.3704   -0.2301   -0.6685 C.ar    1  UNL1        0.1544
     11 N           1.1801    1.0373   -0.2804 N.ar    1  UNL1       -0.1970
     12 C          -0.0499    1.5765   -0.1656 C.ar    1  UNL1        0.2203
     13 N          -0.1478    2.9394    0.2324 N.pl3   1  UNL1       -0.2972
     14 C          -1.2334    3.3961    1.0792 C.3     1  UNL1        0.0274
     15 C          -1.6625    4.7965    0.8111 C.3     1  UNL1        0.0118
     16 N          -0.5801    5.7292    0.6938 N.3     1  UNL1       -0.3130
     17 C           0.7302    5.1301    0.6577 C.3     1  UNL1        0.0118
     18 C           0.8238    3.9253   -0.2171 C.3     1  UNL1        0.0274
     19 N          -1.1241    0.8264   -0.4483 N.ar    1  UNL1       -0.2092
     20 C          -1.0138   -0.4449   -0.8415 C.ar    1  UNL1        0.1357
     21 C          -2.1319   -1.2198   -1.1250 C.ar    1  UNL1        0.1484
     22 N          -3.3950   -0.6072   -1.0094 N.pl3   1  UNL1       -0.3270
     23 C          -4.5900   -1.3704   -1.2881 C.3     1  UNL1        0.0133
     24 C          -4.7169   -2.5543   -0.3364 C.3     1  UNL1       -0.0255
     25 C          -4.7936   -2.2557    1.1422 C.3     1  UNL1       -0.0485
     26 C          -6.0378   -2.6203    0.4297 C.3     1  UNL1       -0.0485
     27 N          -1.9313   -2.4868   -1.5018 N.ar    1  UNL1       -0.2187
     28 C          -0.7092   -3.0454   -1.6219 C.ar    1  UNL1        0.1190
     29 N           0.3542   -2.2779   -1.3437 N.ar    1  UNL1       -0.2303
     30 C           0.2568   -1.0021   -0.9589 C.ar    1  UNL1        0.1343
     31 H           7.2628   -0.3526   -0.1901 H       1  UNL1        0.0344
     32 H           6.4254    0.7730   -1.3971 H       1  UNL1        0.0344
     33 H           5.7085    0.3615    0.2465 H       1  UNL1        0.0344
     34 H           6.0250   -3.4328    0.8022 H       1  UNL1        0.0629
     35 H           4.6274   -4.3235    2.6464 H       1  UNL1        0.0618
     36 H           2.3128   -3.5173    2.8624 H       1  UNL1        0.0618
     37 H           1.3602   -1.8641    1.2801 H       1  UNL1        0.0636
     38 H           3.2610   -0.4278   -1.5689 H       1  UNL1        0.1537
     39 H          -2.0938    2.7153    0.9016 H       1  UNL1        0.0477
     40 H          -0.9463    3.3339    2.1612 H       1  UNL1        0.0477
     41 H          -2.3105    4.8998   -0.0993 H       1  UNL1        0.0439
     42 H          -2.2686    5.1292    1.7027 H       1  UNL1        0.0439
     43 H          -0.7504    6.4171   -0.0815 H       1  UNL1        0.1220
     44 H           1.0873    4.9827    1.6889 H       1  UNL1        0.0439
     45 H           1.4305    5.9010    0.2035 H       1  UNL1        0.0439
     46 H           0.4471    4.2425   -1.2300 H       1  UNL1        0.0477
     47 H           1.8598    3.5581   -0.2284 H       1  UNL1        0.0477
     48 H          -3.4725    0.3920   -0.7250 H       1  UNL1        0.1475
     49 H          -5.5075   -0.7370   -1.2286 H       1  UNL1        0.0464
     50 H          -4.4580   -1.8008   -2.3028 H       1  UNL1        0.0464
     51 H          -4.3549   -3.5293   -0.6977 H       1  UNL1        0.0316
     52 H          -4.3594   -3.0075    1.8189 H       1  UNL1        0.0269
     53 H          -4.5835   -1.1856    1.3987 H       1  UNL1        0.0269
     54 H          -6.4848   -3.6148    0.5971 H       1  UNL1        0.0269
     55 H          -6.8099   -1.8315    0.2137 H       1  UNL1        0.0269
     56 H          -0.6015   -4.0939   -1.9371 H       1  UNL1        0.1048
@<TRIPOS>BOND
     1     1     2    1
     2     2     3    1
     3     3     4   ar
     4     4     5   ar
     5     5     6   ar
     6     6     7   ar
     7     7     8   ar
     8     8     9    1
     9     9    10    1
    10    10    11   ar
    11    11    12   ar
    12    12    13    1
    13    13    14    1
    14    14    15    1
    15    15    16    1
    16    16    17    1
    17    17    18    1
    18    12    19   ar
    19    19    20   ar
    20    20    21   ar
    21    21    22    1
    22    22    23    1
    23    23    24    1
    24    24    25    1
    25    25    26    1
    26    21    27   ar
    27    27    28   ar
    28    28    29   ar
    29    29    30   ar
    30     8     3   ar
    31    30    10   ar
    32    18    13    1
    33    30    20   ar
    34    26    24    1
    35     1    31    1
    36     1    32    1
    37     1    33    1
    38     4    34    1
    39     5    35    1
    40     6    36    1
    41     7    37    1
    42     9    38    1
    43    14    39    1
    44    14    40    1
    45    15    41    1
    46    15    42    1
    47    16    43    1
    48    17    44    1
    49    17    45    1
    50    18    46    1
    51    18    47    1
    52    22    48    1
    53    23    49    1
    54    23    50    1
    55    24    51    1
    56    25    52    1
    57    25    53    1
    58    26    54    1
    59    26    55    1
    60    28    56    1
