@<TRIPOS>MOLECULE
*****
 56 61 0 0 0
SMALL
GASTEIGER

@<TRIPOS>ATOM
      1 C          -6.7061    2.5063    4.6550 C.3     1  UNL1       -0.0306
      2 C          -6.6095    1.6842    3.3680 C.3     1  UNL1        0.0900
      3 O          -5.3108    1.9009    2.8471 O.3     1  UNL1       -0.4604
      4 C          -4.8822    1.2996    1.6744 C.2     1  UNL1        0.3575
      5 O          -5.7069    0.5502    1.0957 O.2     1  UNL1       -0.2432
      6 C          -3.5441    1.5319    1.1510 C.ar    1  UNL1        0.1461
      7 N          -2.5658    2.2983    1.6544 N.ar    1  UNL1       -0.3538
      8 C          -1.5011    2.2240    0.8532 C.ar    1  UNL1        0.0084
      9 C          -1.7658    1.3713   -0.2414 C.ar    1  UNL1        0.0068
     10 C          -3.0442    0.9519   -0.0347 C.ar    1  UNL1        0.0674
     11 N          -3.6592    0.0608   -0.9542 N.pl3   1  UNL1       -0.3154
     12 C          -2.8750   -0.3504   -2.0678 C.2     1  UNL1        0.0157
     13 C          -1.6488    0.0418   -2.2788 C.2     1  UNL1        0.0268
     14 C          -0.9334   -0.4647   -3.4872 C.2     1  UNL1        0.1617
     15 O          -0.1059    0.2467   -4.0980 O.2     1  UNL1       -0.2923
     16 C          -1.2110   -1.8377   -3.9697 C.3     1  UNL1        0.0106
     17 C          -2.4819   -2.3816   -3.3297 C.3     1  UNL1       -0.0409
     18 C          -3.4790   -1.2889   -3.0895 C.3     1  UNL1       -0.0137
     19 C          -0.9642    0.9598   -1.3769 C.3     1  UNL1        0.0750
     20 C           0.3832    0.4783   -0.9881 C.ar    1  UNL1        0.1184
     21 C           1.4818    1.2765   -0.8516 C.ar    1  UNL1       -0.0186
     22 C           2.5173    0.4418   -0.4823 C.ar    1  UNL1       -0.0091
     23 C           1.9728   -0.8210   -0.4185 C.ar    1  UNL1        0.1689
     24 S           2.8825   -2.3177    0.0218 S.3     1  UNL1       -0.0142
     25 C           4.5938   -1.9120    0.3625 C.ar    1  UNL1        0.1749
     26 N           5.5295   -1.9164   -0.5945 N.ar    1  UNL1       -0.2215
     27 C           6.7146   -1.5746   -0.0512 C.ar    1  UNL1        0.0930
     28 C           7.9949   -1.4221   -0.5597 C.ar    1  UNL1       -0.0313
     29 C           9.0577   -1.0553    0.2319 C.ar    1  UNL1       -0.0214
     30 C           8.8187   -0.8373    1.5722 C.ar    1  UNL1        0.1606
     31 F           9.8781   -0.4767    2.3358 F       1  UNL1       -0.2024
     32 C           7.5456   -0.9898    2.0737 C.ar    1  UNL1        0.1837
     33 F           7.3298   -0.7721    3.3893 F       1  UNL1       -0.2002
     34 C           6.4576   -1.3607    1.2865 C.ar    1  UNL1        0.1054
     35 N           5.1638   -1.5711    1.5159 N.ar    1  UNL1       -0.3302
     36 O           0.6890   -0.7602   -0.7286 O.2     1  UNL1       -0.4522
     37 H          -7.6390    2.2151    5.1812 H       1  UNL1        0.0262
     38 H          -5.8228    2.3350    5.3037 H       1  UNL1        0.0262
     39 H          -6.7601    3.5807    4.4410 H       1  UNL1        0.0262
     40 H          -6.8498    0.6339    3.5435 H       1  UNL1        0.0695
     41 H          -7.3967    2.0968    2.6921 H       1  UNL1        0.0695
     42 H          -2.6889    2.8385    2.5367 H       1  UNL1        0.1656
     43 H          -0.5509    2.7155    0.9668 H       1  UNL1        0.0810
     44 H          -4.6312   -0.2579   -0.7977 H       1  UNL1        0.1519
     45 H          -1.2367   -1.9162   -5.0742 H       1  UNL1        0.0345
     46 H          -0.3825   -2.4874   -3.6192 H       1  UNL1        0.0345
     47 H          -2.9361   -3.1187   -4.0176 H       1  UNL1        0.0273
     48 H          -2.2742   -2.8643   -2.3523 H       1  UNL1        0.0273
     49 H          -4.3723   -1.7307   -2.6449 H       1  UNL1        0.0326
     50 H          -3.7097   -0.7215   -4.0091 H       1  UNL1        0.0326
     51 H          -0.8101    1.9183   -1.9949 H       1  UNL1        0.0479
     52 H           1.5840    2.3567   -0.9916 H       1  UNL1        0.0652
     53 H           3.5651    0.7168   -0.2785 H       1  UNL1        0.0661
     54 H           8.1536   -1.5968   -1.6010 H       1  UNL1        0.0640
     55 H          10.0620   -0.9418   -0.1985 H       1  UNL1        0.0648
     56 H           4.6802   -1.4861    2.4287 H       1  UNL1        0.1680
@<TRIPOS>BOND
     1     1     2    1
     2     2     3    1
     3     3     4    1
     4     4     5    2
     5     4     6    1
     6     6     7   ar
     7     7     8   ar
     8     8     9   ar
     9     9    10   ar
    10    10    11    1
    11    11    12    1
    12    12    13    2
    13    13    14    1
    14    14    15    2
    15    14    16    1
    16    16    17    1
    17    17    18    1
    18    13    19    1
    19    19    20    1
    20    20    21   ar
    21    21    22   ar
    22    22    23   ar
    23    23    24    1
    24    24    25    1
    25    25    26   ar
    26    26    27   ar
    27    27    28   ar
    28    28    29   ar
    29    29    30   ar
    30    30    31    1
    31    30    32   ar
    32    32    33    1
    33    32    34   ar
    34    34    35   ar
    35    23    36   ar
    36    10     6   ar
    37    18    12    1
    38    36    20   ar
    39    19     9    1
    40    35    25   ar
    41    34    27   ar
    42     1    37    1
    43     1    38    1
    44     1    39    1
    45     2    40    1
    46     2    41    1
    47     7    42    1
    48     8    43    1
    49    11    44    1
    50    16    45    1
    51    16    46    1
    52    17    47    1
    53    17    48    1
    54    18    49    1
    55    18    50    1
    56    19    51    1
    57    21    52    1
    58    22    53    1
    59    28    54    1
    60    29    55    1
    61    35    56    1
