
     RDKit          3D

 37 41  0  0  0  0  0  0  0  0999 V2000
   -1.3134   -0.4417   -2.4167 O   0  0  0  0  0  0  0  0  0  0  0  0
   -1.6756   -0.1783   -1.2577 C   0  0  0  0  0  0  0  0  0  0  0  0
   -1.0123    0.8861   -0.5318 C   0  0  0  0  0  0  0  0  0  0  0  0
   -1.5629    2.0826   -0.2926 N   0  0  0  0  0  0  0  0  0  0  0  0
   -0.6675    2.8107    0.3979 C   0  0  0  0  0  0  0  0  0  0  0  0
   -0.7572    4.1143    0.8856 C   0  0  0  0  0  0  0  0  0  0  0  0
    0.3114    4.6305    1.5679 C   0  0  0  0  0  0  0  0  0  0  0  0
    1.4242    3.8418    1.7425 C   0  0  0  0  0  0  0  0  0  0  0  0
    1.4395    2.6069    1.2500 N   0  0  0  0  0  0  0  0  0  0  0  0
    0.4280    2.0571    0.5792 N   0  0  0  0  0  0  0  0  0  0  0  0
    0.2498    0.8398    0.0089 C   0  0  0  0  0  0  0  0  0  0  0  0
    1.2235   -0.2318    0.0111 C   0  0  0  0  0  0  0  0  0  0  0  0
    0.8498   -1.5364    0.3015 C   0  0  0  0  0  0  0  0  0  0  0  0
    1.8233   -2.5427    0.2932 C   0  0  0  0  0  0  0  0  0  0  0  0
    3.1379   -2.2527    0.0018 C   0  0  0  0  0  0  0  0  0  0  0  0
    4.2878   -2.9714   -0.0885 N   0  0  0  0  0  0  0  0  0  0  0  0
    5.3112   -2.1597   -0.4151 C   0  0  0  0  0  0  0  0  0  0  0  0
    4.8115   -0.9607   -0.5260 O   0  0  0  0  0  0  0  0  0  0  0  0
    3.5177   -0.9588   -0.2881 C   0  0  0  0  0  0  0  0  0  0  0  0
    2.5362    0.0211   -0.2739 C   0  0  0  0  0  0  0  0  0  0  0  0
   -2.7201   -0.9136   -0.6656 N   0  0  0  0  0  0  0  0  0  0  0  0
   -3.4319   -0.9380    0.6185 C   0  0  0  0  0  0  0  0  0  0  0  0
   -3.7179   -2.4015    0.3564 C   0  0  0  0  0  0  0  0  0  0  0  0
   -3.5849   -2.0105   -1.0858 C   0  0  0  0  0  0  0  0  0  0  0  0
   -1.6391    4.7166    0.7409 H   0  0  0  0  0  0  0  0  0  0  0  0
    0.3182    5.6316    1.9756 H   0  0  0  0  0  0  0  0  0  0  0  0
    2.2724    4.2431    2.2802 H   0  0  0  0  0  0  0  0  0  0  0  0
   -0.1812   -1.7759    0.5346 H   0  0  0  0  0  0  0  0  0  0  0  0
    1.5477   -3.5664    0.5188 H   0  0  0  0  0  0  0  0  0  0  0  0
    6.3624   -2.4524   -0.5595 H   0  0  0  0  0  0  0  0  0  0  0  0
    2.8700    1.0256   -0.5076 H   0  0  0  0  0  0  0  0  0  0  0  0
   -4.3709   -0.3555    0.6268 H   0  0  0  0  0  0  0  0  0  0  0  0
   -2.7451   -0.7507    1.4748 H   0  0  0  0  0  0  0  0  0  0  0  0
   -4.7530   -2.7021    0.6516 H   0  0  0  0  0  0  0  0  0  0  0  0
   -2.9203   -3.0895    0.7196 H   0  0  0  0  0  0  0  0  0  0  0  0
   -4.5520   -1.5752   -1.4582 H   0  0  0  0  0  0  0  0  0  0  0  0
   -3.1169   -2.7422   -1.7581 H   0  0  0  0  0  0  0  0  0  0  0  0
  1  2  2  0
  2  3  1  0
  3  4  1  0
  4  5  2  0
  5  6  1  0
  6  7  2  0
  7  8  1  0
  8  9  2  0
  9 10  1  0
 10 11  1  0
 11 12  1  0
 12 13  2  0
 13 14  1  0
 14 15  2  0
 15 16  1  0
 16 17  2  0
 17 18  1  0
 18 19  1  0
 19 20  2  0
  2 21  1  0
 21 22  1  0
 22 23  1  0
 23 24  1  0
 11  3  2  0
 20 12  1  0
 24 21  1  0
 10  5  1  0
 19 15  1  0
  6 25  1  0
  7 26  1  0
  8 27  1  0
 13 28  1  0
 14 29  1  0
 17 30  1  0
 20 31  1  0
 22 32  1  0
 22 33  1  0
 23 34  1  0
 23 35  1  0
 24 36  1  0
 24 37  1  0
M  END
$$$$
