@<TRIPOS>MOLECULE
*****
 37 41 0 0 0
SMALL
GASTEIGER

@<TRIPOS>ATOM
      1 O          -1.3134   -0.4417   -2.4167 O.2     1  UNL1       -0.2682
      2 C          -1.6756   -0.1783   -1.2577 C.2     1  UNL1        0.2671
      3 C          -1.0123    0.8861   -0.5318 C.ar    1  UNL1        0.1538
      4 N          -1.5629    2.0826   -0.2926 N.ar    1  UNL1       -0.2211
      5 C          -0.6675    2.8107    0.3979 C.ar    1  UNL1        0.1556
      6 C          -0.7572    4.1143    0.8856 C.ar    1  UNL1       -0.0159
      7 C           0.3114    4.6305    1.5679 C.ar    1  UNL1       -0.0384
      8 C           1.4242    3.8418    1.7425 C.ar    1  UNL1        0.0485
      9 N           1.4395    2.6069    1.2500 N.ar    1  UNL1       -0.1729
     10 N           0.4280    2.0571    0.5792 N.ar    1  UNL1       -0.2119
     11 C           0.2498    0.8398    0.0089 C.ar    1  UNL1        0.1053
     12 C           1.2235   -0.2318    0.0111 C.ar    1  UNL1        0.0063
     13 C           0.8498   -1.5364    0.3015 C.ar    1  UNL1       -0.0503
     14 C           1.8233   -2.5427    0.2932 C.ar    1  UNL1       -0.0320
     15 C           3.1379   -2.2527    0.0018 C.ar    1  UNL1        0.1093
     16 N           4.2878   -2.9714   -0.0885 N.ar    1  UNL1       -0.2161
     17 C           5.3112   -2.1597   -0.4151 C.ar    1  UNL1        0.1831
     18 O           4.8115   -0.9607   -0.5260 O.2     1  UNL1       -0.4424
     19 C           3.5177   -0.9588   -0.2881 C.ar    1  UNL1        0.1557
     20 C           2.5362    0.0211   -0.2739 C.ar    1  UNL1       -0.0079
     21 N          -2.7201   -0.9136   -0.6656 N.am    1  UNL1       -0.2961
     22 C          -3.4319   -0.9380    0.6185 C.3     1  UNL1        0.0164
     23 C          -3.7179   -2.4015    0.3564 C.3     1  UNL1       -0.0213
     24 C          -3.5849   -2.0105   -1.0858 C.3     1  UNL1        0.0164
     25 H          -1.6391    4.7166    0.7409 H       1  UNL1        0.0655
     26 H           0.3182    5.6316    1.9756 H       1  UNL1        0.0634
     27 H           2.2724    4.2431    2.2802 H       1  UNL1        0.0847
     28 H          -0.1812   -1.7759    0.5346 H       1  UNL1        0.0625
     29 H           1.5477   -3.5664    0.5188 H       1  UNL1        0.0640
     30 H           6.3624   -2.4524   -0.5595 H       1  UNL1        0.1255
     31 H           2.8700    1.0256   -0.5076 H       1  UNL1        0.0661
     32 H          -4.3709   -0.3555    0.6268 H       1  UNL1        0.0465
     33 H          -2.7451   -0.7507    1.4748 H       1  UNL1        0.0465
     34 H          -4.7530   -2.7021    0.6516 H       1  UNL1        0.0296
     35 H          -2.9203   -3.0895    0.7196 H       1  UNL1        0.0296
     36 H          -4.5520   -1.5752   -1.4582 H       1  UNL1        0.0465
     37 H          -3.1169   -2.7422   -1.7581 H       1  UNL1        0.0465
@<TRIPOS>BOND
     1     1     2    2
     2     2     3    1
     3     3     4   ar
     4     4     5   ar
     5     5     6   ar
     6     6     7   ar
     7     7     8   ar
     8     8     9   ar
     9     9    10   ar
    10    10    11   ar
    11    11    12    1
    12    12    13   ar
    13    13    14   ar
    14    14    15   ar
    15    15    16   ar
    16    16    17   ar
    17    17    18   ar
    18    18    19   ar
    19    19    20   ar
    20     2    21   am
    21    21    22    1
    22    22    23    1
    23    23    24    1
    24    11     3   ar
    25    20    12   ar
    26    24    21    1
    27    10     5   ar
    28    19    15   ar
    29     6    25    1
    30     7    26    1
    31     8    27    1
    32    13    28    1
    33    14    29    1
    34    17    30    1
    35    20    31    1
    36    22    32    1
    37    22    33    1
    38    23    34    1
    39    23    35    1
    40    24    36    1
    41    24    37    1
