
     RDKit          3D

 43 45  0  0  0  0  0  0  0  0999 V2000
   -5.0767   -0.8756    0.1739 C   0  0  1  0  0  0  0  0  0  0  0  0
   -3.5881   -1.1976    0.2519 C   0  0  0  0  0  0  0  0  0  0  0  0
   -2.8981    0.0172    0.1219 O   0  0  0  0  0  0  0  0  0  0  0  0
   -1.5181    0.0970    0.1481 C   0  0  0  0  0  0  0  0  0  0  0  0
   -0.9246    1.3462    0.0114 C   0  0  0  0  0  0  0  0  0  0  0  0
    0.4479    1.4585    0.0335 C   0  0  0  0  0  0  0  0  0  0  0  0
    1.2411    0.3358    0.1908 C   0  0  0  0  0  0  0  0  0  0  0  0
    2.6810    0.3975    0.2207 N   0  0  0  0  0  0  0  0  0  0  0  0
    3.4947   -0.7861    0.3860 C   0  0  0  0  0  0  0  0  0  0  0  0
    4.9248   -0.4382    0.3808 C   0  0  0  0  0  0  0  0  0  0  0  0
    5.5387   -0.4482   -0.8664 C   0  0  0  0  0  0  0  0  0  0  0  0
    6.8686   -0.1476   -1.0500 C   0  0  0  0  0  0  0  0  0  0  0  0
    7.6443    0.1813    0.0421 C   0  0  0  0  0  0  0  0  0  0  0  0
    7.0296    0.1906    1.2849 C   0  0  0  0  0  0  0  0  0  0  0  0
    5.7048   -0.1111    1.4504 C   0  0  0  0  0  0  0  0  0  0  0  0
    0.6572   -0.9072    0.3270 C   0  0  0  0  0  0  0  0  0  0  0  0
   -0.7054   -1.0236    0.3057 C   0  0  0  0  0  0  0  0  0  0  0  0
   -5.4588    0.1186    1.2372 C   0  0  0  0  0  0  0  0  0  0  0  0
   -6.3701    1.0505    0.4270 C   0  0  0  0  0  0  0  0  0  0  0  0
   -5.4765    1.1754   -0.8147 C   0  0  0  0  0  0  0  0  0  0  0  0
   -5.3294   -0.2579   -1.1109 N   0  0  0  0  0  0  0  0  0  0  0  0
   -5.6678   -1.7842    0.2933 H   0  0  0  0  0  0  0  0  0  0  0  0
   -3.4387   -1.5990    1.2921 H   0  0  0  0  0  0  0  0  0  0  0  0
   -3.3262   -1.9588   -0.4838 H   0  0  0  0  0  0  0  0  0  0  0  0
   -1.4927    2.2730   -0.1162 H   0  0  0  0  0  0  0  0  0  0  0  0
    0.9533    2.4131   -0.0696 H   0  0  0  0  0  0  0  0  0  0  0  0
    3.0987    1.3532    0.1153 H   0  0  0  0  0  0  0  0  0  0  0  0
    3.2616   -1.5022   -0.4097 H   0  0  0  0  0  0  0  0  0  0  0  0
    3.1999   -1.2756    1.3570 H   0  0  0  0  0  0  0  0  0  0  0  0
    4.9900   -0.6978   -1.7708 H   0  0  0  0  0  0  0  0  0  0  0  0
    7.3530   -0.1541   -2.0233 H   0  0  0  0  0  0  0  0  0  0  0  0
    8.6877    0.4169   -0.1036 H   0  0  0  0  0  0  0  0  0  0  0  0
    7.6389    0.4490    2.1433 H   0  0  0  0  0  0  0  0  0  0  0  0
    5.1985   -0.1112    2.4139 H   0  0  0  0  0  0  0  0  0  0  0  0
    1.3006   -1.7791    0.4499 H   0  0  0  0  0  0  0  0  0  0  0  0
   -1.2108   -1.9763    0.4086 H   0  0  0  0  0  0  0  0  0  0  0  0
   -4.5888    0.7316    1.5074 H   0  0  0  0  0  0  0  0  0  0  0  0
   -6.0051   -0.3296    2.0847 H   0  0  0  0  0  0  0  0  0  0  0  0
   -7.2629    0.4541    0.1610 H   0  0  0  0  0  0  0  0  0  0  0  0
   -6.5623    2.0017    0.9172 H   0  0  0  0  0  0  0  0  0  0  0  0
   -4.5136    1.6054   -0.4552 H   0  0  0  0  0  0  0  0  0  0  0  0
   -5.9422    1.7205   -1.6297 H   0  0  0  0  0  0  0  0  0  0  0  0
   -4.5578   -0.4260   -1.7913 H   0  0  0  0  0  0  0  0  0  0  0  0
  1  2  1  0
  2  3  1  0
  3  4  1  0
  4  5  2  0
  5  6  1  0
  6  7  2  0
  7  8  1  0
  8  9  1  0
  9 10  1  0
 10 11  2  0
 11 12  1  0
 12 13  2  0
 13 14  1  0
 14 15  2  0
  7 16  1  0
 16 17  2  0
  1 18  1  0
 18 19  1  0
 19 20  1  0
 20 21  1  0
 21  1  1  0
 17  4  1  0
 15 10  1  0
  1 22  1  1
  2 23  1  0
  2 24  1  0
  5 25  1  0
  6 26  1  0
  8 27  1  0
  9 28  1  0
  9 29  1  0
 11 30  1  0
 12 31  1  0
 13 32  1  0
 14 33  1  0
 15 34  1  0
 16 35  1  0
 17 36  1  0
 18 37  1  0
 18 38  1  0
 19 39  1  0
 19 40  1  0
 20 41  1  0
 20 42  1  0
 21 43  1  0
M  END
$$$$
