@<TRIPOS>MOLECULE
*****
 43 45 0 0 0
SMALL
GASTEIGER

@<TRIPOS>ATOM
      1 C          -5.0767   -0.8756    0.1739 C.3     1  UNL1        0.0419
      2 C          -3.5881   -1.1976    0.2519 C.3     1  UNL1        0.1049
      3 O          -2.8981    0.0172    0.1219 O.3     1  UNL1       -0.4904
      4 C          -1.5181    0.0970    0.1481 C.ar    1  UNL1        0.1207
      5 C          -0.9246    1.3462    0.0114 C.ar    1  UNL1       -0.0182
      6 C           0.4479    1.4585    0.0335 C.ar    1  UNL1       -0.0374
      7 C           1.2411    0.3358    0.1908 C.ar    1  UNL1        0.0276
      8 N           2.6810    0.3975    0.2207 N.pl3   1  UNL1       -0.3397
      9 C           3.4947   -0.7861    0.3860 C.3     1  UNL1        0.0344
     10 C           4.9248   -0.4382    0.3808 C.ar    1  UNL1       -0.0304
     11 C           5.5387   -0.4482   -0.8664 C.ar    1  UNL1       -0.0571
     12 C           6.8686   -0.1476   -1.0500 C.ar    1  UNL1       -0.0615
     13 C           7.6443    0.1813    0.0421 C.ar    1  UNL1       -0.0617
     14 C           7.0296    0.1906    1.2849 C.ar    1  UNL1       -0.0615
     15 C           5.7048   -0.1111    1.4504 C.ar    1  UNL1       -0.0571
     16 C           0.6572   -0.9072    0.3270 C.ar    1  UNL1       -0.0374
     17 C          -0.7054   -1.0236    0.3057 C.ar    1  UNL1       -0.0182
     18 C          -5.4588    0.1186    1.2372 C.3     1  UNL1       -0.0332
     19 C          -6.3701    1.0505    0.4270 C.3     1  UNL1       -0.0389
     20 C          -5.4765    1.1754   -0.8147 C.3     1  UNL1       -0.0037
     21 N          -5.3294   -0.2579   -1.1109 N.3     1  UNL1       -0.3102
     22 H          -5.6678   -1.7842    0.2933 H       1  UNL1        0.0494
     23 H          -3.4387   -1.5990    1.2921 H       1  UNL1        0.0712
     24 H          -3.3262   -1.9588   -0.4838 H       1  UNL1        0.0712
     25 H          -1.4927    2.2730   -0.1162 H       1  UNL1        0.0655
     26 H           0.9533    2.4131   -0.0696 H       1  UNL1        0.0637
     27 H           3.0987    1.3532    0.1153 H       1  UNL1        0.1464
     28 H           3.2616   -1.5022   -0.4097 H       1  UNL1        0.0511
     29 H           3.1999   -1.2756    1.3570 H       1  UNL1        0.0511
     30 H           4.9900   -0.6978   -1.7708 H       1  UNL1        0.0621
     31 H           7.3530   -0.1541   -2.0233 H       1  UNL1        0.0618
     32 H           8.6877    0.4169   -0.1036 H       1  UNL1        0.0618
     33 H           7.6389    0.4490    2.1433 H       1  UNL1        0.0618
     34 H           5.1985   -0.1112    2.4139 H       1  UNL1        0.0621
     35 H           1.3006   -1.7791    0.4499 H       1  UNL1        0.0637
     36 H          -1.2108   -1.9763    0.4086 H       1  UNL1        0.0655
     37 H          -4.5888    0.7316    1.5074 H       1  UNL1        0.0282
     38 H          -6.0051   -0.3296    2.0847 H       1  UNL1        0.0282
     39 H          -7.2629    0.4541    0.1610 H       1  UNL1        0.0278
     40 H          -6.5623    2.0017    0.9172 H       1  UNL1        0.0278
     41 H          -4.5136    1.6054   -0.4552 H       1  UNL1        0.0424
     42 H          -5.9422    1.7205   -1.6297 H       1  UNL1        0.0424
     43 H          -4.5578   -0.4260   -1.7913 H       1  UNL1        0.1223
@<TRIPOS>BOND
     1     1     2    1
     2     2     3    1
     3     3     4    1
     4     4     5   ar
     5     5     6   ar
     6     6     7   ar
     7     7     8    1
     8     8     9    1
     9     9    10    1
    10    10    11   ar
    11    11    12   ar
    12    12    13   ar
    13    13    14   ar
    14    14    15   ar
    15     7    16   ar
    16    16    17   ar
    17     1    18    1
    18    18    19    1
    19    19    20    1
    20    20    21    1
    21    21     1    1
    22    17     4   ar
    23    15    10   ar
    24     1    22    1
    25     2    23    1
    26     2    24    1
    27     5    25    1
    28     6    26    1
    29     8    27    1
    30     9    28    1
    31     9    29    1
    32    11    30    1
    33    12    31    1
    34    13    32    1
    35    14    33    1
    36    15    34    1
    37    16    35    1
    38    17    36    1
    39    18    37    1
    40    18    38    1
    41    19    39    1
    42    19    40    1
    43    20    41    1
    44    20    42    1
    45    21    43    1
