@<TRIPOS>MOLECULE
*****
 47 50 0 0 0
SMALL
GASTEIGER

@<TRIPOS>ATOM
      1 C           5.9992    1.6653   -3.2983 C.3     1  UNL1       -0.0045
      2 C           5.4936    0.9920   -2.0590 C.ar    1  UNL1        0.1287
      3 N           6.3834    0.5931   -1.1404 N.ar    1  UNL1       -0.2174
      4 C           6.0303   -0.0201    0.0049 C.ar    1  UNL1        0.1274
      5 N           6.9676   -0.4449    0.9816 N.pl3   1  UNL1       -0.3426
      6 C           4.6847   -0.2372    0.2217 C.ar    1  UNL1        0.0400
      7 C           4.2476   -0.8615    1.3758 C.ar    1  UNL1       -0.0486
      8 C           2.8889   -1.0546    1.5433 C.ar    1  UNL1       -0.0512
      9 C           1.9791   -0.6478    0.6063 C.ar    1  UNL1        0.0110
     10 C           0.5573   -0.9052    0.8899 C.ar    1  UNL1        0.1319
     11 N          -0.1452   -1.3519    1.6556 N.ar    1  UNL1       -0.1620
     12 N          -1.4316   -1.4668    1.6814 N.ar    1  UNL1       -0.2435
     13 C          -2.1790   -2.0889    2.7865 C.3     1  UNL1        0.0329
     14 C          -2.0764   -0.9758    0.6204 C.ar    1  UNL1        0.1869
     15 N          -3.2760   -0.8819    0.2511 N.2     1  UNL1       -0.2564
     16 C          -3.5980   -0.2615   -1.0133 C.3     1  UNL1        0.0536
     17 C          -3.4515    1.2314   -0.9873 C.3     1  UNL1       -0.0305
     18 C          -4.3954    1.9323   -0.0825 C.3     1  UNL1       -0.0511
     19 C          -5.7964    1.4134   -0.1042 C.3     1  UNL1       -0.0529
     20 C          -5.7929   -0.0948    0.0004 C.3     1  UNL1       -0.0511
     21 C          -5.0700   -0.5931   -1.2595 C.3     1  UNL1       -0.0305
     22 S          -0.7140   -0.3448   -0.4038 S.2     1  UNL1       -0.0286
     23 C           2.4219   -0.0348   -0.5249 C.ar    1  UNL1       -0.0258
     24 C           3.7639    0.1758   -0.7292 C.ar    1  UNL1        0.0769
     25 N           4.1864    0.7890   -1.8639 N.ar    1  UNL1       -0.2322
     26 H           5.3948    1.3708   -4.1733 H       1  UNL1        0.0308
     27 H           7.0746    1.4294   -3.4353 H       1  UNL1        0.0308
     28 H           5.8851    2.7537   -3.1297 H       1  UNL1        0.0308
     29 H           7.0870    0.0222    1.8844 H       1  UNL1        0.1437
     30 H           7.5505   -1.2769    0.7411 H       1  UNL1        0.1437
     31 H           4.9756   -1.1773    2.1064 H       1  UNL1        0.0625
     32 H           2.5312   -1.5416    2.4411 H       1  UNL1        0.0624
     33 H          -1.6045   -2.8265    3.3471 H       1  UNL1        0.0473
     34 H          -2.6052   -1.2916    3.4602 H       1  UNL1        0.0473
     35 H          -3.0657   -2.6166    2.3777 H       1  UNL1        0.0473
     36 H          -3.0316   -0.6582   -1.8624 H       1  UNL1        0.0545
     37 H          -3.6085    1.5929   -2.0293 H       1  UNL1        0.0286
     38 H          -2.4181    1.5272   -0.7173 H       1  UNL1        0.0286
     39 H          -3.9622    1.9886    0.9457 H       1  UNL1        0.0266
     40 H          -4.4454    3.0098   -0.4195 H       1  UNL1        0.0266
     41 H          -6.2361    1.6614   -1.0922 H       1  UNL1        0.0265
     42 H          -6.3443    1.8457    0.7468 H       1  UNL1        0.0265
     43 H          -6.7931   -0.5217    0.0950 H       1  UNL1        0.0266
     44 H          -5.1361   -0.3441    0.8751 H       1  UNL1        0.0266
     45 H          -5.4811   -0.0820   -2.1266 H       1  UNL1        0.0286
     46 H          -5.1520   -1.6850   -1.2639 H       1  UNL1        0.0286
     47 H           1.7077    0.2931   -1.2771 H       1  UNL1        0.0646
@<TRIPOS>BOND
     1     1     2    1
     2     2     3   ar
     3     3     4   ar
     4     4     5    1
     5     4     6   ar
     6     6     7   ar
     7     7     8   ar
     8     8     9   ar
     9     9    10    1
    10    10    11   ar
    11    11    12   ar
    12    12    13    1
    13    12    14   ar
    14    14    15    2
    15    15    16    1
    16    16    17    1
    17    17    18    1
    18    18    19    1
    19    19    20    1
    20    20    21    1
    21    14    22   ar
    22     9    23   ar
    23    23    24   ar
    24    24    25   ar
    25    25     2   ar
    26    24     6   ar
    27    22    10   ar
    28    21    16    1
    29     1    26    1
    30     1    27    1
    31     1    28    1
    32     5    29    1
    33     5    30    1
    34     7    31    1
    35     8    32    1
    36    13    33    1
    37    13    34    1
    38    13    35    1
    39    16    36    1
    40    17    37    1
    41    17    38    1
    42    18    39    1
    43    18    40    1
    44    19    41    1
    45    19    42    1
    46    20    43    1
    47    20    44    1
    48    21    45    1
    49    21    46    1
    50    23    47    1
