
     RDKit          3D

 47 50  0  0  0  0  0  0  0  0999 V2000
    5.9992    1.6653   -3.2983 C   0  0  0  0  0  0  0  0  0  0  0  0
    5.4936    0.9920   -2.0590 C   0  0  0  0  0  0  0  0  0  0  0  0
    6.3834    0.5931   -1.1404 N   0  0  0  0  0  0  0  0  0  0  0  0
    6.0303   -0.0201    0.0049 C   0  0  0  0  0  0  0  0  0  0  0  0
    6.9676   -0.4449    0.9816 N   0  0  0  0  0  0  0  0  0  0  0  0
    4.6847   -0.2372    0.2217 C   0  0  0  0  0  0  0  0  0  0  0  0
    4.2476   -0.8615    1.3758 C   0  0  0  0  0  0  0  0  0  0  0  0
    2.8889   -1.0546    1.5433 C   0  0  0  0  0  0  0  0  0  0  0  0
    1.9791   -0.6478    0.6063 C   0  0  0  0  0  0  0  0  0  0  0  0
    0.5573   -0.9052    0.8899 C   0  0  0  0  0  0  0  0  0  0  0  0
   -0.1452   -1.3519    1.6556 N   0  0  0  0  0  0  0  0  0  0  0  0
   -1.4316   -1.4668    1.6814 N   0  0  0  0  0  0  0  0  0  0  0  0
   -2.1790   -2.0889    2.7865 C   0  0  0  0  0  0  0  0  0  0  0  0
   -2.0764   -0.9758    0.6204 C   0  0  0  0  0  0  0  0  0  0  0  0
   -3.2760   -0.8819    0.2511 N   0  0  0  0  0  0  0  0  0  0  0  0
   -3.5980   -0.2615   -1.0133 C   0  0  0  0  0  0  0  0  0  0  0  0
   -3.4515    1.2314   -0.9873 C   0  0  0  0  0  0  0  0  0  0  0  0
   -4.3954    1.9323   -0.0825 C   0  0  0  0  0  0  0  0  0  0  0  0
   -5.7964    1.4134   -0.1042 C   0  0  0  0  0  0  0  0  0  0  0  0
   -5.7929   -0.0948    0.0004 C   0  0  0  0  0  0  0  0  0  0  0  0
   -5.0700   -0.5931   -1.2595 C   0  0  0  0  0  0  0  0  0  0  0  0
   -0.7140   -0.3448   -0.4038 S   0  0  0  0  0  0  0  0  0  0  0  0
    2.4219   -0.0348   -0.5249 C   0  0  0  0  0  0  0  0  0  0  0  0
    3.7639    0.1758   -0.7292 C   0  0  0  0  0  0  0  0  0  0  0  0
    4.1864    0.7890   -1.8639 N   0  0  0  0  0  0  0  0  0  0  0  0
    5.3948    1.3708   -4.1733 H   0  0  0  0  0  0  0  0  0  0  0  0
    7.0746    1.4294   -3.4353 H   0  0  0  0  0  0  0  0  0  0  0  0
    5.8851    2.7537   -3.1297 H   0  0  0  0  0  0  0  0  0  0  0  0
    7.0870    0.0222    1.8844 H   0  0  0  0  0  0  0  0  0  0  0  0
    7.5505   -1.2769    0.7411 H   0  0  0  0  0  0  0  0  0  0  0  0
    4.9756   -1.1773    2.1064 H   0  0  0  0  0  0  0  0  0  0  0  0
    2.5312   -1.5416    2.4411 H   0  0  0  0  0  0  0  0  0  0  0  0
   -1.6045   -2.8265    3.3471 H   0  0  0  0  0  0  0  0  0  0  0  0
   -2.6052   -1.2916    3.4602 H   0  0  0  0  0  0  0  0  0  0  0  0
   -3.0657   -2.6166    2.3777 H   0  0  0  0  0  0  0  0  0  0  0  0
   -3.0316   -0.6582   -1.8624 H   0  0  0  0  0  0  0  0  0  0  0  0
   -3.6085    1.5929   -2.0293 H   0  0  0  0  0  0  0  0  0  0  0  0
   -2.4181    1.5272   -0.7173 H   0  0  0  0  0  0  0  0  0  0  0  0
   -3.9622    1.9886    0.9457 H   0  0  0  0  0  0  0  0  0  0  0  0
   -4.4454    3.0098   -0.4195 H   0  0  0  0  0  0  0  0  0  0  0  0
   -6.2361    1.6614   -1.0922 H   0  0  0  0  0  0  0  0  0  0  0  0
   -6.3443    1.8457    0.7468 H   0  0  0  0  0  0  0  0  0  0  0  0
   -6.7931   -0.5217    0.0950 H   0  0  0  0  0  0  0  0  0  0  0  0
   -5.1361   -0.3441    0.8751 H   0  0  0  0  0  0  0  0  0  0  0  0
   -5.4811   -0.0820   -2.1266 H   0  0  0  0  0  0  0  0  0  0  0  0
   -5.1520   -1.6850   -1.2639 H   0  0  0  0  0  0  0  0  0  0  0  0
    1.7077    0.2931   -1.2771 H   0  0  0  0  0  0  0  0  0  0  0  0
  1  2  1  0
  2  3  2  0
  3  4  1  0
  4  5  1  0
  4  6  2  0
  6  7  1  0
  7  8  2  0
  8  9  1  0
  9 10  1  0
 10 11  2  0
 11 12  1  0
 12 13  1  0
 12 14  1  0
 14 15  2  0
 15 16  1  0
 16 17  1  0
 17 18  1  0
 18 19  1  0
 19 20  1  0
 20 21  1  0
 14 22  1  0
  9 23  2  0
 23 24  1  0
 24 25  2  0
 25  2  1  0
 24  6  1  0
 22 10  1  0
 21 16  1  0
  1 26  1  0
  1 27  1  0
  1 28  1  0
  5 29  1  0
  5 30  1  0
  7 31  1  0
  8 32  1  0
 13 33  1  0
 13 34  1  0
 13 35  1  0
 16 36  1  0
 17 37  1  0
 17 38  1  0
 18 39  1  0
 18 40  1  0
 19 41  1  0
 19 42  1  0
 20 43  1  0
 20 44  1  0
 21 45  1  0
 21 46  1  0
 23 47  1  0
M  END
$$$$
