@<TRIPOS>MOLECULE
*****
 86 88 0 0 0
SMALL
GASTEIGER

@<TRIPOS>ATOM
      1 C           0.9715   -3.2804   -5.0963 C.3     1  UNL1       -0.0653
      2 C           1.5264   -3.4575   -3.6987 C.3     1  UNL1       -0.0558
      3 C           0.4465   -3.9845   -2.7823 C.3     1  UNL1       -0.0512
      4 C          -0.7446   -3.1006   -2.6600 C.3     1  UNL1       -0.0260
      5 C          -0.4119   -1.7453   -2.1051 C.3     1  UNL1        0.0994
      6 N           0.1633   -1.8026   -0.7930 N.am    1  UNL1       -0.3025
      7 C           1.4273   -1.2677   -0.4331 C.2     1  UNL1        0.2342
      8 O           2.1132   -0.6851   -1.3180 O.2     1  UNL1       -0.2738
      9 C           1.9768   -1.3588    0.9139 C.3     1  UNL1        0.1023
     10 C           1.2296   -0.7666    2.0226 C.3     1  UNL1       -0.0243
     11 C           2.0400    0.4235    2.5001 C.3     1  UNL1       -0.0350
     12 C           3.0525    0.6103    1.3741 C.3     1  UNL1        0.0156
     13 N           3.3162   -0.7343    0.9840 N.am    1  UNL1       -0.2884
     14 C           4.4965   -1.3957    0.7039 C.2     1  UNL1        0.2362
     15 O           4.3802   -2.6421    0.3551 O.2     1  UNL1       -0.2736
     16 C           5.8884   -0.9319    0.7274 C.3     1  UNL1        0.0968
     17 C           6.7803   -1.8667    1.5202 C.3     1  UNL1       -0.0381
     18 N           6.0654    0.3947    1.2418 N.am    1  UNL1       -0.3026
     19 C           6.3875    1.4679    0.3439 C.2     1  UNL1        0.2420
     20 O           6.5078    1.2224   -0.8901 O.2     1  UNL1       -0.2735
     21 C           6.5704    2.8377    0.8897 C.3     1  UNL1        0.1942
     22 N           6.3774    2.8173    2.3278 N.2     1  UNL1        0.0857
     23 N           7.3105    2.4859    3.0866 N.2     1  UNL1       -0.0143
     24 N           8.2517    1.9200    3.6462 N.2     1  UNL1       -0.3282
     25 C          -1.5887   -0.8205   -2.1924 C.2     1  UNL1        0.2339
     26 O          -2.1667   -0.7173   -3.3161 O.2     1  UNL1       -0.2738
     27 N          -2.0947   -0.0619   -1.1195 N.am    1  UNL1       -0.3040
     28 C          -3.2515    0.8262   -1.2667 C.3     1  UNL1        0.0847
     29 C          -4.4219    0.3311   -0.5038 C.3     1  UNL1       -0.0247
     30 C          -4.2603    0.1636    0.9724 C.3     1  UNL1       -0.0390
     31 C          -5.6007   -0.3642    1.4696 C.3     1  UNL1       -0.0501
     32 C          -5.6487   -0.4324    2.9732 C.3     1  UNL1       -0.0528
     33 C          -5.4730    0.9934    3.4982 C.3     1  UNL1       -0.0530
     34 C          -4.0685    1.4070    3.1350 C.3     1  UNL1       -0.0528
     35 C          -3.8950    1.4517    1.6201 C.3     1  UNL1       -0.0501
     36 C          -2.8846    2.2365   -1.1355 C.2     1  UNL1        0.1868
     37 O          -1.7283    2.5648   -0.8299 O.2     1  UNL1       -0.2923
     38 C          -3.8183    3.3580   -1.3504 C.3     1  UNL1        0.1492
     39 C          -3.4797    4.7130   -0.7534 C.3     1  UNL1       -0.0266
     40 C          -4.5017    3.3720   -2.7215 C.3     1  UNL1        0.0847
     41 O          -5.1854    3.1389   -1.5419 O.3     1  UNL1       -0.3605
     42 H           0.2232   -4.0552   -5.2857 H       1  UNL1        0.0230
     43 H           1.8252   -3.3305   -5.7997 H       1  UNL1        0.0230
     44 H           0.5028   -2.3017   -5.2347 H       1  UNL1        0.0230
     45 H           1.9535   -2.5236   -3.3156 H       1  UNL1        0.0263
     46 H           2.3017   -4.2497   -3.7696 H       1  UNL1        0.0263
     47 H           0.9412   -4.1842   -1.8048 H       1  UNL1        0.0266
     48 H           0.1676   -4.9886   -3.1951 H       1  UNL1        0.0266
     49 H          -1.4987   -3.6418   -2.0531 H       1  UNL1        0.0288
     50 H          -1.1886   -2.9882   -3.6746 H       1  UNL1        0.0288
     51 H           0.3355   -1.2877   -2.7943 H       1  UNL1        0.0594
     52 H          -0.3542   -2.2700    0.0083 H       1  UNL1        0.1495
     53 H           2.1019   -2.4660    1.1179 H       1  UNL1        0.0597
     54 H           0.1752   -0.4974    1.8313 H       1  UNL1        0.0288
     55 H           1.1998   -1.4670    2.8995 H       1  UNL1        0.0288
     56 H           1.4462    1.3202    2.6816 H       1  UNL1        0.0281
     57 H           2.6325    0.2058    3.4107 H       1  UNL1        0.0281
     58 H           3.8741    1.2261    1.7048 H       1  UNL1        0.0465
     59 H           2.5498    1.1763    0.5480 H       1  UNL1        0.0465
     60 H           6.2463   -0.9558   -0.3468 H       1  UNL1        0.0592
     61 H           7.4427   -1.3004    2.2088 H       1  UNL1        0.0252
     62 H           6.1921   -2.5838    2.1420 H       1  UNL1        0.0252
     63 H           7.4331   -2.4334    0.8454 H       1  UNL1        0.0252
     64 H           5.9886    0.6092    2.2703 H       1  UNL1        0.1495
     65 H           5.7987    3.5063    0.4130 H       1  UNL1        0.0676
     66 H           7.5713    3.1986    0.6144 H       1  UNL1        0.0676
     67 H          -1.6069   -0.1551   -0.1950 H       1  UNL1        0.1494
     68 H          -3.5578    0.7083   -2.3612 H       1  UNL1        0.0578
     69 H          -5.2635    1.0603   -0.6368 H       1  UNL1        0.0290
     70 H          -4.7561   -0.6234   -0.9952 H       1  UNL1        0.0290
     71 H          -3.5118   -0.6195    1.2439 H       1  UNL1        0.0301
     72 H          -6.4538    0.2294    1.1221 H       1  UNL1        0.0268
     73 H          -5.7224   -1.3939    1.0779 H       1  UNL1        0.0268
     74 H          -6.6523   -0.7589    3.2681 H       1  UNL1        0.0265
     75 H          -4.8784   -1.0796    3.4054 H       1  UNL1        0.0265
     76 H          -5.5915    1.0379    4.5857 H       1  UNL1        0.0265
     77 H          -6.1930    1.6675    3.0193 H       1  UNL1        0.0265
     78 H          -3.7677    2.3777    3.5269 H       1  UNL1        0.0265
     79 H          -3.3777    0.6424    3.5371 H       1  UNL1        0.0265
     80 H          -2.8130    1.6375    1.4753 H       1  UNL1        0.0268
     81 H          -4.4492    2.3085    1.2145 H       1  UNL1        0.0268
     82 H          -2.4038    4.9233   -0.9166 H       1  UNL1        0.0262
     83 H          -4.1011    5.4607   -1.2903 H       1  UNL1        0.0262
     84 H          -3.7900    4.7068    0.2952 H       1  UNL1        0.0262
     85 H          -4.6646    4.3312   -3.2198 H       1  UNL1        0.0593
     86 H          -4.3620    2.5017   -3.3770 H       1  UNL1        0.0593
@<TRIPOS>UNITY_ATOM_ATTR
23 1
charge 1
24 1
charge -1
@<TRIPOS>BOND
     1     1     2    1
     2     2     3    1
     3     3     4    1
     4     4     5    1
     5     5     6    1
     6     6     7   am
     7     7     8    2
     8     7     9    1
     9     9    10    1
    10    10    11    1
    11    11    12    1
    12    12    13    1
    13    13    14   am
    14    14    15    2
    15    14    16    1
    16    16    17    1
    17    16    18    1
    18    18    19   am
    19    19    20    2
    20    19    21    1
    21    21    22    1
    22    22    23    2
    23    23    24    2
    24     5    25    1
    25    25    26    2
    26    25    27   am
    27    27    28    1
    28    28    29    1
    29    29    30    1
    30    30    31    1
    31    31    32    1
    32    32    33    1
    33    33    34    1
    34    34    35    1
    35    28    36    1
    36    36    37    2
    37    36    38    1
    38    38    39    1
    39    38    40    1
    40    40    41    1
    41    13     9    1
    42    35    30    1
    43    41    38    1
    44     1    42    1
    45     1    43    1
    46     1    44    1
    47     2    45    1
    48     2    46    1
    49     3    47    1
    50     3    48    1
    51     4    49    1
    52     4    50    1
    53     5    51    1
    54     6    52    1
    55     9    53    1
    56    10    54    1
    57    10    55    1
    58    11    56    1
    59    11    57    1
    60    12    58    1
    61    12    59    1
    62    16    60    1
    63    17    61    1
    64    17    62    1
    65    17    63    1
    66    18    64    1
    67    21    65    1
    68    21    66    1
    69    27    67    1
    70    28    68    1
    71    29    69    1
    72    29    70    1
    73    30    71    1
    74    31    72    1
    75    31    73    1
    76    32    74    1
    77    32    75    1
    78    33    76    1
    79    33    77    1
    80    34    78    1
    81    34    79    1
    82    35    80    1
    83    35    81    1
    84    39    82    1
    85    39    83    1
    86    39    84    1
    87    40    85    1
    88    40    86    1
