@<TRIPOS>MOLECULE
*****
 38 41 0 0 0
SMALL
GASTEIGER

@<TRIPOS>ATOM
      1 N          -4.1091   -1.8667    3.2400 N.1     1  UNL1       -0.1892
      2 C          -3.7724   -1.9310    2.1181 C.1     1  UNL1        0.1208
      3 C          -3.3711   -2.0012    0.7421 C.ar    1  UNL1        0.1618
      4 C          -3.9901   -2.8332   -0.1985 C.ar    1  UNL1        0.0659
      5 N          -3.3608   -2.6403   -1.3720 N.ar    1  UNL1       -0.2333
      6 C          -2.3845   -1.7272   -1.1896 C.ar    1  UNL1        0.1555
      7 C          -1.4374   -1.1491   -2.0183 C.ar    1  UNL1       -0.0153
      8 C          -0.5259   -0.2021   -1.5421 C.ar    1  UNL1       -0.0290
      9 C          -0.5824    0.1534   -0.2193 C.ar    1  UNL1        0.1103
     10 C           0.3438    1.1275    0.3174 C.ar    1  UNL1        0.0968
     11 C           1.6853    0.9291    0.4964 C.ar    1  UNL1        0.0982
     12 C           2.5321   -0.2239    0.2230 C.ar    1  UNL1        0.0025
     13 C           2.8870   -0.6425   -1.0323 C.ar    1  UNL1       -0.0525
     14 C           3.6886   -1.7465   -1.2245 C.ar    1  UNL1       -0.0611
     15 C           4.1433   -2.4447   -0.1311 C.ar    1  UNL1       -0.0617
     16 C           3.8069   -2.0529    1.1402 C.ar    1  UNL1       -0.0611
     17 C           3.0034   -0.9452    1.3050 C.ar    1  UNL1       -0.0525
     18 N           2.1562    2.0894    1.0194 N.ar    1  UNL1       -0.2351
     19 C           1.1497    2.9619    1.1556 C.ar    1  UNL1        0.0973
     20 N           0.0421    2.3680    0.7245 N.ar    1  UNL1       -0.3229
     21 C          -1.2915    2.9235    0.6802 C.3     1  UNL1        0.0852
     22 C          -1.5815    3.6283   -0.6210 C.3     1  UNL1        0.2569
     23 F          -0.7439    4.6701   -0.8807 F       1  UNL1       -0.2073
     24 F          -2.8676    4.1279   -0.5445 F       1  UNL1       -0.2073
     25 N          -1.5275   -0.4363    0.5656 N.ar    1  UNL1       -0.1623
     26 N          -2.3855   -1.3282    0.1146 N.ar    1  UNL1       -0.2023
     27 H          -4.8229   -3.5012    0.0067 H       1  UNL1        0.0859
     28 H          -1.3778   -1.4189   -3.0684 H       1  UNL1        0.0655
     29 H           0.2078    0.2524   -2.1825 H       1  UNL1        0.0641
     30 H           2.5338   -0.0894   -1.8986 H       1  UNL1        0.0624
     31 H           3.9716   -2.0806   -2.2217 H       1  UNL1        0.0618
     32 H           4.7810   -3.3235   -0.2867 H       1  UNL1        0.0618
     33 H           4.1633   -2.6015    2.0035 H       1  UNL1        0.0618
     34 H           2.7124   -0.5999    2.3028 H       1  UNL1        0.0624
     35 H           1.2818    3.9751    1.5592 H       1  UNL1        0.1029
     36 H          -2.0295    2.1063    0.7851 H       1  UNL1        0.0548
     37 H          -1.4049    3.5985    1.5605 H       1  UNL1        0.0548
     38 H          -1.5235    2.8747   -1.4282 H       1  UNL1        0.1037
@<TRIPOS>BOND
     1     1     2    3
     2     2     3    1
     3     3     4   ar
     4     4     5   ar
     5     5     6   ar
     6     6     7   ar
     7     7     8   ar
     8     8     9   ar
     9     9    10    1
    10    10    11   ar
    11    11    12    1
    12    12    13   ar
    13    13    14   ar
    14    14    15   ar
    15    15    16   ar
    16    16    17   ar
    17    11    18   ar
    18    18    19   ar
    19    19    20   ar
    20    20    21    1
    21    21    22    1
    22    22    23    1
    23    22    24    1
    24     9    25   ar
    25    25    26   ar
    26    26     3   ar
    27    26     6   ar
    28    20    10   ar
    29    17    12   ar
    30     4    27    1
    31     7    28    1
    32     8    29    1
    33    13    30    1
    34    14    31    1
    35    15    32    1
    36    16    33    1
    37    17    34    1
    38    19    35    1
    39    21    36    1
    40    21    37    1
    41    22    38    1
