@<TRIPOS>MOLECULE
*****
 35 35 0 0 0
SMALL
GASTEIGER

@<TRIPOS>ATOM
      1 C          -2.6250    1.2266   -0.6944 C.3     1  UNL1       -0.0473
      2 C          -2.5579    0.2292    0.4207 C.3     1  UNL1        0.0108
      3 C          -2.9485    0.9436    1.6852 C.3     1  UNL1       -0.0473
      4 C          -3.6040   -0.8586    0.1799 C.3     1  UNL1       -0.0473
      5 N          -1.2440   -0.3244    0.5773 N.3     1  UNL1       -0.3085
      6 C          -0.7301   -1.0148   -0.5607 C.3     1  UNL1        0.0266
      7 C           0.6540   -1.5940   -0.3762 C.3     1  UNL1        0.0928
      8 O           0.7578   -2.5112    0.6398 O.3     1  UNL1       -0.3859
      9 C           1.6861   -0.5460   -0.2833 C.ar    1  UNL1       -0.0111
     10 C           2.9369   -1.1102   -0.0093 C.ar    1  UNL1       -0.0143
     11 C           4.0785   -0.3170    0.1257 C.ar    1  UNL1        0.1207
     12 O           5.3310   -0.8120    0.3939 O.3     1  UNL1       -0.5066
     13 C           3.9460    1.0521   -0.0185 C.ar    1  UNL1        0.0213
     14 C           2.7074    1.6015   -0.2891 C.ar    1  UNL1        0.1207
     15 O           2.4469    2.9667   -0.4559 O.3     1  UNL1       -0.5066
     16 C           1.5850    0.8111   -0.4209 C.ar    1  UNL1       -0.0143
     17 H          -1.7003    1.8073   -0.8605 H       1  UNL1        0.0247
     18 H          -3.4157    2.0091   -0.5103 H       1  UNL1        0.0247
     19 H          -2.8906    0.7016   -1.6555 H       1  UNL1        0.0247
     20 H          -2.3926    0.6163    2.5860 H       1  UNL1        0.0247
     21 H          -2.8318    2.0591    1.5734 H       1  UNL1        0.0247
     22 H          -4.0274    0.7934    1.9007 H       1  UNL1        0.0247
     23 H          -3.2573   -1.8317    0.5695 H       1  UNL1        0.0247
     24 H          -4.5797   -0.5259    0.6067 H       1  UNL1        0.0247
     25 H          -3.7609   -0.9003   -0.9305 H       1  UNL1        0.0247
     26 H          -1.0820   -0.7969    1.4702 H       1  UNL1        0.1225
     27 H          -1.4624   -1.7738   -0.8980 H       1  UNL1        0.0453
     28 H          -0.6350   -0.3162   -1.4348 H       1  UNL1        0.0453
     29 H           0.8684   -2.1473   -1.3308 H       1  UNL1        0.0656
     30 H           1.3168   -2.0988    1.3507 H       1  UNL1        0.2103
     31 H           3.1687   -2.1711    0.1256 H       1  UNL1        0.0658
     32 H           5.6844   -1.6893    0.0879 H       1  UNL1        0.2921
     33 H           4.7730    1.7426    0.0691 H       1  UNL1        0.0691
     34 H           3.2118    3.6394   -0.4897 H       1  UNL1        0.2921
     35 H           0.5926    1.1401   -0.6279 H       1  UNL1        0.0658
@<TRIPOS>BOND
     1     1     2    1
     2     2     3    1
     3     2     4    1
     4     2     5    1
     5     5     6    1
     6     6     7    1
     7     7     8    1
     8     7     9    1
     9     9    10   ar
    10    10    11   ar
    11    11    12    1
    12    11    13   ar
    13    13    14   ar
    14    14    15    1
    15    14    16   ar
    16    16     9   ar
    17     1    17    1
    18     1    18    1
    19     1    19    1
    20     3    20    1
    21     3    21    1
    22     3    22    1
    23     4    23    1
    24     4    24    1
    25     4    25    1
    26     5    26    1
    27     6    27    1
    28     6    28    1
    29     7    29    1
    30     8    30    1
    31    10    31    1
    32    12    32    1
    33    13    33    1
    34    15    34    1
    35    16    35    1
