
     RDKit          3D

 35 35  0  0  0  0  0  0  0  0999 V2000
   -2.6250    1.2266   -0.6944 C   0  0  0  0  0  0  0  0  0  0  0  0
   -2.5579    0.2292    0.4207 C   0  0  0  0  0  0  0  0  0  0  0  0
   -2.9485    0.9436    1.6852 C   0  0  0  0  0  0  0  0  0  0  0  0
   -3.6040   -0.8586    0.1799 C   0  0  0  0  0  0  0  0  0  0  0  0
   -1.2440   -0.3244    0.5773 N   0  0  0  0  0  0  0  0  0  0  0  0
   -0.7301   -1.0148   -0.5607 C   0  0  0  0  0  0  0  0  0  0  0  0
    0.6540   -1.5940   -0.3762 C   0  0  0  0  0  0  0  0  0  0  0  0
    0.7578   -2.5112    0.6398 O   0  0  0  0  0  0  0  0  0  0  0  0
    1.6861   -0.5460   -0.2833 C   0  0  0  0  0  0  0  0  0  0  0  0
    2.9369   -1.1102   -0.0093 C   0  0  0  0  0  0  0  0  0  0  0  0
    4.0785   -0.3170    0.1257 C   0  0  0  0  0  0  0  0  0  0  0  0
    5.3310   -0.8120    0.3939 O   0  0  0  0  0  0  0  0  0  0  0  0
    3.9460    1.0521   -0.0185 C   0  0  0  0  0  0  0  0  0  0  0  0
    2.7074    1.6015   -0.2891 C   0  0  0  0  0  0  0  0  0  0  0  0
    2.4469    2.9667   -0.4559 O   0  0  0  0  0  0  0  0  0  0  0  0
    1.5850    0.8111   -0.4209 C   0  0  0  0  0  0  0  0  0  0  0  0
   -1.7003    1.8073   -0.8605 H   0  0  0  0  0  0  0  0  0  0  0  0
   -3.4157    2.0091   -0.5103 H   0  0  0  0  0  0  0  0  0  0  0  0
   -2.8906    0.7016   -1.6555 H   0  0  0  0  0  0  0  0  0  0  0  0
   -2.3926    0.6163    2.5860 H   0  0  0  0  0  0  0  0  0  0  0  0
   -2.8318    2.0591    1.5734 H   0  0  0  0  0  0  0  0  0  0  0  0
   -4.0274    0.7934    1.9007 H   0  0  0  0  0  0  0  0  0  0  0  0
   -3.2573   -1.8317    0.5695 H   0  0  0  0  0  0  0  0  0  0  0  0
   -4.5797   -0.5259    0.6067 H   0  0  0  0  0  0  0  0  0  0  0  0
   -3.7609   -0.9003   -0.9305 H   0  0  0  0  0  0  0  0  0  0  0  0
   -1.0820   -0.7969    1.4702 H   0  0  0  0  0  0  0  0  0  0  0  0
   -1.4624   -1.7738   -0.8980 H   0  0  0  0  0  0  0  0  0  0  0  0
   -0.6350   -0.3162   -1.4348 H   0  0  0  0  0  0  0  0  0  0  0  0
    0.8684   -2.1473   -1.3308 H   0  0  0  0  0  0  0  0  0  0  0  0
    1.3168   -2.0988    1.3507 H   0  0  0  0  0  0  0  0  0  0  0  0
    3.1687   -2.1711    0.1256 H   0  0  0  0  0  0  0  0  0  0  0  0
    5.6844   -1.6893    0.0879 H   0  0  0  0  0  0  0  0  0  0  0  0
    4.7730    1.7426    0.0691 H   0  0  0  0  0  0  0  0  0  0  0  0
    3.2118    3.6394   -0.4897 H   0  0  0  0  0  0  0  0  0  0  0  0
    0.5926    1.1401   -0.6279 H   0  0  0  0  0  0  0  0  0  0  0  0
  1  2  1  0
  2  3  1  0
  2  4  1  0
  2  5  1  0
  5  6  1  0
  6  7  1  0
  7  8  1  0
  7  9  1  0
  9 10  2  0
 10 11  1  0
 11 12  1  0
 11 13  2  0
 13 14  1  0
 14 15  1  0
 14 16  2  0
 16  9  1  0
  1 17  1  0
  1 18  1  0
  1 19  1  0
  3 20  1  0
  3 21  1  0
  3 22  1  0
  4 23  1  0
  4 24  1  0
  4 25  1  0
  5 26  1  0
  6 27  1  0
  6 28  1  0
  7 29  1  0
  8 30  1  0
 10 31  1  0
 12 32  1  0
 13 33  1  0
 15 34  1  0
 16 35  1  0
M  END
$$$$
