@<TRIPOS>MOLECULE
*****
 61 68 0 0 0
SMALL
GASTEIGER

@<TRIPOS>ATOM
      1 C          -4.8326   -0.7659    1.5513 C.3     1  UNL1       -0.0155
      2 N          -3.4451   -1.0302    1.4994 N.3     1  UNL1       -0.3136
      3 C          -2.8260   -1.1295    0.2059 C.3     1  UNL1        0.0423
      4 C          -1.5173   -1.8613    0.4691 C.3     1  UNL1        0.0107
      5 C          -0.7500   -1.9740   -0.8291 C.3     1  UNL1        0.1402
      6 O          -0.9652   -1.0328   -1.7199 O.3     1  UNL1       -0.3282
      7 C          -1.3616    0.2585   -1.3419 C.3     1  UNL1        0.1741
      8 C          -1.7377    0.8695   -2.7196 C.3     1  UNL1       -0.0136
      9 C          -2.5926    0.1524   -0.5273 C.3     1  UNL1        0.1214
     10 O          -2.8759    1.2059    0.2888 O.3     1  UNL1       -0.3735
     11 C          -3.9568    1.9811   -0.0236 C.3     1  UNL1        0.0371
     12 N          -0.2311    0.9796   -0.8007 N.ar    1  UNL1       -0.3070
     13 C          -0.0800    2.3049   -0.7672 C.ar    1  UNL1        0.0527
     14 C          -0.8581    3.3751   -1.1417 C.ar    1  UNL1       -0.0375
     15 C          -0.4610    4.6873   -1.0083 C.ar    1  UNL1       -0.0598
     16 C           0.7688    5.0005   -0.4794 C.ar    1  UNL1       -0.0611
     17 C           1.5708    3.9698   -0.0964 C.ar    1  UNL1       -0.0520
     18 C           1.1713    2.6518   -0.2306 C.ar    1  UNL1        0.0081
     19 C           1.7826    1.4834    0.0627 C.ar    1  UNL1        0.0151
     20 C           3.0183    1.1445    0.5726 C.ar    1  UNL1       -0.0078
     21 C           3.4310   -0.1810    0.7494 C.ar    1  UNL1        0.0518
     22 C           2.5524   -1.1915    0.3957 C.ar    1  UNL1        0.0221
     23 C           2.6138   -2.5670    0.4421 C.ar    1  UNL1        0.0085
     24 C           3.5455   -3.4892    0.8319 C.ar    1  UNL1       -0.0520
     25 C           3.2946   -4.8421    0.7519 C.ar    1  UNL1       -0.0611
     26 C           2.0743   -5.2596    0.2668 C.ar    1  UNL1       -0.0598
     27 C           1.1197   -4.3498   -0.1321 C.ar    1  UNL1       -0.0375
     28 C           1.3824   -3.0053   -0.0472 C.ar    1  UNL1        0.0524
     29 N           0.6402   -1.9464   -0.3628 N.ar    1  UNL1       -0.3115
     30 C           1.3129   -0.8146   -0.1143 C.ar    1  UNL1        0.0774
     31 C           0.9360    0.4972   -0.2800 C.ar    1  UNL1        0.0772
     32 C           4.7583   -0.1906    1.2928 C.2     1  UNL1        0.2453
     33 O           5.5046   -1.1251    1.6038 O.2     1  UNL1       -0.2702
     34 N           5.1718    1.1645    1.4540 N.am    1  UNL1       -0.3072
     35 C           4.1268    2.0191    1.0240 C.3     1  UNL1        0.0385
     36 H          -5.4179   -1.5486    2.0980 H       1  UNL1        0.0388
     37 H          -5.0099    0.2377    1.9813 H       1  UNL1        0.0388
     38 H          -5.2282   -0.7638    0.5096 H       1  UNL1        0.0388
     39 H          -3.2183   -1.8280    2.1287 H       1  UNL1        0.1220
     40 H          -3.4500   -1.8687   -0.3798 H       1  UNL1        0.0489
     41 H          -0.9845   -1.3046    1.2468 H       1  UNL1        0.0325
     42 H          -1.7505   -2.8706    0.8518 H       1  UNL1        0.0325
     43 H          -0.9724   -2.9748   -1.2512 H       1  UNL1        0.0839
     44 H          -2.7640    1.3115   -2.6752 H       1  UNL1        0.0277
     45 H          -0.9567    1.5476   -3.0819 H       1  UNL1        0.0277
     46 H          -1.8461    0.0936   -3.5064 H       1  UNL1        0.0277
     47 H          -3.4451    0.1810   -1.3030 H       1  UNL1        0.0660
     48 H          -4.0066    2.7867    0.7671 H       1  UNL1        0.0524
     49 H          -4.9407    1.5074   -0.0467 H       1  UNL1        0.0524
     50 H          -3.8974    2.5525   -0.9731 H       1  UNL1        0.0524
     51 H          -1.8022    3.1772   -1.5633 H       1  UNL1        0.0638
     52 H          -1.1197    5.4958   -1.3219 H       1  UNL1        0.0618
     53 H           1.0520    6.0349   -0.3871 H       1  UNL1        0.0618
     54 H           2.5423    4.1899    0.3220 H       1  UNL1        0.0624
     55 H           4.4930   -3.2072    1.2087 H       1  UNL1        0.0624
     56 H           4.0337   -5.5900    1.0614 H       1  UNL1        0.0618
     57 H           1.8668   -6.3086    0.1996 H       1  UNL1        0.0618
     58 H           0.1493   -4.6642   -0.5181 H       1  UNL1        0.0638
     59 H           6.0914    1.4999    1.8266 H       1  UNL1        0.1493
     60 H           4.5152    2.6030    0.1451 H       1  UNL1        0.0512
     61 H           3.7812    2.7214    1.8206 H       1  UNL1        0.0512
@<TRIPOS>BOND
     1     1     2    1
     2     2     3    1
     3     3     4    1
     4     4     5    1
     5     5     6    1
     6     6     7    1
     7     7     8    1
     8     7     9    1
     9     9    10    1
    10    10    11    1
    11     7    12    1
    12    12    13   ar
    13    13    14   ar
    14    14    15   ar
    15    15    16   ar
    16    16    17   ar
    17    17    18   ar
    18    18    19   ar
    19    19    20   ar
    20    20    21   ar
    21    21    22   ar
    22    22    23   ar
    23    23    24   ar
    24    24    25   ar
    25    25    26   ar
    26    26    27   ar
    27    27    28   ar
    28    28    29   ar
    29    29    30   ar
    30    30    31   ar
    31    21    32    1
    32    32    33    2
    33    32    34   am
    34    34    35    1
    35     9     3    1
    36    31    12   ar
    37    29     5    1
    38    18    13   ar
    39    31    19   ar
    40    35    20    1
    41    30    22   ar
    42    28    23   ar
    43     1    36    1
    44     1    37    1
    45     1    38    1
    46     2    39    1
    47     3    40    1
    48     4    41    1
    49     4    42    1
    50     5    43    1
    51     8    44    1
    52     8    45    1
    53     8    46    1
    54     9    47    1
    55    11    48    1
    56    11    49    1
    57    11    50    1
    58    14    51    1
    59    15    52    1
    60    16    53    1
    61    17    54    1
    62    24    55    1
    63    25    56    1
    64    26    57    1
    65    27    58    1
    66    34    59    1
    67    35    60    1
    68    35    61    1
