@<TRIPOS>MOLECULE
*****
 18 17 0 0 0
SMALL
GASTEIGER

@<TRIPOS>ATOM
      1 N          -3.0889    0.5437    0.1429 N.3     1  UNL1       -0.3238
      2 C          -2.0596   -0.4249   -0.1991 C.3     1  UNL1        0.0524
      3 C          -0.7069    0.0039    0.2862 C.2     1  UNL1        0.1473
      4 O          -0.6650    1.0677    0.8781 O.2     1  UNL1       -0.2960
      5 C           0.3140   -1.0148   -0.0847 C.3     1  UNL1        0.0171
      6 C           1.6787   -0.5906    0.4006 C.3     1  UNL1        0.0515
      7 C           2.1105    0.7183   -0.1889 C.2     1  UNL1        0.3051
      8 O           3.3855    1.0764    0.2887 O.3     1  UNL1       -0.4806
      9 O           1.6364    1.5839   -0.9982 O.2     1  UNL1       -0.2510
     10 H          -3.8178    0.6028   -0.6131 H       1  UNL1        0.1186
     11 H          -2.6355    1.4794    0.2225 H       1  UNL1        0.1186
     12 H          -2.2826   -1.3702    0.3392 H       1  UNL1        0.0500
     13 H          -2.0336   -0.6647   -1.2792 H       1  UNL1        0.0500
     14 H           0.2887   -1.2858   -1.1387 H       1  UNL1        0.0347
     15 H           0.0523   -1.9143    0.5122 H       1  UNL1        0.0347
     16 H           1.6435   -0.5170    1.5103 H       1  UNL1        0.0382
     17 H           2.4332   -1.3323    0.0748 H       1  UNL1        0.0382
     18 H           3.7470    2.0384    0.2063 H       1  UNL1        0.2951
@<TRIPOS>BOND
     1     1     2    1
     2     2     3    1
     3     3     4    2
     4     3     5    1
     5     5     6    1
     6     6     7    1
     7     7     8    1
     8     7     9    2
     9     1    10    1
    10     1    11    1
    11     2    12    1
    12     2    13    1
    13     5    14    1
    14     5    15    1
    15     6    16    1
    16     6    17    1
    17     8    18    1
