
     RDKit          3D

 55 57  0  0  0  0  0  0  0  0999 V2000
   -2.3385   -1.8423    0.3026 C   0  0  0  0  0  0  0  0  0  0  0  0
   -1.9124   -1.0981   -0.8616 N   0  0  0  0  0  0  0  0  0  0  0  0
   -2.9041   -0.7427   -1.8202 C   0  0  0  0  0  0  0  0  0  0  0  0
   -3.9639    0.1489   -1.2229 C   0  0  0  0  0  0  0  0  0  0  0  0
   -3.8435    1.5239   -1.2377 C   0  0  0  0  0  0  0  0  0  0  0  0
   -4.7848    2.3303   -0.7069 N   0  0  0  0  0  0  0  0  0  0  0  0
   -5.8914    1.8214   -0.1351 C   0  0  0  0  0  0  0  0  0  0  0  0
   -6.8468    2.6135    0.4026 N   0  0  0  0  0  0  0  0  0  0  0  0
   -7.9592    2.1216    0.9779 C   0  0  0  0  0  0  0  0  0  0  0  0
   -8.9542    2.9783    1.5386 N   0  0  0  0  0  0  0  0  0  0  0  0
   -8.0845    0.7829    0.9967 N   0  0  0  0  0  0  0  0  0  0  0  0
   -7.1619   -0.0562    0.4748 C   0  0  0  0  0  0  0  0  0  0  0  0
   -7.3094   -1.4619    0.5034 N   0  0  0  0  0  0  0  0  0  0  0  0
   -6.0207    0.4505   -0.1154 C   0  0  0  0  0  0  0  0  0  0  0  0
   -5.0748   -0.3476   -0.6484 N   0  0  0  0  0  0  0  0  0  0  0  0
   -0.5547   -0.7571   -1.0024 C   0  0  0  0  0  0  0  0  0  0  0  0
   -0.0059   -0.0466   -2.0490 C   0  0  0  0  0  0  0  0  0  0  0  0
    1.3456    0.2475   -2.1172 C   0  0  0  0  0  0  0  0  0  0  0  0
    2.2151   -0.1609   -1.1309 C   0  0  0  0  0  0  0  0  0  0  0  0
    3.6453    0.1692   -1.2368 C   0  0  0  0  0  0  0  0  0  0  0  0
    4.0435    0.8350   -2.2525 O   0  0  0  0  0  0  0  0  0  0  0  0
    4.5872   -0.2108   -0.2799 N   0  0  0  0  0  0  0  0  0  0  0  0
    5.9864    0.1150   -0.3886 C   0  0  1  0  0  0  0  0  0  0  0  0
    6.3777    1.1251    0.6571 C   0  0  0  0  0  0  0  0  0  0  0  0
    6.1226    0.7460    2.0678 C   0  0  0  0  0  0  0  0  0  0  0  0
    6.7982   -0.4190    2.6127 C   0  0  0  0  0  0  0  0  0  0  0  0
    7.6394   -1.1386    2.0498 O   0  0  0  0  0  0  0  0  0  0  0  0
    6.4841   -0.8048    3.9341 O   0  0  0  0  0  0  0  0  0  0  0  0
    6.8832   -1.0090   -0.5888 C   0  0  0  0  0  0  0  0  0  0  0  0
    6.4266   -2.1991   -0.5517 O   0  0  0  0  0  0  0  0  0  0  0  0
    8.2526   -0.8696   -0.8315 O   0  0  0  0  0  0  0  0  0  0  0  0
    1.6789   -0.8664   -0.0887 C   0  0  0  0  0  0  0  0  0  0  0  0
    0.3359   -1.1585   -0.0212 C   0  0  0  0  0  0  0  0  0  0  0  0
   -1.7763   -2.8174    0.3005 H   0  0  0  0  0  0  0  0  0  0  0  0
   -2.0732   -1.3191    1.2509 H   0  0  0  0  0  0  0  0  0  0  0  0
   -3.4023   -2.0774    0.2831 H   0  0  0  0  0  0  0  0  0  0  0  0
   -3.3863   -1.7180   -2.1356 H   0  0  0  0  0  0  0  0  0  0  0  0
   -2.5028   -0.3258   -2.7431 H   0  0  0  0  0  0  0  0  0  0  0  0
   -2.9419    1.9243   -1.7041 H   0  0  0  0  0  0  0  0  0  0  0  0
   -9.6246    2.5963    2.2379 H   0  0  0  0  0  0  0  0  0  0  0  0
   -9.0516    3.9828    1.2845 H   0  0  0  0  0  0  0  0  0  0  0  0
   -7.0933   -2.0023   -0.3507 H   0  0  0  0  0  0  0  0  0  0  0  0
   -7.6254   -1.9360    1.3579 H   0  0  0  0  0  0  0  0  0  0  0  0
   -0.6662    0.2937   -2.8460 H   0  0  0  0  0  0  0  0  0  0  0  0
    1.7383    0.8072   -2.9545 H   0  0  0  0  0  0  0  0  0  0  0  0
    4.2941   -0.7535    0.5584 H   0  0  0  0  0  0  0  0  0  0  0  0
    6.0459    0.7076   -1.3832 H   0  0  0  0  0  0  0  0  0  0  0  0
    7.4533    1.4531    0.4989 H   0  0  0  0  0  0  0  0  0  0  0  0
    5.7874    2.0762    0.4631 H   0  0  0  0  0  0  0  0  0  0  0  0
    5.0100    0.6051    2.2615 H   0  0  0  0  0  0  0  0  0  0  0  0
    6.3533    1.6339    2.7459 H   0  0  0  0  0  0  0  0  0  0  0  0
    7.1232   -1.3776    4.4537 H   0  0  0  0  0  0  0  0  0  0  0  0
    8.8384   -1.6482   -0.5727 H   0  0  0  0  0  0  0  0  0  0  0  0
    2.3438   -1.2062    0.7129 H   0  0  0  0  0  0  0  0  0  0  0  0
   -0.0553   -1.7183    0.8168 H   0  0  0  0  0  0  0  0  0  0  0  0
  1  2  1  0
  2  3  1  0
  3  4  1  0
  4  5  2  0
  5  6  1  0
  6  7  2  0
  7  8  1  0
  8  9  2  0
  9 10  1  0
  9 11  1  0
 11 12  2  0
 12 13  1  0
 12 14  1  0
 14 15  2  0
  2 16  1  0
 16 17  2  0
 17 18  1  0
 18 19  2  0
 19 20  1  0
 20 21  2  0
 20 22  1  0
 22 23  1  0
 23 24  1  0
 24 25  1  0
 25 26  1  0
 26 27  2  0
 26 28  1  0
 23 29  1  0
 29 30  2  0
 29 31  1  0
 19 32  1  0
 32 33  2  0
 15  4  1  0
 33 16  1  0
 14  7  1  0
  1 34  1  0
  1 35  1  0
  1 36  1  0
  3 37  1  0
  3 38  1  0
  5 39  1  0
 10 40  1  0
 10 41  1  0
 13 42  1  0
 13 43  1  0
 17 44  1  0
 18 45  1  0
 22 46  1  0
 23 47  1  6
 24 48  1  0
 24 49  1  0
 25 50  1  0
 25 51  1  0
 28 52  1  0
 31 53  1  0
 32 54  1  0
 33 55  1  0
M  END
$$$$
