@<TRIPOS>MOLECULE
*****
 55 57 0 0 0
SMALL
GASTEIGER

@<TRIPOS>ATOM
      1 C          -2.3385   -1.8423    0.3026 C.3     0  UNK0        0.0011
      2 N          -1.9124   -1.0981   -0.8616 N.pl3   0  UNK0       -0.3271
      3 C          -2.9041   -0.7427   -1.8202 C.3     0  UNK0        0.0555
      4 C          -3.9639    0.1489   -1.2229 C.ar    0  UNK0        0.0774
      5 C          -3.8435    1.5239   -1.2377 C.ar    0  UNK0        0.0528
      6 N          -4.7848    2.3303   -0.7069 N.ar    0  UNK0       -0.2324
      7 C          -5.8914    1.8214   -0.1351 C.ar    0  UNK0        0.1851
      8 N          -6.8468    2.6135    0.4026 N.ar    0  UNK0       -0.1932
      9 C          -7.9592    2.1216    0.9779 C.ar    0  UNK0        0.2163
     10 N          -8.9542    2.9783    1.5386 N.pl3   0  UNK0       -0.3274
     11 N          -8.0845    0.7829    0.9967 N.ar    0  UNK0       -0.1978
     12 C          -7.1619   -0.0562    0.4748 C.ar    0  UNK0        0.1491
     13 N          -7.3094   -1.4619    0.5034 N.pl3   0  UNK0       -0.3413
     14 C          -6.0207    0.4505   -0.1154 C.ar    0  UNK0        0.1477
     15 N          -5.0748   -0.3476   -0.6484 N.ar    0  UNK0       -0.2419
     16 C          -0.5547   -0.7571   -1.0024 C.ar    0  UNK0        0.0298
     17 C          -0.0059   -0.0466   -2.0490 C.ar    0  UNK0       -0.0399
     18 C           1.3456    0.2475   -2.1172 C.ar    0  UNK0       -0.0479
     19 C           2.2151   -0.1609   -1.1309 C.ar    0  UNK0        0.0368
     20 C           3.6453    0.1692   -1.2368 C.2     0  UNK0        0.2447
     21 O           4.0435    0.8350   -2.2525 O.2     0  UNK0       -0.2702
     22 N           4.5872   -0.2108   -0.2799 N.am    1  GLU1       -0.2983
     23 CA          5.9864    0.1150   -0.3886 C.3     1  GLU1        0.1209
     24 CB          6.3777    1.1251    0.6571 C.3     1  GLU1       -0.0140
     25 CG          6.1226    0.7460    2.0678 C.3     1  GLU1        0.0470
     26 CD          6.7982   -0.4190    2.6127 C.2     1  GLU1        0.3048
     27 OE1         7.6394   -1.1386    2.0498 O.2     1  GLU1       -0.2510
     28 OE2         6.4841   -0.8048    3.9341 O.3     1  GLU1       -0.4806
     29 C           6.8832   -1.0090   -0.5888 C.2     1  GLU1        0.3253
     30 O           6.4266   -2.1991   -0.5517 O.2     1  GLU1       -0.2489
     31 OXT         8.2526   -0.8696   -0.8315 O.3     1  GLU1       -0.4793
     32 C           1.6789   -0.8664   -0.0887 C.ar    0  UNK0       -0.0479
     33 C           0.3359   -1.1585   -0.0212 C.ar    0  UNK0       -0.0399
     34 H          -1.7763   -2.8174    0.3005 H       0  UNK0        0.0428
     35 H          -2.0732   -1.3191    1.2509 H       0  UNK0        0.0428
     36 H          -3.4023   -2.0774    0.2831 H       0  UNK0        0.0428
     37 H          -3.3863   -1.7180   -2.1356 H       0  UNK0        0.0529
     38 H          -2.5028   -0.3258   -2.7431 H       0  UNK0        0.0529
     39 H          -2.9419    1.9243   -1.7041 H       0  UNK0        0.0849
     40 H          -9.6246    2.5963    2.2379 H       0  UNK0        0.1452
     41 H          -9.0516    3.9828    1.2845 H       0  UNK0        0.1452
     42 H          -7.0933   -2.0023   -0.3507 H       0  UNK0        0.1438
     43 H          -7.6254   -1.9360    1.3579 H       0  UNK0        0.1438
     44 H          -0.6662    0.2937   -2.8460 H       0  UNK0        0.0636
     45 H           1.7383    0.8072   -2.9545 H       0  UNK0        0.0626
     46 H           4.2941   -0.7535    0.5584 H       1  GLU1        0.1498
     47 HA          6.0459    0.7076   -1.3832 H       1  GLU1        0.0614
     48 HB1         7.4533    1.4531    0.4989 H       1  GLU1        0.0294
     49 HB2         5.7874    2.0762    0.4631 H       1  GLU1        0.0294
     50 HG1         5.0100    0.6051    2.2615 H       1  GLU1        0.0378
     51 HG2         6.3533    1.6339    2.7459 H       1  GLU1        0.0378
     52 HE2         7.1232   -1.3776    4.4537 H       1  GLU1        0.2951
     53 HXT         8.8384   -1.6482   -0.5727 H       1  GLU1        0.2951
     54 H           2.3438   -1.2062    0.7129 H       0  UNK0        0.0626
     55 H          -0.0553   -1.7183    0.8168 H       0  UNK0        0.0636
@<TRIPOS>BOND
     1     1     2    1
     2     2     3    1
     3     3     4    1
     4     4     5   ar
     5     5     6   ar
     6     6     7   ar
     7     7     8   ar
     8     8     9   ar
     9     9    10    1
    10     9    11   ar
    11    11    12   ar
    12    12    13    1
    13    12    14   ar
    14    14    15   ar
    15     2    16    1
    16    16    17   ar
    17    17    18   ar
    18    18    19   ar
    19    19    20    1
    20    20    21    2
    21    20    22   am
    22    22    23    1
    23    23    24    1
    24    24    25    1
    25    25    26    1
    26    26    27    2
    27    26    28    1
    28    23    29    1
    29    29    30    2
    30    29    31    1
    31    19    32   ar
    32    32    33   ar
    33    15     4   ar
    34    33    16   ar
    35    14     7   ar
    36     1    34    1
    37     1    35    1
    38     1    36    1
    39     3    37    1
    40     3    38    1
    41     5    39    1
    42    10    40    1
    43    10    41    1
    44    13    42    1
    45    13    43    1
    46    17    44    1
    47    18    45    1
    48    22    46    1
    49    23    47    1
    50    24    48    1
    51    24    49    1
    52    25    50    1
    53    25    51    1
    54    28    52    1
    55    31    53    1
    56    32    54    1
    57    33    55    1
