@<TRIPOS>MOLECULE
*****
 49 52 0 0 0
SMALL
GASTEIGER

@<TRIPOS>ATOM
      1 O           1.6586   -0.9086    3.1406 O.2     1  UNL1       -0.2686
      2 C           1.6024   -0.6417    1.9131 C.2     1  UNL1        0.2610
      3 N           0.3920   -0.8144    1.2329 N.am    1  UNL1       -0.2985
      4 C          -0.8104   -1.2960    1.9062 C.3     1  UNL1        0.1042
      5 C          -1.2689   -2.5626    1.2947 C.3     1  UNL1        0.0011
      6 C          -2.0833   -2.4044    0.0828 C.ar    1  UNL1       -0.0237
      7 C          -2.1748   -3.5282   -0.7474 C.ar    1  UNL1       -0.0567
      8 C          -2.9238   -3.4674   -1.8731 C.ar    1  UNL1       -0.0614
      9 C          -3.5908   -2.2885   -2.1864 C.ar    1  UNL1       -0.0600
     10 C          -3.4947   -1.1863   -1.3624 C.ar    1  UNL1       -0.0400
     11 C          -2.7320   -1.2339   -0.2091 C.ar    1  UNL1        0.0396
     12 N          -2.6032   -0.1196    0.6650 N.am    1  UNL1       -0.2671
     13 C          -3.2709    1.0980    0.3829 C.3     1  UNL1        0.0480
     14 C          -2.5370    2.1144   -0.4024 C.3     1  UNL1        0.0943
     15 O          -2.1673    1.6229   -1.6429 O.3     1  UNL1       -0.3880
     16 C          -3.4998    3.2775   -0.6943 C.3     1  UNL1        0.0716
     17 O          -4.6108    2.8052   -1.4081 O.3     1  UNL1       -0.3924
     18 C          -1.8047   -0.2180    1.8401 C.2     1  UNL1        0.2405
     19 O          -1.9550    0.5840    2.7642 O.2     1  UNL1       -0.2732
     20 C           2.8224   -0.1539    1.2336 C.ar    1  UNL1        0.1028
     21 C           2.9498    0.1863   -0.0955 C.ar    1  UNL1       -0.0241
     22 C           4.2438    0.5932   -0.3358 C.ar    1  UNL1        0.0018
     23 C           4.9154    1.0363   -1.4693 C.ar    1  UNL1       -0.0342
     24 C           6.2471    1.3847   -1.4103 C.ar    1  UNL1        0.0417
     25 CL          7.0600    1.9373   -2.8533 Cl      1  UNL1       -0.0835
     26 C           6.9347    1.2979   -0.2201 C.ar    1  UNL1       -0.0414
     27 C           6.2431    0.8555    0.8869 C.ar    1  UNL1       -0.0364
     28 C           4.9110    0.4979    0.8676 C.ar    1  UNL1        0.0471
     29 N           4.0307    0.0476    1.7853 N.ar    1  UNL1       -0.3506
     30 H           0.3383   -0.5952    0.2160 H       1  UNL1        0.1498
     31 H          -0.6054   -1.4891    2.9883 H       1  UNL1        0.0598
     32 H          -1.8833   -3.1651    2.0131 H       1  UNL1        0.0336
     33 H          -0.3757   -3.2026    1.0931 H       1  UNL1        0.0336
     34 H          -1.6471   -4.4523   -0.4940 H       1  UNL1        0.0621
     35 H          -2.9976   -4.3462   -2.5264 H       1  UNL1        0.0618
     36 H          -4.1701   -2.3096   -3.0981 H       1  UNL1        0.0618
     37 H          -4.0219   -0.2919   -1.6117 H       1  UNL1        0.0636
     38 H          -4.2807    0.9405   -0.0584 H       1  UNL1        0.0495
     39 H          -3.4951    1.5839    1.3863 H       1  UNL1        0.0495
     40 H          -1.6920    2.5901    0.1383 H       1  UNL1        0.0632
     41 H          -1.2006    1.3455   -1.6560 H       1  UNL1        0.2099
     42 H          -3.7736    3.8195    0.2145 H       1  UNL1        0.0583
     43 H          -2.9989    4.0079   -1.3846 H       1  UNL1        0.0583
     44 H          -5.1723    3.6013   -1.5816 H       1  UNL1        0.2095
     45 H           2.1512    0.1367   -0.8235 H       1  UNL1        0.0646
     46 H           4.3292    1.0848   -2.3729 H       1  UNL1        0.0639
     47 H           7.9996    1.5735   -0.1600 H       1  UNL1        0.0633
     48 H           6.7593    0.7762    1.8417 H       1  UNL1        0.0639
     49 H           4.2530   -0.1230    2.7904 H       1  UNL1        0.1660
@<TRIPOS>BOND
     1     1     2    2
     2     2     3   am
     3     3     4    1
     4     4     5    1
     5     5     6    1
     6     6     7   ar
     7     7     8   ar
     8     8     9   ar
     9     9    10   ar
    10    10    11   ar
    11    11    12    1
    12    12    13    1
    13    13    14    1
    14    14    15    1
    15    14    16    1
    16    16    17    1
    17    12    18   am
    18    18    19    2
    19     2    20    1
    20    20    21   ar
    21    21    22   ar
    22    22    23   ar
    23    23    24   ar
    24    24    25    1
    25    24    26   ar
    26    26    27   ar
    27    27    28   ar
    28    28    29   ar
    29    18     4    1
    30    29    20   ar
    31    11     6   ar
    32    28    22   ar
    33     3    30    1
    34     4    31    1
    35     5    32    1
    36     5    33    1
    37     7    34    1
    38     8    35    1
    39     9    36    1
    40    10    37    1
    41    13    38    1
    42    13    39    1
    43    14    40    1
    44    15    41    1
    45    16    42    1
    46    16    43    1
    47    17    44    1
    48    21    45    1
    49    23    46    1
    50    26    47    1
    51    27    48    1
    52    29    49    1
