
     RDKit          3D

 49 52  0  0  0  0  0  0  0  0999 V2000
    1.6586   -0.9086    3.1406 O   0  0  0  0  0  0  0  0  0  0  0  0
    1.6024   -0.6417    1.9131 C   0  0  0  0  0  0  0  0  0  0  0  0
    0.3920   -0.8144    1.2329 N   0  0  0  0  0  0  0  0  0  0  0  0
   -0.8104   -1.2960    1.9062 C   0  0  0  0  0  0  0  0  0  0  0  0
   -1.2689   -2.5626    1.2947 C   0  0  0  0  0  0  0  0  0  0  0  0
   -2.0833   -2.4044    0.0828 C   0  0  0  0  0  0  0  0  0  0  0  0
   -2.1748   -3.5282   -0.7474 C   0  0  0  0  0  0  0  0  0  0  0  0
   -2.9238   -3.4674   -1.8731 C   0  0  0  0  0  0  0  0  0  0  0  0
   -3.5908   -2.2885   -2.1864 C   0  0  0  0  0  0  0  0  0  0  0  0
   -3.4947   -1.1863   -1.3624 C   0  0  0  0  0  0  0  0  0  0  0  0
   -2.7320   -1.2339   -0.2091 C   0  0  0  0  0  0  0  0  0  0  0  0
   -2.6032   -0.1196    0.6650 N   0  0  0  0  0  0  0  0  0  0  0  0
   -3.2709    1.0980    0.3829 C   0  0  0  0  0  0  0  0  0  0  0  0
   -2.5370    2.1144   -0.4024 C   0  0  1  0  0  0  0  0  0  0  0  0
   -2.1673    1.6229   -1.6429 O   0  0  0  0  0  0  0  0  0  0  0  0
   -3.4998    3.2775   -0.6943 C   0  0  0  0  0  0  0  0  0  0  0  0
   -4.6108    2.8052   -1.4081 O   0  0  0  0  0  0  0  0  0  0  0  0
   -1.8047   -0.2180    1.8401 C   0  0  0  0  0  0  0  0  0  0  0  0
   -1.9550    0.5840    2.7642 O   0  0  0  0  0  0  0  0  0  0  0  0
    2.8224   -0.1539    1.2336 C   0  0  0  0  0  0  0  0  0  0  0  0
    2.9498    0.1863   -0.0955 C   0  0  0  0  0  0  0  0  0  0  0  0
    4.2438    0.5932   -0.3358 C   0  0  0  0  0  0  0  0  0  0  0  0
    4.9154    1.0363   -1.4693 C   0  0  0  0  0  0  0  0  0  0  0  0
    6.2471    1.3847   -1.4103 C   0  0  0  0  0  0  0  0  0  0  0  0
    7.0600    1.9373   -2.8533 Cl  0  0  0  0  0  0  0  0  0  0  0  0
    6.9347    1.2979   -0.2201 C   0  0  0  0  0  0  0  0  0  0  0  0
    6.2431    0.8555    0.8869 C   0  0  0  0  0  0  0  0  0  0  0  0
    4.9110    0.4979    0.8676 C   0  0  0  0  0  0  0  0  0  0  0  0
    4.0307    0.0476    1.7853 N   0  0  0  0  0  0  0  0  0  0  0  0
    0.3383   -0.5952    0.2160 H   0  0  0  0  0  0  0  0  0  0  0  0
   -0.6054   -1.4891    2.9883 H   0  0  0  0  0  0  0  0  0  0  0  0
   -1.8833   -3.1651    2.0131 H   0  0  0  0  0  0  0  0  0  0  0  0
   -0.3757   -3.2026    1.0931 H   0  0  0  0  0  0  0  0  0  0  0  0
   -1.6471   -4.4523   -0.4940 H   0  0  0  0  0  0  0  0  0  0  0  0
   -2.9976   -4.3462   -2.5264 H   0  0  0  0  0  0  0  0  0  0  0  0
   -4.1701   -2.3096   -3.0981 H   0  0  0  0  0  0  0  0  0  0  0  0
   -4.0219   -0.2919   -1.6117 H   0  0  0  0  0  0  0  0  0  0  0  0
   -4.2807    0.9405   -0.0584 H   0  0  0  0  0  0  0  0  0  0  0  0
   -3.4951    1.5839    1.3863 H   0  0  0  0  0  0  0  0  0  0  0  0
   -1.6920    2.5901    0.1383 H   0  0  0  0  0  0  0  0  0  0  0  0
   -1.2006    1.3455   -1.6560 H   0  0  0  0  0  0  0  0  0  0  0  0
   -3.7736    3.8195    0.2145 H   0  0  0  0  0  0  0  0  0  0  0  0
   -2.9989    4.0079   -1.3846 H   0  0  0  0  0  0  0  0  0  0  0  0
   -5.1723    3.6013   -1.5816 H   0  0  0  0  0  0  0  0  0  0  0  0
    2.1512    0.1367   -0.8235 H   0  0  0  0  0  0  0  0  0  0  0  0
    4.3292    1.0848   -2.3729 H   0  0  0  0  0  0  0  0  0  0  0  0
    7.9996    1.5735   -0.1600 H   0  0  0  0  0  0  0  0  0  0  0  0
    6.7593    0.7762    1.8417 H   0  0  0  0  0  0  0  0  0  0  0  0
    4.2530   -0.1230    2.7904 H   0  0  0  0  0  0  0  0  0  0  0  0
  1  2  2  0
  2  3  1  0
  3  4  1  0
  4  5  1  0
  5  6  1  0
  6  7  2  0
  7  8  1  0
  8  9  2  0
  9 10  1  0
 10 11  2  0
 11 12  1  0
 12 13  1  0
 13 14  1  0
 14 15  1  0
 14 16  1  0
 16 17  1  0
 12 18  1  0
 18 19  2  0
  2 20  1  0
 20 21  2  0
 21 22  1  0
 22 23  2  0
 23 24  1  0
 24 25  1  0
 24 26  2  0
 26 27  1  0
 27 28  2  0
 28 29  1  0
 18  4  1  0
 29 20  1  0
 11  6  1  0
 28 22  1  0
  3 30  1  0
  4 31  1  0
  5 32  1  0
  5 33  1  0
  7 34  1  0
  8 35  1  0
  9 36  1  0
 10 37  1  0
 13 38  1  0
 13 39  1  0
 14 40  1  1
 15 41  1  0
 16 42  1  0
 16 43  1  0
 17 44  1  0
 21 45  1  0
 23 46  1  0
 26 47  1  0
 27 48  1  0
 29 49  1  0
M  END
$$$$
