@<TRIPOS>MOLECULE
*****
 31 32 0 0 0
SMALL
GASTEIGER

@<TRIPOS>ATOM
      1 O           5.7046    1.6574   -0.1284 O.3     1  UNL1       -0.4806
      2 C           4.3327    1.7524   -0.3100 C.2     1  UNL1        0.3047
      3 O           4.0603    2.9065   -0.8059 O.2     1  UNL1       -0.2510
      4 C           3.5147    0.5527    0.0896 C.3     1  UNL1        0.0452
      5 C           3.5617   -0.5190   -0.9832 C.3     1  UNL1       -0.0345
      6 C           2.7334   -1.6872   -0.5019 C.3     1  UNL1        0.0270
      7 C           1.3266   -1.3190   -0.2451 C.ar    1  UNL1        0.2277
      8 N           0.2046   -1.2954   -0.9723 N.ar    1  UNL1       -0.1913
      9 C          -0.7971   -0.8660   -0.1994 C.ar    1  UNL1        0.2023
     10 N          -0.2539   -0.6337    1.0017 N.ar    1  UNL1       -0.0561
     11 O           1.0020   -0.8978    0.9874 O.2     1  UNL1       -0.3377
     12 C          -2.2158   -0.5456   -0.0611 C.ar    1  UNL1        0.0288
     13 C          -2.7423    0.7066   -0.3421 C.ar    1  UNL1        0.0264
     14 C          -4.0982    0.8754   -0.1729 C.ar    1  UNL1        0.2738
     15 C          -4.9173   -0.1582    0.2588 C.ar    1  UNL1        0.0156
     16 C          -4.4118   -1.4059    0.5416 C.ar    1  UNL1       -0.0547
     17 C          -3.0357   -1.5804    0.3730 C.ar    1  UNL1       -0.0505
     18 N          -4.7147    2.1348   -0.4236 N.pl3   1  UNL1        0.0796
     19 O          -4.1342    3.2971   -0.8395 O.co2   1  UNL1       -0.5760
     20 O          -5.9267    2.3168   -0.2838 O.2     1  UNL1        0.0414
     21 H           6.3240    2.4497   -0.0230 H       1  UNL1        0.2951
     22 H           2.4541    0.9196    0.1311 H       1  UNL1        0.0378
     23 H           3.8906    0.1938    1.0468 H       1  UNL1        0.0378
     24 H           4.6119   -0.8867   -1.1288 H       1  UNL1        0.0275
     25 H           3.2156   -0.0703   -1.9268 H       1  UNL1        0.0275
     26 H           3.2315   -2.0552    0.4344 H       1  UNL1        0.0361
     27 H           2.8092   -2.5161   -1.2697 H       1  UNL1        0.0361
     28 H          -2.0815    1.4879   -0.6802 H       1  UNL1        0.0692
     29 H          -5.9689   -0.0166    0.3850 H       1  UNL1        0.0685
     30 H          -5.0335   -2.2293    0.8842 H       1  UNL1        0.0620
     31 H          -2.6458   -2.5683    0.6014 H       1  UNL1        0.0625
@<TRIPOS>UNITY_ATOM_ATTR
18 1
charge 1
19 1
charge -1
@<TRIPOS>BOND
     1     1     2    1
     2     2     3    2
     3     2     4    1
     4     4     5    1
     5     5     6    1
     6     6     7    1
     7     7     8   ar
     8     8     9   ar
     9     9    10   ar
    10    10    11   ar
    11     9    12    1
    12    12    13   ar
    13    13    14   ar
    14    14    15   ar
    15    15    16   ar
    16    16    17   ar
    17    14    18    1
    18    18    19    1
    19    18    20    2
    20    11     7   ar
    21    17    12   ar
    22     1    21    1
    23     4    22    1
    24     4    23    1
    25     5    24    1
    26     5    25    1
    27     6    26    1
    28     6    27    1
    29    13    28    1
    30    15    29    1
    31    16    30    1
    32    17    31    1
