
     RDKit          3D

 31 32  0  0  0  0  0  0  0  0999 V2000
    5.7046    1.6574   -0.1284 O   0  0  0  0  0  0  0  0  0  0  0  0
    4.3327    1.7524   -0.3100 C   0  0  0  0  0  0  0  0  0  0  0  0
    4.0603    2.9065   -0.8059 O   0  0  0  0  0  0  0  0  0  0  0  0
    3.5147    0.5527    0.0896 C   0  0  0  0  0  0  0  0  0  0  0  0
    3.5617   -0.5190   -0.9832 C   0  0  0  0  0  0  0  0  0  0  0  0
    2.7334   -1.6872   -0.5019 C   0  0  0  0  0  0  0  0  0  0  0  0
    1.3266   -1.3190   -0.2451 C   0  0  0  0  0  0  0  0  0  0  0  0
    0.2046   -1.2954   -0.9723 N   0  0  0  0  0  0  0  0  0  0  0  0
   -0.7971   -0.8660   -0.1994 C   0  0  0  0  0  0  0  0  0  0  0  0
   -0.2539   -0.6337    1.0017 N   0  0  0  0  0  0  0  0  0  0  0  0
    1.0020   -0.8978    0.9874 O   0  0  0  0  0  0  0  0  0  0  0  0
   -2.2158   -0.5456   -0.0611 C   0  0  0  0  0  0  0  0  0  0  0  0
   -2.7423    0.7066   -0.3421 C   0  0  0  0  0  0  0  0  0  0  0  0
   -4.0982    0.8754   -0.1729 C   0  0  0  0  0  0  0  0  0  0  0  0
   -4.9173   -0.1582    0.2588 C   0  0  0  0  0  0  0  0  0  0  0  0
   -4.4118   -1.4059    0.5416 C   0  0  0  0  0  0  0  0  0  0  0  0
   -3.0357   -1.5804    0.3730 C   0  0  0  0  0  0  0  0  0  0  0  0
   -4.7147    2.1348   -0.4236 N   0  0  0  0  0  4  0  0  0  0  0  0
   -4.1342    3.2971   -0.8395 O   0  0  0  0  0  1  0  0  0  0  0  0
   -5.9267    2.3168   -0.2838 O   0  0  0  0  0  0  0  0  0  0  0  0
    6.3240    2.4497   -0.0230 H   0  0  0  0  0  0  0  0  0  0  0  0
    2.4541    0.9196    0.1311 H   0  0  0  0  0  0  0  0  0  0  0  0
    3.8906    0.1938    1.0468 H   0  0  0  0  0  0  0  0  0  0  0  0
    4.6119   -0.8867   -1.1288 H   0  0  0  0  0  0  0  0  0  0  0  0
    3.2156   -0.0703   -1.9268 H   0  0  0  0  0  0  0  0  0  0  0  0
    3.2315   -2.0552    0.4344 H   0  0  0  0  0  0  0  0  0  0  0  0
    2.8092   -2.5161   -1.2697 H   0  0  0  0  0  0  0  0  0  0  0  0
   -2.0815    1.4879   -0.6802 H   0  0  0  0  0  0  0  0  0  0  0  0
   -5.9689   -0.0166    0.3850 H   0  0  0  0  0  0  0  0  0  0  0  0
   -5.0335   -2.2293    0.8842 H   0  0  0  0  0  0  0  0  0  0  0  0
   -2.6458   -2.5683    0.6014 H   0  0  0  0  0  0  0  0  0  0  0  0
  1  2  1  0
  2  3  2  0
  2  4  1  0
  4  5  1  0
  5  6  1  0
  6  7  1  0
  7  8  2  0
  8  9  1  0
  9 10  2  0
 10 11  1  0
  9 12  1  0
 12 13  2  0
 13 14  1  0
 14 15  2  0
 15 16  1  0
 16 17  2  0
 14 18  1  0
 18 19  1  0
 18 20  2  0
 11  7  1  0
 17 12  1  0
  1 21  1  0
  4 22  1  0
  4 23  1  0
  5 24  1  0
  5 25  1  0
  6 26  1  0
  6 27  1  0
 13 28  1  0
 15 29  1  0
 16 30  1  0
 17 31  1  0
M  CHG  2  18   1  19  -1
M  END
$$$$
