@<TRIPOS>MOLECULE
*****
 35 36 0 0 0
SMALL
GASTEIGER

@<TRIPOS>ATOM
      1 N          -5.5028    0.1129   -0.5621 N.pl3   1  UNL1       -0.2877
      2 C          -4.1221   -0.1872   -0.4129 C.cat   1  UNL1        0.3965
      3 N          -3.6123   -0.9902   -1.2531 N.pl3   1  UNL1       -0.1282
      4 N          -3.3193    0.3677    0.6176 N.pl3   1  UNL1       -0.1822
      5 N          -1.9454    0.5271    0.4087 N.am    1  UNL1       -0.1609
      6 C          -1.0160   -0.5016    0.7434 C.2     1  UNL1        0.3396
      7 O          -1.7324   -1.4471    1.2137 O.2     1  UNL1       -0.2491
      8 N           0.3675   -0.2265    0.4850 N.am    1  UNL1       -0.2223
      9 C           0.7943    1.0082   -0.0765 C.ar    1  UNL1        0.0429
     10 C           1.1591    2.1822    0.5667 C.ar    1  UNL1       -0.0399
     11 C           1.5397    3.2557   -0.1942 C.ar    1  UNL1       -0.0600
     12 C           1.5690    3.1982   -1.5781 C.ar    1  UNL1       -0.0616
     13 C           1.2074    2.0323   -2.2372 C.ar    1  UNL1       -0.0600
     14 C           0.8253    0.9553   -1.4667 C.ar    1  UNL1       -0.0399
     15 C           1.4007   -1.1643    0.7709 C.ar    1  UNL1        0.0429
     16 C           2.7528   -0.9054    0.5225 C.ar    1  UNL1       -0.0399
     17 C           3.7534   -1.8024    0.7947 C.ar    1  UNL1       -0.0600
     18 C           3.4597   -3.0237    1.3367 C.ar    1  UNL1       -0.0616
     19 C           2.1602   -3.3285    1.5989 C.ar    1  UNL1       -0.0600
     20 C           1.1758   -2.4121    1.3169 C.ar    1  UNL1       -0.0399
     21 H          -5.9348    0.6989    0.1639 H       1  UNL1        0.2547
     22 H          -6.1053    0.6889    0.0716 H       1  UNL1        0.2547
     23 H          -4.0853   -1.4516   -2.0340 H       1  UNL1        0.3062
     24 H          -3.8102    0.6426    1.5202 H       1  UNL1        0.2876
     25 H          -1.7164    1.4764   -0.0127 H       1  UNL1        0.1928
     26 H           1.0966    2.1049    1.6285 H       1  UNL1        0.0636
     27 H           1.8111    4.1383    0.3706 H       1  UNL1        0.0618
     28 H           1.8714    4.0548   -2.1465 H       1  UNL1        0.0618
     29 H           1.2435    2.0280   -3.3137 H       1  UNL1        0.0618
     30 H           0.5590    0.0833   -2.0775 H       1  UNL1        0.0636
     31 H           2.9810    0.0629    0.0933 H       1  UNL1        0.0636
     32 H           4.7718   -1.4898    0.5584 H       1  UNL1        0.0618
     33 H           4.3011   -3.6592    1.5159 H       1  UNL1        0.0618
     34 H           1.9230   -4.3080    2.0337 H       1  UNL1        0.0618
     35 H           0.1789   -2.7211    1.5495 H       1  UNL1        0.0636
@<TRIPOS>BOND
     1     1     2    1
     2     2     3    2
     3     2     4    1
     4     4     5    1
     5     5     6   am
     6     6     7    2
     7     6     8   am
     8     8     9    1
     9     9    10   ar
    10    10    11   ar
    11    11    12   ar
    12    12    13   ar
    13    13    14   ar
    14     8    15    1
    15    15    16   ar
    16    16    17   ar
    17    17    18   ar
    18    18    19   ar
    19    19    20   ar
    20    14     9   ar
    21    20    15   ar
    22     1    21    1
    23     1    22    1
    24     3    23    1
    25     4    24    1
    26     5    25    1
    27    10    26    1
    28    11    27    1
    29    12    28    1
    30    13    29    1
    31    14    30    1
    32    16    31    1
    33    17    32    1
    34    18    33    1
    35    19    34    1
    36    20    35    1
