@<TRIPOS>MOLECULE
*****
 82 88 0 0 0
SMALL
GASTEIGER

@<TRIPOS>ATOM
      1 C          -8.6837    3.8570   -1.5657 C.1     1  UNL1       -0.1183
      2 C          -7.8633    3.0292   -1.9311 C.1     1  UNL1       -0.0931
      3 C          -6.9019    2.0539   -2.3347 C.3     1  UNL1        0.0697
      4 C          -7.5471    1.0734   -3.3479 C.3     1  UNL1       -0.0433
      5 C          -5.8359    2.7782   -3.1472 C.3     1  UNL1       -0.0433
      6 C          -6.3116    1.2184   -1.2825 C.ar    1  UNL1        0.0826
      7 C          -5.6619    0.0005   -1.5220 C.ar    1  UNL1        0.0030
      8 C          -5.2560   -0.5471   -0.2962 C.ar    1  UNL1        0.1300
      9 N          -4.5712   -1.7878   -0.2976 N.am    1  UNL1       -0.2538
     10 C          -3.1394   -1.8422   -0.3317 C.2     1  UNL1        0.3092
     11 O          -2.5069   -0.7903   -0.1884 O.2     1  UNL1       -0.2521
     12 N          -2.4494   -3.0637   -0.5402 N.am    1  UNL1       -0.2686
     13 C          -1.0447   -3.2099   -0.6146 C.ar    1  UNL1        0.0427
     14 C          -0.3696   -3.9194    0.3426 C.ar    1  UNL1       -0.0363
     15 C           1.0253   -4.0277    0.2856 C.ar    1  UNL1       -0.0169
     16 C           1.7257   -3.4297   -0.7146 C.ar    1  UNL1        0.1381
     17 O           3.1340   -3.4828   -0.8630 O.3     1  UNL1       -0.4373
     18 C           3.8306   -2.3024   -0.5262 C.ar    1  UNL1        0.2249
     19 C           3.1566   -1.1968   -0.0702 C.ar    1  UNL1        0.0186
     20 C           3.8787   -0.0801    0.2480 C.ar    1  UNL1        0.0362
     21 N           5.2090   -0.1245    0.0951 N.ar    1  UNL1       -0.2225
     22 C           5.8881   -1.2000   -0.3527 C.ar    1  UNL1        0.2226
     23 N           7.3135   -1.1709   -0.4974 N.pl3   1  UNL1       -0.2835
     24 C           8.0555   -0.0716   -0.0319 C.ar    1  UNL1        0.0346
     25 C           7.6865    0.7138    1.0618 C.ar    1  UNL1       -0.0355
     26 C           8.4326    1.8052    1.4400 C.ar    1  UNL1       -0.0233
     27 C           8.0243    2.6368    2.6238 C.3     1  UNL1       -0.0376
     28 C           9.5556    2.1340    0.7378 C.ar    1  UNL1        0.0687
     29 N          10.4721    3.1053    0.8327 N.ar    1  UNL1       -0.2767
     30 N          11.3870    3.0183   -0.0924 N.ar    1  UNL1       -0.1812
     31 C          11.1220    1.9445   -0.8826 C.ar    1  UNL1        0.0569
     32 C           9.9811    1.3784   -0.3782 C.ar    1  UNL1        0.0215
     33 C           9.1968    0.2929   -0.7154 C.ar    1  UNL1       -0.0298
     34 N           5.1735   -2.3067   -0.6675 N.ar    1  UNL1       -0.1789
     35 C           1.0720   -2.7081   -1.6933 C.ar    1  UNL1        0.0262
     36 C           1.7643   -2.1078   -2.7236 C.ar    1  UNL1       -0.0505
     37 C           1.1002   -1.4064   -3.7019 C.ar    1  UNL1       -0.0611
     38 C          -0.2692   -1.3201   -3.6268 C.ar    1  UNL1       -0.0611
     39 C          -0.9901   -1.9198   -2.5910 C.ar    1  UNL1       -0.0521
     40 C          -0.3191   -2.6081   -1.6303 C.ar    1  UNL1        0.0069
     41 N          -5.6491    0.3132    0.6258 N.ar    1  UNL1       -0.2180
     42 C          -5.4364    0.1856    2.0216 C.ar    1  UNL1        0.0674
     43 C          -4.3883    0.8298    2.6458 C.ar    1  UNL1       -0.0359
     44 C          -4.1652    0.7359    3.9960 C.ar    1  UNL1       -0.0568
     45 C          -5.0209   -0.0335    4.7755 C.ar    1  UNL1       -0.0503
     46 C          -4.7298   -0.0882    6.2578 C.3     1  UNL1       -0.0397
     47 C          -6.0596   -0.6821    4.1963 C.ar    1  UNL1       -0.0568
     48 C          -6.2723   -0.5738    2.8078 C.ar    1  UNL1       -0.0359
     49 N          -6.2764    1.3593    0.0201 N.ar    1  UNL1       -0.1681
     50 H          -9.4184    4.5856   -1.2238 H       1  UNL1        0.1228
     51 H          -7.2214    1.2487   -4.3742 H       1  UNL1        0.0248
     52 H          -7.3246    0.0168   -3.0805 H       1  UNL1        0.0248
     53 H          -8.6586    1.2116   -3.1992 H       1  UNL1        0.0248
     54 H          -5.1212    3.3357   -2.5179 H       1  UNL1        0.0248
     55 H          -5.2971    2.0301   -3.7746 H       1  UNL1        0.0248
     56 H          -6.3447    3.4956   -3.8146 H       1  UNL1        0.0248
     57 H          -5.5048   -0.4191   -2.4971 H       1  UNL1        0.0671
     58 H          -5.1169   -2.6929   -0.3856 H       1  UNL1        0.1578
     59 H          -3.0643   -3.9134   -0.6461 H       1  UNL1        0.1564
     60 H          -0.9331   -4.3892    1.1344 H       1  UNL1        0.0637
     61 H           1.5574   -4.5921    1.0360 H       1  UNL1        0.0655
     62 H           2.0526   -1.2376    0.0256 H       1  UNL1        0.0686
     63 H           3.3869    0.8024    0.6022 H       1  UNL1        0.0832
     64 H           7.7579   -2.0000   -0.9572 H       1  UNL1        0.1550
     65 H           6.8213    0.4509    1.6111 H       1  UNL1        0.0639
     66 H           8.1199    1.9692    3.5072 H       1  UNL1        0.0278
     67 H           8.5756    3.5713    2.6722 H       1  UNL1        0.0278
     68 H           6.9366    2.8977    2.4972 H       1  UNL1        0.0278
     69 H          10.4651    3.8704    1.5747 H       1  UNL1        0.1889
     70 H          11.7151    1.6444   -1.7148 H       1  UNL1        0.0854
     71 H           9.5173   -0.2924   -1.5737 H       1  UNL1        0.0643
     72 H           2.8365   -2.1939   -2.7641 H       1  UNL1        0.0625
     73 H           1.6499   -0.9278   -4.5296 H       1  UNL1        0.0618
     74 H          -0.8444   -0.7708   -4.3865 H       1  UNL1        0.0618
     75 H          -2.0744   -1.8373   -2.5765 H       1  UNL1        0.0624
     76 H          -3.7285    1.4275    2.0400 H       1  UNL1        0.0639
     77 H          -3.3296    1.2498    4.4978 H       1  UNL1        0.0621
     78 H          -5.6725   -0.3453    6.7604 H       1  UNL1        0.0278
     79 H          -4.4728    0.9741    6.5715 H       1  UNL1        0.0278
     80 H          -3.8856   -0.7528    6.4935 H       1  UNL1        0.0278
     81 H          -6.7273   -1.2775    4.7905 H       1  UNL1        0.0621
     82 H          -7.1176   -1.0988    2.3464 H       1  UNL1        0.0639
@<TRIPOS>BOND
     1     1     2    3
     2     2     3    1
     3     3     4    1
     4     3     5    1
     5     3     6    1
     6     6     7   ar
     7     7     8   ar
     8     8     9    1
     9     9    10   am
    10    10    11    2
    11    10    12   am
    12    12    13    1
    13    13    14   ar
    14    14    15   ar
    15    15    16   ar
    16    16    17    1
    17    17    18    1
    18    18    19   ar
    19    19    20   ar
    20    20    21   ar
    21    21    22   ar
    22    22    23    1
    23    23    24    1
    24    24    25   ar
    25    25    26   ar
    26    26    27    1
    27    26    28   ar
    28    28    29   ar
    29    29    30   ar
    30    30    31   ar
    31    31    32   ar
    32    32    33   ar
    33    22    34   ar
    34    16    35   ar
    35    35    36   ar
    36    36    37   ar
    37    37    38   ar
    38    38    39   ar
    39    39    40   ar
    40     8    41   ar
    41    41    42    1
    42    42    43   ar
    43    43    44   ar
    44    44    45   ar
    45    45    46    1
    46    45    47   ar
    47    47    48   ar
    48    41    49   ar
    49    49     6   ar
    50    40    13   ar
    51    48    42   ar
    52    34    18   ar
    53    40    35   ar
    54    33    24   ar
    55    32    28   ar
    56     1    50    1
    57     4    51    1
    58     4    52    1
    59     4    53    1
    60     5    54    1
    61     5    55    1
    62     5    56    1
    63     7    57    1
    64     9    58    1
    65    12    59    1
    66    14    60    1
    67    15    61    1
    68    19    62    1
    69    20    63    1
    70    23    64    1
    71    25    65    1
    72    27    66    1
    73    27    67    1
    74    27    68    1
    75    29    69    1
    76    31    70    1
    77    33    71    1
    78    36    72    1
    79    37    73    1
    80    38    74    1
    81    39    75    1
    82    43    76    1
    83    44    77    1
    84    46    78    1
    85    46    79    1
    86    46    80    1
    87    47    81    1
    88    48    82    1
