
     RDKit          3D

 82 88  0  0  0  0  0  0  0  0999 V2000
   -8.6837    3.8570   -1.5657 C   0  0  0  0  0  0  0  0  0  0  0  0
   -7.8633    3.0292   -1.9311 C   0  0  0  0  0  0  0  0  0  0  0  0
   -6.9019    2.0539   -2.3347 C   0  0  0  0  0  0  0  0  0  0  0  0
   -7.5471    1.0734   -3.3479 C   0  0  0  0  0  0  0  0  0  0  0  0
   -5.8359    2.7782   -3.1472 C   0  0  0  0  0  0  0  0  0  0  0  0
   -6.3116    1.2184   -1.2825 C   0  0  0  0  0  0  0  0  0  0  0  0
   -5.6619    0.0005   -1.5220 C   0  0  0  0  0  0  0  0  0  0  0  0
   -5.2560   -0.5471   -0.2962 C   0  0  0  0  0  0  0  0  0  0  0  0
   -4.5712   -1.7878   -0.2976 N   0  0  0  0  0  0  0  0  0  0  0  0
   -3.1394   -1.8422   -0.3317 C   0  0  0  0  0  0  0  0  0  0  0  0
   -2.5069   -0.7903   -0.1884 O   0  0  0  0  0  0  0  0  0  0  0  0
   -2.4494   -3.0637   -0.5402 N   0  0  0  0  0  0  0  0  0  0  0  0
   -1.0447   -3.2099   -0.6146 C   0  0  0  0  0  0  0  0  0  0  0  0
   -0.3696   -3.9194    0.3426 C   0  0  0  0  0  0  0  0  0  0  0  0
    1.0253   -4.0277    0.2856 C   0  0  0  0  0  0  0  0  0  0  0  0
    1.7257   -3.4297   -0.7146 C   0  0  0  0  0  0  0  0  0  0  0  0
    3.1340   -3.4828   -0.8630 O   0  0  0  0  0  0  0  0  0  0  0  0
    3.8306   -2.3024   -0.5262 C   0  0  0  0  0  0  0  0  0  0  0  0
    3.1566   -1.1968   -0.0702 C   0  0  0  0  0  0  0  0  0  0  0  0
    3.8787   -0.0801    0.2480 C   0  0  0  0  0  0  0  0  0  0  0  0
    5.2090   -0.1245    0.0951 N   0  0  0  0  0  0  0  0  0  0  0  0
    5.8881   -1.2000   -0.3527 C   0  0  0  0  0  0  0  0  0  0  0  0
    7.3135   -1.1709   -0.4974 N   0  0  0  0  0  0  0  0  0  0  0  0
    8.0555   -0.0716   -0.0319 C   0  0  0  0  0  0  0  0  0  0  0  0
    7.6865    0.7138    1.0618 C   0  0  0  0  0  0  0  0  0  0  0  0
    8.4326    1.8052    1.4400 C   0  0  0  0  0  0  0  0  0  0  0  0
    8.0243    2.6368    2.6238 C   0  0  0  0  0  0  0  0  0  0  0  0
    9.5556    2.1340    0.7378 C   0  0  0  0  0  0  0  0  0  0  0  0
   10.4721    3.1053    0.8327 N   0  0  0  0  0  0  0  0  0  0  0  0
   11.3870    3.0183   -0.0924 N   0  0  0  0  0  0  0  0  0  0  0  0
   11.1220    1.9445   -0.8826 C   0  0  0  0  0  0  0  0  0  0  0  0
    9.9811    1.3784   -0.3782 C   0  0  0  0  0  0  0  0  0  0  0  0
    9.1968    0.2929   -0.7154 C   0  0  0  0  0  0  0  0  0  0  0  0
    5.1735   -2.3067   -0.6675 N   0  0  0  0  0  0  0  0  0  0  0  0
    1.0720   -2.7081   -1.6933 C   0  0  0  0  0  0  0  0  0  0  0  0
    1.7643   -2.1078   -2.7236 C   0  0  0  0  0  0  0  0  0  0  0  0
    1.1002   -1.4064   -3.7019 C   0  0  0  0  0  0  0  0  0  0  0  0
   -0.2692   -1.3201   -3.6268 C   0  0  0  0  0  0  0  0  0  0  0  0
   -0.9901   -1.9198   -2.5910 C   0  0  0  0  0  0  0  0  0  0  0  0
   -0.3191   -2.6081   -1.6303 C   0  0  0  0  0  0  0  0  0  0  0  0
   -5.6491    0.3132    0.6258 N   0  0  0  0  0  0  0  0  0  0  0  0
   -5.4364    0.1856    2.0216 C   0  0  0  0  0  0  0  0  0  0  0  0
   -4.3883    0.8298    2.6458 C   0  0  0  0  0  0  0  0  0  0  0  0
   -4.1652    0.7359    3.9960 C   0  0  0  0  0  0  0  0  0  0  0  0
   -5.0209   -0.0335    4.7755 C   0  0  0  0  0  0  0  0  0  0  0  0
   -4.7298   -0.0882    6.2578 C   0  0  0  0  0  0  0  0  0  0  0  0
   -6.0596   -0.6821    4.1963 C   0  0  0  0  0  0  0  0  0  0  0  0
   -6.2723   -0.5738    2.8078 C   0  0  0  0  0  0  0  0  0  0  0  0
   -6.2764    1.3593    0.0201 N   0  0  0  0  0  0  0  0  0  0  0  0
   -9.4184    4.5856   -1.2238 H   0  0  0  0  0  0  0  0  0  0  0  0
   -7.2214    1.2487   -4.3742 H   0  0  0  0  0  0  0  0  0  0  0  0
   -7.3246    0.0168   -3.0805 H   0  0  0  0  0  0  0  0  0  0  0  0
   -8.6586    1.2116   -3.1992 H   0  0  0  0  0  0  0  0  0  0  0  0
   -5.1212    3.3357   -2.5179 H   0  0  0  0  0  0  0  0  0  0  0  0
   -5.2971    2.0301   -3.7746 H   0  0  0  0  0  0  0  0  0  0  0  0
   -6.3447    3.4956   -3.8146 H   0  0  0  0  0  0  0  0  0  0  0  0
   -5.5048   -0.4191   -2.4971 H   0  0  0  0  0  0  0  0  0  0  0  0
   -5.1169   -2.6929   -0.3856 H   0  0  0  0  0  0  0  0  0  0  0  0
   -3.0643   -3.9134   -0.6461 H   0  0  0  0  0  0  0  0  0  0  0  0
   -0.9331   -4.3892    1.1344 H   0  0  0  0  0  0  0  0  0  0  0  0
    1.5574   -4.5921    1.0360 H   0  0  0  0  0  0  0  0  0  0  0  0
    2.0526   -1.2376    0.0256 H   0  0  0  0  0  0  0  0  0  0  0  0
    3.3869    0.8024    0.6022 H   0  0  0  0  0  0  0  0  0  0  0  0
    7.7579   -2.0000   -0.9572 H   0  0  0  0  0  0  0  0  0  0  0  0
    6.8213    0.4509    1.6111 H   0  0  0  0  0  0  0  0  0  0  0  0
    8.1199    1.9692    3.5072 H   0  0  0  0  0  0  0  0  0  0  0  0
    8.5756    3.5713    2.6722 H   0  0  0  0  0  0  0  0  0  0  0  0
    6.9366    2.8977    2.4972 H   0  0  0  0  0  0  0  0  0  0  0  0
   10.4651    3.8704    1.5747 H   0  0  0  0  0  0  0  0  0  0  0  0
   11.7151    1.6444   -1.7148 H   0  0  0  0  0  0  0  0  0  0  0  0
    9.5173   -0.2924   -1.5737 H   0  0  0  0  0  0  0  0  0  0  0  0
    2.8365   -2.1939   -2.7641 H   0  0  0  0  0  0  0  0  0  0  0  0
    1.6499   -0.9278   -4.5296 H   0  0  0  0  0  0  0  0  0  0  0  0
   -0.8444   -0.7708   -4.3865 H   0  0  0  0  0  0  0  0  0  0  0  0
   -2.0744   -1.8373   -2.5765 H   0  0  0  0  0  0  0  0  0  0  0  0
   -3.7285    1.4275    2.0400 H   0  0  0  0  0  0  0  0  0  0  0  0
   -3.3296    1.2498    4.4978 H   0  0  0  0  0  0  0  0  0  0  0  0
   -5.6725   -0.3453    6.7604 H   0  0  0  0  0  0  0  0  0  0  0  0
   -4.4728    0.9741    6.5715 H   0  0  0  0  0  0  0  0  0  0  0  0
   -3.8856   -0.7528    6.4935 H   0  0  0  0  0  0  0  0  0  0  0  0
   -6.7273   -1.2775    4.7905 H   0  0  0  0  0  0  0  0  0  0  0  0
   -7.1176   -1.0988    2.3464 H   0  0  0  0  0  0  0  0  0  0  0  0
  1  2  3  0
  2  3  1  0
  3  4  1  0
  3  5  1  0
  3  6  1  0
  6  7  1  0
  7  8  2  0
  8  9  1  0
  9 10  1  0
 10 11  2  0
 10 12  1  0
 12 13  1  0
 13 14  2  0
 14 15  1  0
 15 16  2  0
 16 17  1  0
 17 18  1  0
 18 19  2  0
 19 20  1  0
 20 21  2  0
 21 22  1  0
 22 23  1  0
 23 24  1  0
 24 25  2  0
 25 26  1  0
 26 27  1  0
 26 28  2  0
 28 29  1  0
 29 30  1  0
 30 31  2  0
 31 32  1  0
 32 33  2  0
 22 34  2  0
 16 35  1  0
 35 36  2  0
 36 37  1  0
 37 38  2  0
 38 39  1  0
 39 40  2  0
  8 41  1  0
 41 42  1  0
 42 43  2  0
 43 44  1  0
 44 45  2  0
 45 46  1  0
 45 47  1  0
 47 48  2  0
 41 49  1  0
 49  6  2  0
 40 13  1  0
 48 42  1  0
 34 18  1  0
 40 35  1  0
 33 24  1  0
 32 28  1  0
  1 50  1  0
  4 51  1  0
  4 52  1  0
  4 53  1  0
  5 54  1  0
  5 55  1  0
  5 56  1  0
  7 57  1  0
  9 58  1  0
 12 59  1  0
 14 60  1  0
 15 61  1  0
 19 62  1  0
 20 63  1  0
 23 64  1  0
 25 65  1  0
 27 66  1  0
 27 67  1  0
 27 68  1  0
 29 69  1  0
 31 70  1  0
 33 71  1  0
 36 72  1  0
 37 73  1  0
 38 74  1  0
 39 75  1  0
 43 76  1  0
 44 77  1  0
 46 78  1  0
 46 79  1  0
 46 80  1  0
 47 81  1  0
 48 82  1  0
M  END
$$$$
