
     RDKit          3D

 81 84  0  0  0  0  0  0  0  0999 V2000
   -0.2026    4.8486    0.5492 C   0  0  0  0  0  0  0  0  0  0  0  0
   -1.1179    3.8849   -0.1759 C   0  0  0  0  0  0  0  0  0  0  0  0
   -2.5395    4.2014    0.2409 C   0  0  0  0  0  0  0  0  0  0  0  0
   -0.9510    3.9828   -1.6777 C   0  0  0  0  0  0  0  0  0  0  0  0
   -0.7207    2.5785    0.1920 O   0  0  0  0  0  0  0  0  0  0  0  0
   -1.3842    1.4762   -0.3202 C   0  0  0  0  0  0  0  0  0  0  0  0
   -2.3329    1.7222   -1.1091 O   0  0  0  0  0  0  0  0  0  0  0  0
   -0.9560    0.1231    0.0746 C   0  0  0  0  0  0  0  0  0  0  0  0
   -2.0072   -0.5306    0.9448 C   0  0  0  0  0  0  0  0  0  0  0  0
   -3.2650   -0.6298    0.2128 C   0  0  0  0  0  0  0  0  0  0  0  0
   -4.2090    0.3587    0.3232 C   0  0  0  0  0  0  0  0  0  0  0  0
   -5.3887    0.2571   -0.3747 C   0  0  0  0  0  0  0  0  0  0  0  0
   -5.6318   -0.8275   -1.1834 C   0  0  0  0  0  0  0  0  0  0  0  0
   -6.8173   -0.9021   -1.8675 O   0  0  0  0  0  0  0  0  0  0  0  0
   -7.9891   -1.5035   -1.3776 C   0  0  0  0  0  0  0  0  0  0  0  0
   -9.0587   -1.3668   -2.4471 C   0  0  0  0  0  0  0  0  0  0  0  0
   -8.5249   -0.8604   -0.1291 C   0  0  0  0  0  0  0  0  0  0  0  0
   -7.7922   -2.9915   -1.1374 C   0  0  0  0  0  0  0  0  0  0  0  0
   -4.6926   -1.8249   -1.3017 C   0  0  0  0  0  0  0  0  0  0  0  0
   -3.5182   -1.7068   -0.5964 C   0  0  0  0  0  0  0  0  0  0  0  0
    0.2164    0.2733    0.9504 N   0  0  0  0  0  0  0  0  0  0  0  0
    1.4244   -0.3744    0.6122 C   0  0  0  0  0  0  0  0  0  0  0  0
    1.5081   -1.0738   -0.4215 O   0  0  0  0  0  0  0  0  0  0  0  0
    2.5921   -0.2028    1.5166 C   0  0  0  0  0  0  0  0  0  0  0  0
    3.6996   -0.9468    0.9905 N   0  0  0  0  0  0  0  0  0  0  0  0
    4.5866   -0.3557    0.1292 C   0  0  0  0  0  0  0  0  0  0  0  0
    4.3554    0.8413   -0.1453 O   0  0  0  0  0  0  0  0  0  0  0  0
    5.6407   -1.0644   -0.3738 C   0  0  0  0  0  0  0  0  0  0  0  0
    6.6078   -0.4505   -1.2984 C   0  0  0  0  0  0  0  0  0  0  0  0
    7.5883    0.4385   -0.6349 C   0  0  0  0  0  0  0  0  0  0  0  0
    7.4196    1.8015   -0.5624 C   0  0  0  0  0  0  0  0  0  0  0  0
    8.3360    2.6263    0.0629 C   0  0  0  0  0  0  0  0  0  0  0  0
    9.4693    2.1125    0.6459 C   0  0  0  0  0  0  0  0  0  0  0  0
    9.6616    0.7448    0.5861 C   0  0  0  0  0  0  0  0  0  0  0  0
    8.7284   -0.0689   -0.0473 C   0  0  0  0  0  0  0  0  0  0  0  0
    5.7810   -2.3426   -0.0041 N   0  0  0  0  0  0  0  0  0  0  0  0
    4.9195   -2.9495    0.8443 C   0  0  0  0  0  0  0  0  0  0  0  0
    5.1069   -4.2693    1.1915 C   0  0  0  0  0  0  0  0  0  0  0  0
    4.2470   -4.9213    2.0511 C   0  0  0  0  0  0  0  0  0  0  0  0
    3.1780   -4.2220    2.5677 C   0  0  0  0  0  0  0  0  0  0  0  0
    3.0091   -2.8930    2.2038 C   0  0  0  0  0  0  0  0  0  0  0  0
    3.8597   -2.2309    1.3477 C   0  0  0  0  0  0  0  0  0  0  0  0
   -0.4281    5.9068    0.3110 H   0  0  0  0  0  0  0  0  0  0  0  0
   -0.3344    4.6372    1.6415 H   0  0  0  0  0  0  0  0  0  0  0  0
    0.8383    4.5647    0.3090 H   0  0  0  0  0  0  0  0  0  0  0  0
   -3.2755    3.8837   -0.5265 H   0  0  0  0  0  0  0  0  0  0  0  0
   -2.7337    3.6549    1.1876 H   0  0  0  0  0  0  0  0  0  0  0  0
   -2.6298    5.2719    0.4254 H   0  0  0  0  0  0  0  0  0  0  0  0
   -0.5684    5.0140   -1.8858 H   0  0  0  0  0  0  0  0  0  0  0  0
   -1.8899    3.8531   -2.2301 H   0  0  0  0  0  0  0  0  0  0  0  0
   -0.1470    3.2897   -2.0075 H   0  0  0  0  0  0  0  0  0  0  0  0
   -0.6949   -0.5132   -0.7970 H   0  0  0  0  0  0  0  0  0  0  0  0
   -2.1858    0.0909    1.8716 H   0  0  0  0  0  0  0  0  0  0  0  0
   -1.6549   -1.5080    1.3478 H   0  0  0  0  0  0  0  0  0  0  0  0
   -4.0416    1.2368    0.9670 H   0  0  0  0  0  0  0  0  0  0  0  0
   -6.1170    1.0577   -0.2661 H   0  0  0  0  0  0  0  0  0  0  0  0
  -10.0533   -1.6964   -2.0928 H   0  0  0  0  0  0  0  0  0  0  0  0
   -8.7087   -1.9271   -3.3371 H   0  0  0  0  0  0  0  0  0  0  0  0
   -9.0843   -0.2761   -2.7225 H   0  0  0  0  0  0  0  0  0  0  0  0
   -9.2530   -1.5863    0.3190 H   0  0  0  0  0  0  0  0  0  0  0  0
   -9.0991    0.0505   -0.3645 H   0  0  0  0  0  0  0  0  0  0  0  0
   -7.7373   -0.6858    0.6319 H   0  0  0  0  0  0  0  0  0  0  0  0
   -7.5688   -3.5162   -2.0914 H   0  0  0  0  0  0  0  0  0  0  0  0
   -7.0009   -3.1799   -0.3809 H   0  0  0  0  0  0  0  0  0  0  0  0
   -8.7382   -3.3872   -0.7215 H   0  0  0  0  0  0  0  0  0  0  0  0
   -4.8516   -2.6993   -1.9335 H   0  0  0  0  0  0  0  0  0  0  0  0
   -2.7614   -2.4759   -0.6704 H   0  0  0  0  0  0  0  0  0  0  0  0
    0.1243    0.8603    1.8066 H   0  0  0  0  0  0  0  0  0  0  0  0
    2.8926    0.8908    1.4346 H   0  0  0  0  0  0  0  0  0  0  0  0
    2.3580   -0.3994    2.5588 H   0  0  0  0  0  0  0  0  0  0  0  0
    6.0962    0.1316   -2.1119 H   0  0  0  0  0  0  0  0  0  0  0  0
    7.1326   -1.2671   -1.8421 H   0  0  0  0  0  0  0  0  0  0  0  0
    6.5216    2.2160   -1.0292 H   0  0  0  0  0  0  0  0  0  0  0  0
    8.1777    3.6894    0.1040 H   0  0  0  0  0  0  0  0  0  0  0  0
   10.2117    2.7244    1.1450 H   0  0  0  0  0  0  0  0  0  0  0  0
   10.5410    0.2759    1.0306 H   0  0  0  0  0  0  0  0  0  0  0  0
    8.8664   -1.1538   -0.1032 H   0  0  0  0  0  0  0  0  0  0  0  0
    5.9560   -4.7961    0.7714 H   0  0  0  0  0  0  0  0  0  0  0  0
    4.3824   -5.9584    2.3323 H   0  0  0  0  0  0  0  0  0  0  0  0
    2.4575   -4.6685    3.2515 H   0  0  0  0  0  0  0  0  0  0  0  0
    2.1654   -2.3670    2.6154 H   0  0  0  0  0  0  0  0  0  0  0  0
  1  2  1  0
  2  3  1  0
  2  4  1  0
  2  5  1  0
  5  6  1  0
  6  7  2  0
  6  8  1  0
  8  9  1  0
  9 10  1  0
 10 11  2  0
 11 12  1  0
 12 13  2  0
 13 14  1  0
 14 15  1  0
 15 16  1  0
 15 17  1  0
 15 18  1  0
 13 19  1  0
 19 20  2  0
  8 21  1  0
 21 22  1  0
 22 23  2  0
 22 24  1  0
 24 25  1  0
 25 26  1  0
 26 27  2  0
 26 28  1  0
 28 29  1  0
 29 30  1  0
 30 31  2  0
 31 32  1  0
 32 33  2  0
 33 34  1  0
 34 35  2  0
 28 36  2  0
 36 37  1  0
 37 38  2  0
 38 39  1  0
 39 40  2  0
 40 41  1  0
 41 42  2  0
 20 10  1  0
 42 25  1  0
 35 30  1  0
 42 37  1  0
  1 43  1  0
  1 44  1  0
  1 45  1  0
  3 46  1  0
  3 47  1  0
  3 48  1  0
  4 49  1  0
  4 50  1  0
  4 51  1  0
  8 52  1  0
  9 53  1  0
  9 54  1  0
 11 55  1  0
 12 56  1  0
 16 57  1  0
 16 58  1  0
 16 59  1  0
 17 60  1  0
 17 61  1  0
 17 62  1  0
 18 63  1  0
 18 64  1  0
 18 65  1  0
 19 66  1  0
 20 67  1  0
 21 68  1  0
 24 69  1  0
 24 70  1  0
 29 71  1  0
 29 72  1  0
 31 73  1  0
 32 74  1  0
 33 75  1  0
 34 76  1  0
 35 77  1  0
 38 78  1  0
 39 79  1  0
 40 80  1  0
 41 81  1  0
M  END
$$$$
