@<TRIPOS>MOLECULE
*****
 81 84 0 0 0
SMALL
GASTEIGER

@<TRIPOS>ATOM
      1 C          -0.2026    4.8486    0.5492 C.3     1  UNL1       -0.0254
      2 C          -1.1179    3.8849   -0.1759 C.3     1  UNL1        0.1053
      3 C          -2.5395    4.2014    0.2409 C.3     1  UNL1       -0.0254
      4 C          -0.9510    3.9828   -1.6777 C.3     1  UNL1       -0.0254
      5 O          -0.7207    2.5785    0.1920 O.3     1  UNL1       -0.4576
      6 C          -1.3842    1.4762   -0.3202 C.2     1  UNL1        0.3285
      7 O          -2.3329    1.7222   -1.1091 O.2     1  UNL1       -0.2487
      8 C          -0.9560    0.1231    0.0746 C.3     1  UNL1        0.1244
      9 C          -2.0072   -0.5306    0.9448 C.3     1  UNL1        0.0012
     10 C          -3.2650   -0.6298    0.2128 C.ar    1  UNL1       -0.0449
     11 C          -4.2090    0.3587    0.3232 C.ar    1  UNL1       -0.0550
     12 C          -5.3887    0.2571   -0.3747 C.ar    1  UNL1       -0.0197
     13 C          -5.6318   -0.8275   -1.1834 C.ar    1  UNL1        0.1213
     14 O          -6.8173   -0.9021   -1.8675 O.3     1  UNL1       -0.4865
     15 C          -7.9891   -1.5035   -1.3776 C.3     1  UNL1        0.1023
     16 C          -9.0587   -1.3668   -2.4471 C.3     1  UNL1       -0.0255
     17 C          -8.5249   -0.8604   -0.1291 C.3     1  UNL1       -0.0255
     18 C          -7.7922   -2.9915   -1.1374 C.3     1  UNL1       -0.0255
     19 C          -4.6926   -1.8249   -1.3017 C.ar    1  UNL1       -0.0197
     20 C          -3.5182   -1.7068   -0.5964 C.ar    1  UNL1       -0.0550
     21 N           0.2164    0.2733    0.9504 N.am    1  UNL1       -0.3006
     22 C           1.4244   -0.3744    0.6122 C.2     1  UNL1        0.2336
     23 O           1.5081   -1.0738   -0.4215 O.2     1  UNL1       -0.2738
     24 C           2.5921   -0.2028    1.5166 C.3     1  UNL1        0.1030
     25 N           3.6996   -0.9468    0.9905 N.ar    1  UNL1       -0.2964
     26 C           4.5866   -0.3557    0.1292 C.ar    1  UNL1        0.2739
     27 O           4.3554    0.8413   -0.1453 O.2     1  UNL1       -0.2657
     28 C           5.6407   -1.0644   -0.3738 C.ar    1  UNL1        0.1105
     29 C           6.6078   -0.4505   -1.2984 C.3     1  UNL1        0.0201
     30 C           7.5883    0.4385   -0.6349 C.ar    1  UNL1       -0.0414
     31 C           7.4196    1.8015   -0.5624 C.ar    1  UNL1       -0.0582
     32 C           8.3360    2.6263    0.0629 C.ar    1  UNL1       -0.0615
     33 C           9.4693    2.1125    0.6459 C.ar    1  UNL1       -0.0617
     34 C           9.6616    0.7448    0.5861 C.ar    1  UNL1       -0.0615
     35 C           8.7284   -0.0689   -0.0473 C.ar    1  UNL1       -0.0582
     36 N           5.7810   -2.3426   -0.0041 N.ar    1  UNL1       -0.2444
     37 C           4.9195   -2.9495    0.8443 C.ar    1  UNL1        0.0879
     38 C           5.1069   -4.2693    1.1915 C.ar    1  UNL1       -0.0343
     39 C           4.2470   -4.9213    2.0511 C.ar    1  UNL1       -0.0596
     40 C           3.1780   -4.2220    2.5677 C.ar    1  UNL1       -0.0597
     41 C           3.0091   -2.8930    2.2038 C.ar    1  UNL1       -0.0360
     42 C           3.8597   -2.2309    1.3477 C.ar    1  UNL1        0.0708
     43 H          -0.4281    5.9068    0.3110 H       1  UNL1        0.0268
     44 H          -0.3344    4.6372    1.6415 H       1  UNL1        0.0268
     45 H           0.8383    4.5647    0.3090 H       1  UNL1        0.0268
     46 H          -3.2755    3.8837   -0.5265 H       1  UNL1        0.0268
     47 H          -2.7337    3.6549    1.1876 H       1  UNL1        0.0268
     48 H          -2.6298    5.2719    0.4254 H       1  UNL1        0.0268
     49 H          -0.5684    5.0140   -1.8858 H       1  UNL1        0.0268
     50 H          -1.8899    3.8531   -2.2301 H       1  UNL1        0.0268
     51 H          -0.1470    3.2897   -2.0075 H       1  UNL1        0.0268
     52 H          -0.6949   -0.5132   -0.7970 H       1  UNL1        0.0618
     53 H          -2.1858    0.0909    1.8716 H       1  UNL1        0.0337
     54 H          -1.6549   -1.5080    1.3478 H       1  UNL1        0.0337
     55 H          -4.0416    1.2368    0.9670 H       1  UNL1        0.0621
     56 H          -6.1170    1.0577   -0.2661 H       1  UNL1        0.0654
     57 H         -10.0533   -1.6964   -2.0928 H       1  UNL1        0.0268
     58 H          -8.7087   -1.9271   -3.3371 H       1  UNL1        0.0268
     59 H          -9.0843   -0.2761   -2.7225 H       1  UNL1        0.0268
     60 H          -9.2530   -1.5863    0.3190 H       1  UNL1        0.0268
     61 H          -9.0991    0.0505   -0.3645 H       1  UNL1        0.0268
     62 H          -7.7373   -0.6858    0.6319 H       1  UNL1        0.0268
     63 H          -7.5688   -3.5162   -2.0914 H       1  UNL1        0.0268
     64 H          -7.0009   -3.1799   -0.3809 H       1  UNL1        0.0268
     65 H          -8.7382   -3.3872   -0.7215 H       1  UNL1        0.0268
     66 H          -4.8516   -2.6993   -1.9335 H       1  UNL1        0.0654
     67 H          -2.7614   -2.4759   -0.6704 H       1  UNL1        0.0621
     68 H           0.1243    0.8603    1.8066 H       1  UNL1        0.1496
     69 H           2.8926    0.8908    1.4346 H       1  UNL1        0.0589
     70 H           2.3580   -0.3994    2.5588 H       1  UNL1        0.0589
     71 H           6.0962    0.1316   -2.1119 H       1  UNL1        0.0378
     72 H           7.1326   -1.2671   -1.8421 H       1  UNL1        0.0378
     73 H           6.5216    2.2160   -1.0292 H       1  UNL1        0.0620
     74 H           8.1777    3.6894    0.1040 H       1  UNL1        0.0618
     75 H          10.2117    2.7244    1.1450 H       1  UNL1        0.0618
     76 H          10.5410    0.2759    1.0306 H       1  UNL1        0.0618
     77 H           8.8664   -1.1538   -0.1032 H       1  UNL1        0.0620
     78 H           5.9560   -4.7961    0.7714 H       1  UNL1        0.0639
     79 H           4.3824   -5.9584    2.3323 H       1  UNL1        0.0618
     80 H           2.4575   -4.6685    3.2515 H       1  UNL1        0.0618
     81 H           2.1654   -2.3670    2.6154 H       1  UNL1        0.0639
@<TRIPOS>BOND
     1     1     2    1
     2     2     3    1
     3     2     4    1
     4     2     5    1
     5     5     6    1
     6     6     7    2
     7     6     8    1
     8     8     9    1
     9     9    10    1
    10    10    11   ar
    11    11    12   ar
    12    12    13   ar
    13    13    14    1
    14    14    15    1
    15    15    16    1
    16    15    17    1
    17    15    18    1
    18    13    19   ar
    19    19    20   ar
    20     8    21    1
    21    21    22   am
    22    22    23    2
    23    22    24    1
    24    24    25    1
    25    25    26   ar
    26    26    27    2
    27    26    28   ar
    28    28    29    1
    29    29    30    1
    30    30    31   ar
    31    31    32   ar
    32    32    33   ar
    33    33    34   ar
    34    34    35   ar
    35    28    36   ar
    36    36    37   ar
    37    37    38   ar
    38    38    39   ar
    39    39    40   ar
    40    40    41   ar
    41    41    42   ar
    42    20    10   ar
    43    42    25   ar
    44    35    30   ar
    45    42    37   ar
    46     1    43    1
    47     1    44    1
    48     1    45    1
    49     3    46    1
    50     3    47    1
    51     3    48    1
    52     4    49    1
    53     4    50    1
    54     4    51    1
    55     8    52    1
    56     9    53    1
    57     9    54    1
    58    11    55    1
    59    12    56    1
    60    16    57    1
    61    16    58    1
    62    16    59    1
    63    17    60    1
    64    17    61    1
    65    17    62    1
    66    18    63    1
    67    18    64    1
    68    18    65    1
    69    19    66    1
    70    20    67    1
    71    21    68    1
    72    24    69    1
    73    24    70    1
    74    29    71    1
    75    29    72    1
    76    31    73    1
    77    32    74    1
    78    33    75    1
    79    34    76    1
    80    35    77    1
    81    38    78    1
    82    39    79    1
    83    40    80    1
    84    41    81    1
