@<TRIPOS>MOLECULE
*****
 58 62 0 0 0
SMALL
GASTEIGER

@<TRIPOS>ATOM
      1 C           0.7930    0.3197   -1.8945 C.3     1  UNL1       -0.0351
      2 C           0.5544    0.3379   -0.3425 C.3     1  UNL1        0.0935
      3 C          -0.2870   -0.7784   -0.0443 C.ar    1  UNL1        0.0158
      4 C          -1.5816   -0.7455    0.3318 C.ar    1  UNL1       -0.0463
      5 C          -2.4329   -1.8577    0.6446 C.ar    1  UNL1       -0.0217
      6 C          -3.8181   -1.4924    0.8864 C.2     1  UNL1       -0.0172
      7 C          -4.8664   -2.2871    0.5740 C.2     1  UNL1        0.1492
      8 F          -4.7453   -3.4739    0.0318 F       1  UNL1       -0.2032
      9 C          -6.2339   -1.7001    0.8658 C.ar    1  UNL1        0.0990
     10 C          -6.3087   -0.8592    1.9152 C.ar    1  UNL1       -0.0322
     11 C          -7.3671    0.0751    2.0392 C.ar    1  UNL1       -0.0408
     12 C          -8.3323    0.1152    1.0573 C.ar    1  UNL1        0.0699
     13 C          -9.3246    1.2755    1.0605 C.1     1  UNL1        0.1007
     14 N          -9.9449    1.9783    1.0687 N.1     1  UNL1       -0.1908
     15 C          -8.2450   -0.7664    0.0074 C.ar    1  UNL1        0.0457
     16 N          -7.2057   -1.6851   -0.1075 N.ar    1  UNL1       -0.2514
     17 C          -1.8786   -3.0266    0.5575 C.ar    1  UNL1       -0.0518
     18 C          -0.5417   -3.1558    0.1686 C.ar    1  UNL1       -0.0255
     19 C           0.2776   -2.1975   -0.1388 C.ar    1  UNL1        0.1289
     20 F           1.5025   -2.2548   -0.5902 F       1  UNL1       -0.2051
     21 N          -0.3944    1.5045   -0.1284 N.2     1  UNL1       -0.2521
     22 C          -0.0928    2.7097   -0.2366 C.2     1  UNL1        0.1485
     23 N          -0.9962    3.7567   -0.0079 N.pl3   1  UNL1       -0.3380
     24 S           1.6104    3.0737   -0.6365 S.3     1  UNL1       -0.0746
     25 C           2.6047    1.7205    0.0903 C.3     1  UNL1        0.1054
     26 C           3.9623    1.7582   -0.3408 C.2     1  UNL1        0.2325
     27 O           4.3731    3.0383   -0.5405 O.2     1  UNL1       -0.2741
     28 N           5.0028    0.8799   -0.6401 N.am    1  UNL1       -0.2978
     29 C           6.2398    1.4499   -1.2960 C.3     1  UNL1        0.0172
     30 C           7.0754    0.3147   -1.7164 C.3     1  UNL1       -0.0095
     31 C           6.5638   -0.8954   -1.0104 C.3     1  UNL1        0.0723
     32 O           7.4631   -1.2185   -0.0117 O.3     1  UNL1       -0.3902
     33 C           5.2215   -0.4942   -0.4188 C.3     1  UNL1        0.0408
     34 C           2.1810    1.3606    1.4757 C.3     1  UNL1       -0.0220
     35 C           1.8556    0.4502    0.2777 C.3     1  UNL1        0.0134
     36 H           1.2470   -0.6943   -2.0892 H       1  UNL1        0.0256
     37 H           1.5326    1.0616   -2.1730 H       1  UNL1        0.0256
     38 H          -0.2156    0.3549   -2.3151 H       1  UNL1        0.0256
     39 H          -2.0934    0.2374    0.3469 H       1  UNL1        0.0628
     40 H          -4.0779   -0.5308    1.3309 H       1  UNL1        0.0653
     41 H          -5.5788   -0.8932    2.7610 H       1  UNL1        0.0640
     42 H          -7.4402    0.7383    2.9139 H       1  UNL1        0.0631
     43 H          -9.0547   -0.7562   -0.7244 H       1  UNL1        0.0843
     44 H          -2.4462   -3.9690    0.7909 H       1  UNL1        0.0624
     45 H          -0.2154   -4.2530    0.1784 H       1  UNL1        0.0646
     46 H          -1.7003    3.8216    0.7983 H       1  UNL1        0.1442
     47 H          -1.0332    4.5766   -0.6974 H       1  UNL1        0.1442
     48 H           5.8942    2.0479   -2.2126 H       1  UNL1        0.0465
     49 H           6.7155    2.1542   -0.6288 H       1  UNL1        0.0465
     50 H           6.9932    0.1907   -2.8420 H       1  UNL1        0.0306
     51 H           8.1703    0.4970   -1.4463 H       1  UNL1        0.0306
     52 H           6.4072   -1.7581   -1.7214 H       1  UNL1        0.0609
     53 H           7.8779   -0.4487    0.4371 H       1  UNL1        0.2098
     54 H           4.4250   -1.1397   -0.8722 H       1  UNL1        0.0490
     55 H           5.2676   -0.6774    0.6976 H       1  UNL1        0.0490
     56 H           2.9137    0.9234    2.2176 H       1  UNL1        0.0287
     57 H           1.2309    1.7580    1.9228 H       1  UNL1        0.0287
     58 H           2.4972   -0.4713    0.2295 H       1  UNL1        0.0346
@<TRIPOS>BOND
     1     2     1    1
     2     2     3    1
     3     3     4   ar
     4     4     5   ar
     5     5     6    1
     6     6     7    2
     7     7     8    1
     8     7     9    1
     9     9    10   ar
    10    10    11   ar
    11    11    12   ar
    12    12    13    1
    13    13    14    3
    14    12    15   ar
    15    15    16   ar
    16     5    17   ar
    17    17    18   ar
    18    18    19   ar
    19    19    20    1
    20     2    21    1
    21    21    22    2
    22    22    23    1
    23    22    24    1
    24    24    25    1
    25    25    26    1
    26    26    27    2
    27    26    28   am
    28    28    29    1
    29    29    30    1
    30    30    31    1
    31    31    32    1
    32    31    33    1
    33    25    34    1
    34    34    35    1
    35    35     2    1
    36    19     3   ar
    37    35    25    1
    38    16     9   ar
    39    33    28    1
    40     1    36    1
    41     1    37    1
    42     1    38    1
    43     4    39    1
    44     6    40    1
    45    10    41    1
    46    11    42    1
    47    15    43    1
    48    17    44    1
    49    18    45    1
    50    23    46    1
    51    23    47    1
    52    29    48    1
    53    29    49    1
    54    30    50    1
    55    30    51    1
    56    31    52    1
    57    32    53    1
    58    33    54    1
    59    33    55    1
    60    34    56    1
    61    34    57    1
    62    35    58    1
