
     RDKit          3D

 58 62  0  0  0  0  0  0  0  0999 V2000
    0.7930    0.3197   -1.8945 C   0  0  0  0  0  0  0  0  0  0  0  0
    0.5544    0.3379   -0.3425 C   0  0  2  0  0  0  0  0  0  0  0  0
   -0.2870   -0.7784   -0.0443 C   0  0  0  0  0  0  0  0  0  0  0  0
   -1.5816   -0.7455    0.3318 C   0  0  0  0  0  0  0  0  0  0  0  0
   -2.4329   -1.8577    0.6446 C   0  0  0  0  0  0  0  0  0  0  0  0
   -3.8181   -1.4924    0.8864 C   0  0  0  0  0  0  0  0  0  0  0  0
   -4.8664   -2.2871    0.5740 C   0  0  0  0  0  0  0  0  0  0  0  0
   -4.7453   -3.4739    0.0318 F   0  0  0  0  0  0  0  0  0  0  0  0
   -6.2339   -1.7001    0.8658 C   0  0  0  0  0  0  0  0  0  0  0  0
   -6.3087   -0.8592    1.9152 C   0  0  0  0  0  0  0  0  0  0  0  0
   -7.3671    0.0751    2.0392 C   0  0  0  0  0  0  0  0  0  0  0  0
   -8.3323    0.1152    1.0573 C   0  0  0  0  0  0  0  0  0  0  0  0
   -9.3246    1.2755    1.0605 C   0  0  0  0  0  0  0  0  0  0  0  0
   -9.9449    1.9783    1.0687 N   0  0  0  0  0  0  0  0  0  0  0  0
   -8.2450   -0.7664    0.0074 C   0  0  0  0  0  0  0  0  0  0  0  0
   -7.2057   -1.6851   -0.1075 N   0  0  0  0  0  0  0  0  0  0  0  0
   -1.8786   -3.0266    0.5575 C   0  0  0  0  0  0  0  0  0  0  0  0
   -0.5417   -3.1558    0.1686 C   0  0  0  0  0  0  0  0  0  0  0  0
    0.2776   -2.1975   -0.1388 C   0  0  0  0  0  0  0  0  0  0  0  0
    1.5025   -2.2548   -0.5902 F   0  0  0  0  0  0  0  0  0  0  0  0
   -0.3944    1.5045   -0.1284 N   0  0  0  0  0  0  0  0  0  0  0  0
   -0.0928    2.7097   -0.2366 C   0  0  0  0  0  0  0  0  0  0  0  0
   -0.9962    3.7567   -0.0079 N   0  0  0  0  0  0  0  0  0  0  0  0
    1.6104    3.0737   -0.6365 S   0  0  0  0  0  0  0  0  0  0  0  0
    2.6047    1.7205    0.0903 C   0  0  1  0  0  0  0  0  0  0  0  0
    3.9623    1.7582   -0.3408 C   0  0  0  0  0  0  0  0  0  0  0  0
    4.3731    3.0383   -0.5405 O   0  0  0  0  0  0  0  0  0  0  0  0
    5.0028    0.8799   -0.6401 N   0  0  0  0  0  0  0  0  0  0  0  0
    6.2398    1.4499   -1.2960 C   0  0  0  0  0  0  0  0  0  0  0  0
    7.0754    0.3147   -1.7164 C   0  0  0  0  0  0  0  0  0  0  0  0
    6.5638   -0.8954   -1.0104 C   0  0  1  0  0  0  0  0  0  0  0  0
    7.4631   -1.2185   -0.0117 O   0  0  0  0  0  0  0  0  0  0  0  0
    5.2215   -0.4942   -0.4188 C   0  0  0  0  0  0  0  0  0  0  0  0
    2.1810    1.3606    1.4757 C   0  0  0  0  0  0  0  0  0  0  0  0
    1.8556    0.4502    0.2777 C   0  0  1  0  0  0  0  0  0  0  0  0
    1.2470   -0.6943   -2.0892 H   0  0  0  0  0  0  0  0  0  0  0  0
    1.5326    1.0616   -2.1730 H   0  0  0  0  0  0  0  0  0  0  0  0
   -0.2156    0.3549   -2.3151 H   0  0  0  0  0  0  0  0  0  0  0  0
   -2.0934    0.2374    0.3469 H   0  0  0  0  0  0  0  0  0  0  0  0
   -4.0779   -0.5308    1.3309 H   0  0  0  0  0  0  0  0  0  0  0  0
   -5.5788   -0.8932    2.7610 H   0  0  0  0  0  0  0  0  0  0  0  0
   -7.4402    0.7383    2.9139 H   0  0  0  0  0  0  0  0  0  0  0  0
   -9.0547   -0.7562   -0.7244 H   0  0  0  0  0  0  0  0  0  0  0  0
   -2.4462   -3.9690    0.7909 H   0  0  0  0  0  0  0  0  0  0  0  0
   -0.2154   -4.2530    0.1784 H   0  0  0  0  0  0  0  0  0  0  0  0
   -1.7003    3.8216    0.7983 H   0  0  0  0  0  0  0  0  0  0  0  0
   -1.0332    4.5766   -0.6974 H   0  0  0  0  0  0  0  0  0  0  0  0
    5.8942    2.0479   -2.2126 H   0  0  0  0  0  0  0  0  0  0  0  0
    6.7155    2.1542   -0.6288 H   0  0  0  0  0  0  0  0  0  0  0  0
    6.9932    0.1907   -2.8420 H   0  0  0  0  0  0  0  0  0  0  0  0
    8.1703    0.4970   -1.4463 H   0  0  0  0  0  0  0  0  0  0  0  0
    6.4072   -1.7581   -1.7214 H   0  0  0  0  0  0  0  0  0  0  0  0
    7.8779   -0.4487    0.4371 H   0  0  0  0  0  0  0  0  0  0  0  0
    4.4250   -1.1397   -0.8722 H   0  0  0  0  0  0  0  0  0  0  0  0
    5.2676   -0.6774    0.6976 H   0  0  0  0  0  0  0  0  0  0  0  0
    2.9137    0.9234    2.2176 H   0  0  0  0  0  0  0  0  0  0  0  0
    1.2309    1.7580    1.9228 H   0  0  0  0  0  0  0  0  0  0  0  0
    2.4972   -0.4713    0.2295 H   0  0  0  0  0  0  0  0  0  0  0  0
  2  1  1  6
  2  3  1  0
  3  4  2  0
  4  5  1  0
  5  6  1  0
  6  7  2  0
  7  8  1  0
  7  9  1  0
  9 10  2  0
 10 11  1  0
 11 12  2  0
 12 13  1  0
 13 14  3  0
 12 15  1  0
 15 16  2  0
  5 17  2  0
 17 18  1  0
 18 19  2  0
 19 20  1  0
  2 21  1  0
 21 22  2  0
 22 23  1  0
 22 24  1  0
 24 25  1  0
 25 26  1  1
 26 27  2  0
 26 28  1  0
 28 29  1  0
 29 30  1  0
 30 31  1  0
 31 32  1  0
 31 33  1  0
 25 34  1  0
 34 35  1  0
 35  2  1  0
 19  3  1  0
 35 25  1  0
 16  9  1  0
 33 28  1  0
  1 36  1  0
  1 37  1  0
  1 38  1  0
  4 39  1  0
  6 40  1  0
 10 41  1  0
 11 42  1  0
 15 43  1  0
 17 44  1  0
 18 45  1  0
 23 46  1  0
 23 47  1  0
 29 48  1  0
 29 49  1  0
 30 50  1  0
 30 51  1  0
 31 52  1  6
 32 53  1  0
 33 54  1  0
 33 55  1  0
 34 56  1  0
 34 57  1  0
 35 58  1  1
M  END
$$$$
