@<TRIPOS>MOLECULE
*****
 71 76 0 0 0
SMALL
GASTEIGER

@<TRIPOS>ATOM
      1 C           8.9635   -0.9908   -1.4789 C.3     1  UNL1        0.0032
      2 N           7.5884   -0.5515   -1.3519 N.am    1  UNL1       -0.3024
      3 C           7.2558    0.8288   -1.6628 C.3     1  UNL1        0.0032
      4 C           6.6041   -1.4839   -0.9286 C.2     1  UNL1        0.2627
      5 O           6.9191   -2.6647   -0.6673 O.2     1  UNL1       -0.2684
      6 C           5.1937   -1.1026   -0.7827 C.ar    1  UNL1        0.1070
      7 C           4.1490   -1.5274   -1.6172 C.ar    1  UNL1       -0.0209
      8 C           3.0101   -0.9314   -1.1364 C.ar    1  UNL1        0.0378
      9 C           1.6915   -0.9701   -1.5487 C.ar    1  UNL1        0.0419
     10 N           0.7885   -0.2574   -0.8649 N.ar    1  UNL1       -0.2219
     11 C           1.0996    0.5022    0.2131 C.ar    1  UNL1        0.2224
     12 N           0.0982    1.2560    0.8912 N.pl3   1  UNL1       -0.2685
     13 C          -1.2280    1.2381    0.3816 C.ar    1  UNL1        0.1250
     14 C          -2.2466    1.9525    0.9717 C.ar    1  UNL1       -0.0208
     15 C          -3.5024    1.8962    0.4203 C.ar    1  UNL1       -0.0449
     16 C          -3.7135    1.1317   -0.7029 C.ar    1  UNL1        0.0551
     17 C          -5.0287    1.0682   -1.3142 C.2     1  UNL1        0.2484
     18 O          -5.1569    1.4650   -2.5200 O.2     1  UNL1       -0.2699
     19 N          -6.1762    0.5886   -0.6362 N.am    1  UNL1       -0.2931
     20 C          -5.9522    0.1519    0.7092 C.3     1  UNL1        0.0280
     21 C          -6.8096   -0.9776    1.1468 C.3     1  UNL1        0.0147
     22 N          -7.9386   -1.2949    0.3509 N.3     1  UNL1       -0.3007
     23 C          -8.9620   -0.2806    0.3160 C.3     1  UNL1        0.0006
     24 C          -8.5085    0.9671   -0.4086 C.3     1  UNL1       -0.0214
     25 C          -7.3917    0.6274   -1.3943 C.3     1  UNL1        0.0287
     26 C          -7.7441   -0.7096   -2.0109 C.3     1  UNL1       -0.0214
     27 C          -7.6326   -1.8124   -0.9690 C.3     1  UNL1        0.0006
     28 C          -2.6881    0.4210   -1.2841 C.ar    1  UNL1        0.0418
     29 N          -1.4856    0.5114   -0.7066 N.ar    1  UNL1       -0.2394
     30 N           2.3870    0.5203    0.5912 N.ar    1  UNL1       -0.1962
     31 C           3.3607   -0.1704   -0.0441 C.ar    1  UNL1        0.1466
     32 N           4.7097   -0.2984    0.1463 N.ar    1  UNL1       -0.3180
     33 C           5.3322    0.4081    1.2467 C.3     1  UNL1        0.0366
     34 C           4.4826    0.3194    2.5019 C.3     1  UNL1       -0.0320
     35 C           5.3805   -0.2301    3.5918 C.3     1  UNL1       -0.0511
     36 C           6.7538    0.2459    3.1551 C.3     1  UNL1       -0.0511
     37 C           6.6670   -0.0895    1.6509 C.3     1  UNL1       -0.0320
     38 H           9.0595   -1.7278   -2.3000 H       1  UNL1        0.0428
     39 H           9.2142   -1.5335   -0.5448 H       1  UNL1        0.0428
     40 H           9.6447   -0.1237   -1.6032 H       1  UNL1        0.0428
     41 H           7.8313    1.5316   -0.9975 H       1  UNL1        0.0428
     42 H           7.5624    1.0493   -2.6989 H       1  UNL1        0.0428
     43 H           6.1631    0.9886   -1.4760 H       1  UNL1        0.0428
     44 H           4.2567   -2.1936   -2.4631 H       1  UNL1        0.0647
     45 H           1.4480   -1.5759   -2.4037 H       1  UNL1        0.0838
     46 H           0.2817    1.8218    1.7409 H       1  UNL1        0.1564
     47 H          -2.0058    2.5383    1.8615 H       1  UNL1        0.0652
     48 H          -4.3117    2.4538    0.8743 H       1  UNL1        0.0627
     49 H          -4.8627   -0.0732    0.8342 H       1  UNL1        0.0477
     50 H          -6.1624    1.0234    1.4044 H       1  UNL1        0.0477
     51 H          -7.1637   -0.8114    2.1902 H       1  UNL1        0.0442
     52 H          -6.1457   -1.8961    1.1761 H       1  UNL1        0.0442
     53 H          -9.2298   -0.0091    1.3356 H       1  UNL1        0.0427
     54 H          -9.8707   -0.6519   -0.1987 H       1  UNL1        0.0427
     55 H          -9.3422    1.4727   -0.9302 H       1  UNL1        0.0295
     56 H          -8.0740    1.7095    0.3007 H       1  UNL1        0.0295
     57 H          -7.3895    1.4003   -2.1848 H       1  UNL1        0.0501
     58 H          -8.8139   -0.6488   -2.2914 H       1  UNL1        0.0295
     59 H          -7.0848   -0.8895   -2.8770 H       1  UNL1        0.0295
     60 H          -8.2554   -2.6883   -1.2346 H       1  UNL1        0.0427
     61 H          -6.5795   -2.1585   -0.9439 H       1  UNL1        0.0427
     62 H          -2.8993   -0.1744   -2.1736 H       1  UNL1        0.0838
     63 H           5.3943    1.4759    0.9695 H       1  UNL1        0.0528
     64 H           4.1168    1.3030    2.8522 H       1  UNL1        0.0285
     65 H           3.6787   -0.4275    2.3411 H       1  UNL1        0.0285
     66 H           5.4019   -1.3328    3.5482 H       1  UNL1        0.0266
     67 H           5.1571    0.1298    4.5931 H       1  UNL1        0.0266
     68 H           7.4933   -0.4154    3.6365 H       1  UNL1        0.0266
     69 H           6.9188    1.3096    3.3213 H       1  UNL1        0.0266
     70 H           6.8346   -1.1687    1.6008 H       1  UNL1        0.0285
     71 H           7.4642    0.5362    1.1990 H       1  UNL1        0.0285
@<TRIPOS>BOND
     1     1     2    1
     2     2     3    1
     3     2     4   am
     4     4     5    2
     5     4     6    1
     6     6     7   ar
     7     7     8   ar
     8     8     9   ar
     9     9    10   ar
    10    10    11   ar
    11    11    12    1
    12    12    13    1
    13    13    14   ar
    14    14    15   ar
    15    15    16   ar
    16    16    17    1
    17    17    18    2
    18    17    19   am
    19    19    20    1
    20    20    21    1
    21    21    22    1
    22    22    23    1
    23    23    24    1
    24    24    25    1
    25    25    26    1
    26    26    27    1
    27    16    28   ar
    28    28    29   ar
    29    11    30   ar
    30    30    31   ar
    31    31    32   ar
    32    32    33    1
    33    33    34    1
    34    34    35    1
    35    35    36    1
    36    36    37    1
    37    32     6   ar
    38    37    33    1
    39    31     8   ar
    40    29    13   ar
    41    25    19    1
    42    27    22    1
    43     1    38    1
    44     1    39    1
    45     1    40    1
    46     3    41    1
    47     3    42    1
    48     3    43    1
    49     7    44    1
    50     9    45    1
    51    12    46    1
    52    14    47    1
    53    15    48    1
    54    20    49    1
    55    20    50    1
    56    21    51    1
    57    21    52    1
    58    23    53    1
    59    23    54    1
    60    24    55    1
    61    24    56    1
    62    25    57    1
    63    26    58    1
    64    26    59    1
    65    27    60    1
    66    27    61    1
    67    28    62    1
    68    33    63    1
    69    34    64    1
    70    34    65    1
    71    35    66    1
    72    35    67    1
    73    36    68    1
    74    36    69    1
    75    37    70    1
    76    37    71    1
