
     RDKit          3D

 71 76  0  0  0  0  0  0  0  0999 V2000
    8.9635   -0.9908   -1.4789 C   0  0  0  0  0  0  0  0  0  0  0  0
    7.5884   -0.5515   -1.3519 N   0  0  0  0  0  0  0  0  0  0  0  0
    7.2558    0.8288   -1.6628 C   0  0  0  0  0  0  0  0  0  0  0  0
    6.6041   -1.4839   -0.9286 C   0  0  0  0  0  0  0  0  0  0  0  0
    6.9191   -2.6647   -0.6673 O   0  0  0  0  0  0  0  0  0  0  0  0
    5.1937   -1.1026   -0.7827 C   0  0  0  0  0  0  0  0  0  0  0  0
    4.1490   -1.5274   -1.6172 C   0  0  0  0  0  0  0  0  0  0  0  0
    3.0101   -0.9314   -1.1364 C   0  0  0  0  0  0  0  0  0  0  0  0
    1.6915   -0.9701   -1.5487 C   0  0  0  0  0  0  0  0  0  0  0  0
    0.7885   -0.2574   -0.8649 N   0  0  0  0  0  0  0  0  0  0  0  0
    1.0996    0.5022    0.2131 C   0  0  0  0  0  0  0  0  0  0  0  0
    0.0982    1.2560    0.8912 N   0  0  0  0  0  0  0  0  0  0  0  0
   -1.2280    1.2381    0.3816 C   0  0  0  0  0  0  0  0  0  0  0  0
   -2.2466    1.9525    0.9717 C   0  0  0  0  0  0  0  0  0  0  0  0
   -3.5024    1.8962    0.4203 C   0  0  0  0  0  0  0  0  0  0  0  0
   -3.7135    1.1317   -0.7029 C   0  0  0  0  0  0  0  0  0  0  0  0
   -5.0287    1.0682   -1.3142 C   0  0  0  0  0  0  0  0  0  0  0  0
   -5.1569    1.4650   -2.5200 O   0  0  0  0  0  0  0  0  0  0  0  0
   -6.1762    0.5886   -0.6362 N   0  0  0  0  0  0  0  0  0  0  0  0
   -5.9522    0.1519    0.7092 C   0  0  0  0  0  0  0  0  0  0  0  0
   -6.8096   -0.9776    1.1468 C   0  0  0  0  0  0  0  0  0  0  0  0
   -7.9386   -1.2949    0.3509 N   0  0  0  0  0  0  0  0  0  0  0  0
   -8.9620   -0.2806    0.3160 C   0  0  0  0  0  0  0  0  0  0  0  0
   -8.5085    0.9671   -0.4086 C   0  0  0  0  0  0  0  0  0  0  0  0
   -7.3917    0.6274   -1.3943 C   0  0  0  0  0  0  0  0  0  0  0  0
   -7.7441   -0.7096   -2.0109 C   0  0  0  0  0  0  0  0  0  0  0  0
   -7.6326   -1.8124   -0.9690 C   0  0  0  0  0  0  0  0  0  0  0  0
   -2.6881    0.4210   -1.2841 C   0  0  0  0  0  0  0  0  0  0  0  0
   -1.4856    0.5114   -0.7066 N   0  0  0  0  0  0  0  0  0  0  0  0
    2.3870    0.5203    0.5912 N   0  0  0  0  0  0  0  0  0  0  0  0
    3.3607   -0.1704   -0.0441 C   0  0  0  0  0  0  0  0  0  0  0  0
    4.7097   -0.2984    0.1463 N   0  0  0  0  0  0  0  0  0  0  0  0
    5.3322    0.4081    1.2467 C   0  0  0  0  0  0  0  0  0  0  0  0
    4.4826    0.3194    2.5019 C   0  0  0  0  0  0  0  0  0  0  0  0
    5.3805   -0.2301    3.5918 C   0  0  0  0  0  0  0  0  0  0  0  0
    6.7538    0.2459    3.1551 C   0  0  0  0  0  0  0  0  0  0  0  0
    6.6670   -0.0895    1.6509 C   0  0  0  0  0  0  0  0  0  0  0  0
    9.0595   -1.7278   -2.3000 H   0  0  0  0  0  0  0  0  0  0  0  0
    9.2142   -1.5335   -0.5448 H   0  0  0  0  0  0  0  0  0  0  0  0
    9.6447   -0.1237   -1.6032 H   0  0  0  0  0  0  0  0  0  0  0  0
    7.8313    1.5316   -0.9975 H   0  0  0  0  0  0  0  0  0  0  0  0
    7.5624    1.0493   -2.6989 H   0  0  0  0  0  0  0  0  0  0  0  0
    6.1631    0.9886   -1.4760 H   0  0  0  0  0  0  0  0  0  0  0  0
    4.2567   -2.1936   -2.4631 H   0  0  0  0  0  0  0  0  0  0  0  0
    1.4480   -1.5759   -2.4037 H   0  0  0  0  0  0  0  0  0  0  0  0
    0.2817    1.8218    1.7409 H   0  0  0  0  0  0  0  0  0  0  0  0
   -2.0058    2.5383    1.8615 H   0  0  0  0  0  0  0  0  0  0  0  0
   -4.3117    2.4538    0.8743 H   0  0  0  0  0  0  0  0  0  0  0  0
   -4.8627   -0.0732    0.8342 H   0  0  0  0  0  0  0  0  0  0  0  0
   -6.1624    1.0234    1.4044 H   0  0  0  0  0  0  0  0  0  0  0  0
   -7.1637   -0.8114    2.1902 H   0  0  0  0  0  0  0  0  0  0  0  0
   -6.1457   -1.8961    1.1761 H   0  0  0  0  0  0  0  0  0  0  0  0
   -9.2298   -0.0091    1.3356 H   0  0  0  0  0  0  0  0  0  0  0  0
   -9.8707   -0.6519   -0.1987 H   0  0  0  0  0  0  0  0  0  0  0  0
   -9.3422    1.4727   -0.9302 H   0  0  0  0  0  0  0  0  0  0  0  0
   -8.0740    1.7095    0.3007 H   0  0  0  0  0  0  0  0  0  0  0  0
   -7.3895    1.4003   -2.1848 H   0  0  0  0  0  0  0  0  0  0  0  0
   -8.8139   -0.6488   -2.2914 H   0  0  0  0  0  0  0  0  0  0  0  0
   -7.0848   -0.8895   -2.8770 H   0  0  0  0  0  0  0  0  0  0  0  0
   -8.2554   -2.6883   -1.2346 H   0  0  0  0  0  0  0  0  0  0  0  0
   -6.5795   -2.1585   -0.9439 H   0  0  0  0  0  0  0  0  0  0  0  0
   -2.8993   -0.1744   -2.1736 H   0  0  0  0  0  0  0  0  0  0  0  0
    5.3943    1.4759    0.9695 H   0  0  0  0  0  0  0  0  0  0  0  0
    4.1168    1.3030    2.8522 H   0  0  0  0  0  0  0  0  0  0  0  0
    3.6787   -0.4275    2.3411 H   0  0  0  0  0  0  0  0  0  0  0  0
    5.4019   -1.3328    3.5482 H   0  0  0  0  0  0  0  0  0  0  0  0
    5.1571    0.1298    4.5931 H   0  0  0  0  0  0  0  0  0  0  0  0
    7.4933   -0.4154    3.6365 H   0  0  0  0  0  0  0  0  0  0  0  0
    6.9188    1.3096    3.3213 H   0  0  0  0  0  0  0  0  0  0  0  0
    6.8346   -1.1687    1.6008 H   0  0  0  0  0  0  0  0  0  0  0  0
    7.4642    0.5362    1.1990 H   0  0  0  0  0  0  0  0  0  0  0  0
  1  2  1  0
  2  3  1  0
  2  4  1  0
  4  5  2  0
  4  6  1  0
  6  7  2  0
  7  8  1  0
  8  9  2  0
  9 10  1  0
 10 11  2  0
 11 12  1  0
 12 13  1  0
 13 14  2  0
 14 15  1  0
 15 16  2  0
 16 17  1  0
 17 18  2  0
 17 19  1  0
 19 20  1  0
 20 21  1  0
 21 22  1  0
 22 23  1  0
 23 24  1  0
 24 25  1  0
 25 26  1  0
 26 27  1  0
 16 28  1  0
 28 29  2  0
 11 30  1  0
 30 31  2  0
 31 32  1  0
 32 33  1  0
 33 34  1  0
 34 35  1  0
 35 36  1  0
 36 37  1  0
 32  6  1  0
 37 33  1  0
 31  8  1  0
 29 13  1  0
 25 19  1  0
 27 22  1  0
  1 38  1  0
  1 39  1  0
  1 40  1  0
  3 41  1  0
  3 42  1  0
  3 43  1  0
  7 44  1  0
  9 45  1  0
 12 46  1  0
 14 47  1  0
 15 48  1  0
 20 49  1  0
 20 50  1  0
 21 51  1  0
 21 52  1  0
 23 53  1  0
 23 54  1  0
 24 55  1  0
 24 56  1  0
 25 57  1  0
 26 58  1  0
 26 59  1  0
 27 60  1  0
 27 61  1  0
 28 62  1  0
 33 63  1  0
 34 64  1  0
 34 65  1  0
 35 66  1  0
 35 67  1  0
 36 68  1  0
 36 69  1  0
 37 70  1  0
 37 71  1  0
M  END
$$$$
