@<TRIPOS>MOLECULE
*****
 43 48 0 0 0
SMALL
GASTEIGER

@<TRIPOS>ATOM
      1 O          -3.4888    0.9958    1.3054 O.2     1  UNL1       -0.2863
      2 C          -2.6426    0.2331    0.8115 C.ar    1  UNL1        0.2023
      3 C          -2.5592   -1.0839    1.1577 C.ar    1  UNL1        0.0646
      4 C          -3.4332   -1.6237    2.0908 C.ar    1  UNL1       -0.0474
      5 C          -3.3452   -2.9560    2.4379 C.ar    1  UNL1       -0.0609
      6 C          -2.3862   -3.7572    1.8576 C.ar    1  UNL1       -0.0582
      7 C          -1.5002   -3.2275    0.9172 C.ar    1  UNL1       -0.0186
      8 C          -1.5897   -1.8884    0.5692 C.ar    1  UNL1        0.1393
      9 O          -0.7552   -1.4101   -0.3097 O.2     1  UNL1       -0.4528
     10 C          -0.8025   -0.1323   -0.6747 C.ar    1  UNL1        0.1607
     11 C          -0.0409    0.5926   -1.5681 C.ar    1  UNL1        0.0644
     12 C           1.0648   -0.0036   -2.3432 C.3     1  UNL1        0.0164
     13 C           2.2930   -0.2392   -1.6054 C.ar    1  UNL1       -0.0378
     14 C           3.2677    0.7330   -1.5525 C.ar    1  UNL1       -0.0545
     15 C           4.4476    0.5736   -0.8757 C.ar    1  UNL1       -0.0159
     16 C           4.6819   -0.6259   -0.2058 C.ar    1  UNL1        0.1662
     17 C           3.7269   -1.6170   -0.2396 C.ar    1  UNL1        0.1665
     18 C           2.5336   -1.4187   -0.9411 C.ar    1  UNL1       -0.0126
     19 O           4.2314   -2.6717    0.5028 O.3     1  UNL1       -0.4526
     20 C           5.3371   -2.2325    1.2741 C.3     1  UNL1        0.2332
     21 O           5.7413   -1.0942    0.5509 O.3     1  UNL1       -0.4526
     22 N          -0.5158    1.8381   -1.5504 N.ar    1  UNL1       -0.3525
     23 C          -1.5411    1.9414   -0.6906 C.ar    1  UNL1        0.0866
     24 C          -2.3637    3.1076   -0.3460 C.ar    1  UNL1        0.1251
     25 N          -3.2538    3.4667    0.3137 N.ar    1  UNL1       -0.2458
     26 C          -3.8113    4.6429    0.4275 C.ar    1  UNL1        0.0355
     27 C          -3.2278    5.6135   -0.3846 C.ar    1  UNL1       -0.0042
     28 S          -1.9401    4.7487   -1.2303 S.2     1  UNL1       -0.0742
     29 C          -1.7385    0.7096   -0.1273 C.ar    1  UNL1        0.0921
     30 H          -4.1804   -0.9725    2.5343 H       1  UNL1        0.0626
     31 H          -4.0144   -3.3877    3.1587 H       1  UNL1        0.0618
     32 H          -2.2927   -4.8088    2.1112 H       1  UNL1        0.0619
     33 H          -0.7383   -3.8163    0.4406 H       1  UNL1        0.0654
     34 H           1.2408    0.6524   -3.2348 H       1  UNL1        0.0377
     35 H           0.6654   -0.9563   -2.7813 H       1  UNL1        0.0377
     36 H           3.1158    1.6911   -2.0698 H       1  UNL1        0.0622
     37 H           5.2056    1.3350   -0.8376 H       1  UNL1        0.0655
     38 H           1.8059   -2.2267   -0.9432 H       1  UNL1        0.0658
     39 H           6.1564   -2.9549    1.3043 H       1  UNL1        0.1166
     40 H           4.9426   -1.9894    2.2823 H       1  UNL1        0.1166
     41 H          -0.1426    2.6173   -2.1219 H       1  UNL1        0.1658
     42 H          -4.6451    4.8882    1.0735 H       1  UNL1        0.0835
     43 H          -3.5088    6.7142   -0.4876 H       1  UNL1        0.0709
@<TRIPOS>BOND
     1     1     2    2
     2     2     3   ar
     3     3     4   ar
     4     4     5   ar
     5     5     6   ar
     6     6     7   ar
     7     7     8   ar
     8     8     9   ar
     9     9    10   ar
    10    10    11   ar
    11    11    12    1
    12    12    13    1
    13    13    14   ar
    14    14    15   ar
    15    15    16   ar
    16    16    17   ar
    17    17    18   ar
    18    17    19    1
    19    19    20    1
    20    20    21    1
    21    11    22   ar
    22    22    23   ar
    23    23    24    1
    24    24    25   ar
    25    25    26   ar
    26    26    27   ar
    27    27    28   ar
    28    23    29   ar
    29    29     2   ar
    30     8     3   ar
    31    29    10   ar
    32    18    13   ar
    33    28    24   ar
    34    21    16    1
    35     4    30    1
    36     5    31    1
    37     6    32    1
    38     7    33    1
    39    12    34    1
    40    12    35    1
    41    14    36    1
    42    15    37    1
    43    18    38    1
    44    20    39    1
    45    20    40    1
    46    22    41    1
    47    26    42    1
    48    27    43    1
