
     RDKit          3D

 43 48  0  0  0  0  0  0  0  0999 V2000
   -3.4888    0.9958    1.3054 O   0  0  0  0  0  0  0  0  0  0  0  0
   -2.6426    0.2331    0.8115 C   0  0  0  0  0  0  0  0  0  0  0  0
   -2.5592   -1.0839    1.1577 C   0  0  0  0  0  0  0  0  0  0  0  0
   -3.4332   -1.6237    2.0908 C   0  0  0  0  0  0  0  0  0  0  0  0
   -3.3452   -2.9560    2.4379 C   0  0  0  0  0  0  0  0  0  0  0  0
   -2.3862   -3.7572    1.8576 C   0  0  0  0  0  0  0  0  0  0  0  0
   -1.5002   -3.2275    0.9172 C   0  0  0  0  0  0  0  0  0  0  0  0
   -1.5897   -1.8884    0.5692 C   0  0  0  0  0  0  0  0  0  0  0  0
   -0.7552   -1.4101   -0.3097 O   0  0  0  0  0  0  0  0  0  0  0  0
   -0.8025   -0.1323   -0.6747 C   0  0  0  0  0  0  0  0  0  0  0  0
   -0.0409    0.5926   -1.5681 C   0  0  0  0  0  0  0  0  0  0  0  0
    1.0648   -0.0036   -2.3432 C   0  0  0  0  0  0  0  0  0  0  0  0
    2.2930   -0.2392   -1.6054 C   0  0  0  0  0  0  0  0  0  0  0  0
    3.2677    0.7330   -1.5525 C   0  0  0  0  0  0  0  0  0  0  0  0
    4.4476    0.5736   -0.8757 C   0  0  0  0  0  0  0  0  0  0  0  0
    4.6819   -0.6259   -0.2058 C   0  0  0  0  0  0  0  0  0  0  0  0
    3.7269   -1.6170   -0.2396 C   0  0  0  0  0  0  0  0  0  0  0  0
    2.5336   -1.4187   -0.9411 C   0  0  0  0  0  0  0  0  0  0  0  0
    4.2314   -2.6717    0.5028 O   0  0  0  0  0  0  0  0  0  0  0  0
    5.3371   -2.2325    1.2741 C   0  0  0  0  0  0  0  0  0  0  0  0
    5.7413   -1.0942    0.5509 O   0  0  0  0  0  0  0  0  0  0  0  0
   -0.5158    1.8381   -1.5504 N   0  0  0  0  0  0  0  0  0  0  0  0
   -1.5411    1.9414   -0.6906 C   0  0  0  0  0  0  0  0  0  0  0  0
   -2.3637    3.1076   -0.3460 C   0  0  0  0  0  0  0  0  0  0  0  0
   -3.2538    3.4667    0.3137 N   0  0  0  0  0  0  0  0  0  0  0  0
   -3.8113    4.6429    0.4275 C   0  0  0  0  0  0  0  0  0  0  0  0
   -3.2278    5.6135   -0.3846 C   0  0  0  0  0  0  0  0  0  0  0  0
   -1.9401    4.7487   -1.2303 S   0  0  0  0  0  0  0  0  0  0  0  0
   -1.7385    0.7096   -0.1273 C   0  0  0  0  0  0  0  0  0  0  0  0
   -4.1804   -0.9725    2.5343 H   0  0  0  0  0  0  0  0  0  0  0  0
   -4.0144   -3.3877    3.1587 H   0  0  0  0  0  0  0  0  0  0  0  0
   -2.2927   -4.8088    2.1112 H   0  0  0  0  0  0  0  0  0  0  0  0
   -0.7383   -3.8163    0.4406 H   0  0  0  0  0  0  0  0  0  0  0  0
    1.2408    0.6524   -3.2348 H   0  0  0  0  0  0  0  0  0  0  0  0
    0.6654   -0.9563   -2.7813 H   0  0  0  0  0  0  0  0  0  0  0  0
    3.1158    1.6911   -2.0698 H   0  0  0  0  0  0  0  0  0  0  0  0
    5.2056    1.3350   -0.8376 H   0  0  0  0  0  0  0  0  0  0  0  0
    1.8059   -2.2267   -0.9432 H   0  0  0  0  0  0  0  0  0  0  0  0
    6.1564   -2.9549    1.3043 H   0  0  0  0  0  0  0  0  0  0  0  0
    4.9426   -1.9894    2.2823 H   0  0  0  0  0  0  0  0  0  0  0  0
   -0.1426    2.6173   -2.1219 H   0  0  0  0  0  0  0  0  0  0  0  0
   -4.6451    4.8882    1.0735 H   0  0  0  0  0  0  0  0  0  0  0  0
   -3.5088    6.7142   -0.4876 H   0  0  0  0  0  0  0  0  0  0  0  0
  1  2  2  0
  2  3  1  0
  3  4  2  0
  4  5  1  0
  5  6  2  0
  6  7  1  0
  7  8  2  0
  8  9  1  0
  9 10  1  0
 10 11  2  0
 11 12  1  0
 12 13  1  0
 13 14  2  0
 14 15  1  0
 15 16  2  0
 16 17  1  0
 17 18  2  0
 17 19  1  0
 19 20  1  0
 20 21  1  0
 11 22  1  0
 22 23  1  0
 23 24  1  0
 24 25  2  0
 25 26  1  0
 26 27  2  0
 27 28  1  0
 23 29  2  0
 29  2  1  0
  8  3  1  0
 29 10  1  0
 18 13  1  0
 28 24  1  0
 21 16  1  0
  4 30  1  0
  5 31  1  0
  6 32  1  0
  7 33  1  0
 12 34  1  0
 12 35  1  0
 14 36  1  0
 15 37  1  0
 18 38  1  0
 20 39  1  0
 20 40  1  0
 22 41  1  0
 26 42  1  0
 27 43  1  0
M  END
$$$$
