
     RDKit          3D

218228  0  0  0  0  0  0  0  0999 V2000
  -13.1804    3.5739   -3.8375 C   0  0  0  0  0  0  0  0  0  0  0  0
  -12.4985    2.6893   -2.9111 N   0  0  0  0  0  0  0  0  0  0  0  0
  -11.8101    3.5300   -1.9417 C   0  0  1  0  0  0  0  0  0  0  0  0
  -12.8714    4.3432   -1.2375 C   0  0  0  0  0  0  0  0  0  0  0  0
  -11.0079    2.7265   -1.0069 C   0  0  0  0  0  0  0  0  0  0  0  0
  -11.0455    1.4692   -1.1140 O   0  0  0  0  0  0  0  0  0  0  0  0
  -10.1891    3.2948    0.0120 N   0  0  0  0  0  0  0  0  0  0  0  0
   -9.4289    2.4115    0.8776 C   0  0  2  0  0  0  0  0  0  0  0  0
   -8.8618    1.2347    0.1790 C   0  0  0  0  0  0  0  0  0  0  0  0
   -8.8607    0.1462    0.7777 O   0  0  0  0  0  0  0  0  0  0  0  0
   -8.3324    1.3342   -1.1203 N   0  0  0  0  0  0  0  0  0  0  0  0
   -8.1596    2.5881   -1.8952 C   0  0  0  0  0  0  0  0  0  0  0  0
   -6.7677    2.3744   -2.4267 C   0  0  2  0  0  0  0  0  0  0  0  0
   -6.9208    0.9330   -2.9046 C   0  0  0  0  0  0  0  0  0  0  0  0
   -7.8944    0.2719   -1.9395 C   0  0  1  0  0  0  0  0  0  0  0  0
   -7.2554   -0.9117   -1.4027 C   0  0  0  0  0  0  0  0  0  0  0  0
   -6.6607   -1.6151   -2.3572 O   0  0  0  0  0  0  0  0  0  0  0  0
   -7.0597   -1.5602   -0.2003 N   0  0  0  0  0  0  0  0  0  0  0  0
   -7.5619   -2.9388    0.1088 C   0  0  1  0  0  0  0  0  0  0  0  0
   -8.1282   -3.6199   -1.0515 C   0  0  0  0  0  0  0  0  0  0  0  0
   -8.6333   -4.9591   -0.7581 C   0  0  0  0  0  0  0  0  0  0  0  0
   -7.9311   -6.1269   -0.9502 C   0  0  0  0  0  0  0  0  0  0  0  0
   -8.4364   -7.3812   -0.6617 C   0  0  0  0  0  0  0  0  0  0  0  0
   -9.7088   -7.5116   -0.1529 C   0  0  0  0  0  0  0  0  0  0  0  0
  -10.2175   -8.7557    0.1365 C   0  0  0  0  0  0  0  0  0  0  0  0
  -11.4952   -8.8884    0.6488 C   0  0  0  0  0  0  0  0  0  0  0  0
  -12.2383   -7.7614    0.8612 C   0  0  0  0  0  0  0  0  0  0  0  0
  -11.7172   -6.5009    0.5654 C   0  0  0  0  0  0  0  0  0  0  0  0
  -10.4446   -6.3644    0.0540 C   0  0  0  0  0  0  0  0  0  0  0  0
   -9.9254   -5.1245   -0.2384 C   0  0  0  0  0  0  0  0  0  0  0  0
   -6.5775   -3.6632    0.9140 C   0  0  0  0  0  0  0  0  0  0  0  0
   -6.5667   -3.3570    2.1949 O   0  0  0  0  0  0  0  0  0  0  0  0
   -5.5970   -4.6398    0.6567 N   0  0  0  0  0  0  0  0  0  0  0  0
   -5.4814   -5.9154    1.3342 C   0  0  2  0  0  0  0  0  0  0  0  0
   -6.6024   -6.3418    2.1457 C   0  0  0  0  0  0  0  0  0  0  0  0
   -7.6500   -5.6759    2.2432 O   0  0  0  0  0  0  0  0  0  0  0  0
   -6.5799   -7.5400    2.8806 O   0  0  0  0  0  0  0  0  0  0  0  0
   -4.2314   -6.0231    2.1871 C   0  0  0  0  0  0  0  0  0  0  0  0
   -2.9482   -5.7932    1.4511 C   0  0  0  0  0  0  0  0  0  0  0  0
   -2.4702   -6.7476    0.5926 C   0  0  0  0  0  0  0  0  0  0  0  0
   -1.2401   -6.5451   -0.1070 C   0  0  0  0  0  0  0  0  0  0  0  0
   -0.4979   -5.4179    0.0430 C   0  0  0  0  0  0  0  0  0  0  0  0
   -0.9835   -4.4769    0.8953 C   0  0  0  0  0  0  0  0  0  0  0  0
   -2.2019   -4.6441    1.6056 C   0  0  0  0  0  0  0  0  0  0  0  0
    0.7137   -5.2260   -0.6434 O   0  0  0  0  0  0  0  0  0  0  0  0
    1.9655   -5.7055   -0.2082 C   0  0  0  0  0  0  0  0  0  0  0  0
    2.9713   -4.6156   -0.1325 C   0  0  0  0  0  0  0  0  0  0  0  0
    2.4838   -3.5167    0.7516 C   0  0  0  0  0  0  0  0  0  0  0  0
    3.6257   -2.8813    1.4820 C   0  0  0  0  0  0  0  0  0  0  0  0
    4.7831   -2.6059    0.5878 C   0  0  1  0  0  0  0  0  0  0  0  0
    4.6437   -1.3662   -0.2574 C   0  0  0  0  0  0  0  0  0  0  0  0
    6.0902   -0.8124   -0.3296 C   0  0  1  0  0  0  0  0  0  0  0  0
    6.0809    0.5787    0.1833 C   0  0  0  0  0  0  0  0  0  0  0  0
    5.5268    1.3968   -0.6855 O   0  0  0  0  0  0  0  0  0  0  0  0
    6.5031    1.2192    1.3328 N   0  0  0  0  0  0  0  0  0  0  0  0
    7.0122    2.6337    1.1784 C   0  0  1  0  0  0  0  0  0  0  0  0
    8.4086    2.5412    0.6508 C   0  0  0  0  0  0  0  0  0  0  0  0
    9.1668    3.7696    0.4543 C   0  0  0  0  0  0  0  0  0  0  0  0
    9.7762    4.3892    1.5710 C   0  0  0  0  0  0  0  0  0  0  0  0
   10.5601    5.4924    1.4871 C   0  0  0  0  0  0  0  0  0  0  0  0
   10.8033    6.0738    0.2750 C   0  0  0  0  0  0  0  0  0  0  0  0
   11.6063    7.1996    0.1508 C   0  0  0  0  0  0  0  0  0  0  0  0
   11.8730    7.8000   -1.0592 C   0  0  0  0  0  0  0  0  0  0  0  0
   11.2919    7.2217   -2.1902 C   0  0  0  0  0  0  0  0  0  0  0  0
   10.4918    6.1004   -2.0654 C   0  0  0  0  0  0  0  0  0  0  0  0
   10.2297    5.5067   -0.8512 C   0  0  0  0  0  0  0  0  0  0  0  0
    9.4311    4.3794   -0.7481 C   0  0  0  0  0  0  0  0  0  0  0  0
    6.0980    3.3881    0.3108 C   0  0  0  0  0  0  0  0  0  0  0  0
    6.5762    3.7593   -0.8420 O   0  0  0  0  0  0  0  0  0  0  0  0
    4.7636    3.8192    0.4517 N   0  0  0  0  0  0  0  0  0  0  0  0
    4.3036    5.1679    0.0059 C   0  0  2  0  0  0  0  0  0  0  0  0
    3.6645    5.7717    1.1384 N   0  0  0  0  0  0  0  0  0  0  0  0
    4.3974    7.2878    1.4793 S   0  0  0  0  0  6  0  0  0  0  0  0
    4.3060    8.2027    0.2629 O   0  0  0  0  0  0  0  0  0  0  0  0
    3.6236    7.9989    2.5773 O   0  0  0  0  0  0  0  0  0  0  0  0
    6.1024    7.1747    1.8887 C   0  0  0  0  0  0  0  0  0  0  0  0
    7.0150    8.3396    1.7351 C   0  0  0  0  0  0  0  0  0  0  0  0
    7.1249    7.1991    0.7810 C   0  0  0  0  0  0  0  0  0  0  0  0
    3.2739    5.0122   -1.0951 C   0  0  0  0  0  0  0  0  0  0  0  0
    1.8170    4.9485   -0.7664 C   0  0  0  0  0  0  0  0  0  0  0  0
    1.0067    4.0353   -1.4022 C   0  0  0  0  0  0  0  0  0  0  0  0
   -0.3918    3.9604   -1.1361 C   0  0  0  0  0  0  0  0  0  0  0  0
   -1.0166    4.7786   -0.2435 C   0  0  0  0  0  0  0  0  0  0  0  0
   -0.2080    5.6855    0.3878 C   0  0  0  0  0  0  0  0  0  0  0  0
    1.1858    5.7805    0.1394 C   0  0  0  0  0  0  0  0  0  0  0  0
   -2.3667    4.7349    0.0306 O   0  0  0  0  0  0  0  0  0  0  0  0
   -3.1755    3.9289    0.8030 C   0  0  0  0  0  0  0  0  0  0  0  0
   -4.1484    3.1880   -0.0935 C   0  0  0  0  0  0  0  0  0  0  0  0
   -5.2075    3.6200   -0.8318 C   0  0  0  0  0  0  0  0  0  0  0  0
   -5.6889    2.5430   -1.4680 N   0  0  0  0  0  0  0  0  0  0  0  0
   -4.9256    1.4607   -1.1132 N   0  0  0  0  0  0  0  0  0  0  0  0
   -4.0048    1.8236   -0.2959 N   0  0  0  0  0  0  0  0  0  0  0  0
    6.9354   -1.7481    0.2697 N   0  0  0  0  0  0  0  0  0  0  0  0
    8.2258   -2.2274    0.1631 C   0  0  0  0  0  0  0  0  0  0  0  0
    8.4070   -3.2334    1.0820 O   0  0  0  0  0  0  0  0  0  0  0  0
    9.4186   -1.9823   -0.6157 C   0  0  1  0  0  0  0  0  0  0  0  0
   10.4615   -2.9454   -0.1742 N   0  0  0  0  0  0  0  0  0  0  0  0
   11.6262   -2.5516    0.5131 C   0  0  0  0  0  0  0  0  0  0  0  0
   11.8167   -1.3374    0.7638 O   0  0  0  0  0  0  0  0  0  0  0  0
   12.6503   -3.5605    0.9581 C   0  0  2  0  0  0  0  0  0  0  0  0
   13.9867   -3.2592    0.3280 C   0  0  0  0  0  0  0  0  0  0  0  0
   12.2072   -4.9002    0.5894 N   0  0  0  0  0  0  0  0  0  0  0  0
   13.2071   -5.8460    1.0529 C   0  0  0  0  0  0  0  0  0  0  0  0
    9.4081   -1.8532   -2.0698 C   0  0  0  0  0  0  0  0  0  0  0  0
    8.6544   -0.6715   -2.5768 C   0  0  0  0  0  0  0  0  0  0  0  0
    8.8818   -3.1455   -2.7459 C   0  0  0  0  0  0  0  0  0  0  0  0
   10.8652   -1.6890   -2.5594 C   0  0  0  0  0  0  0  0  0  0  0  0
    6.0493   -2.3125    1.3745 C   0  0  0  0  0  0  0  0  0  0  0  0
  -10.0255    2.1530    2.2030 C   0  0  0  0  0  0  0  0  0  0  0  0
  -11.3820    1.4960    2.1561 C   0  0  0  0  0  0  0  0  0  0  0  0
   -9.0828    1.4669    3.1623 C   0  0  0  0  0  0  0  0  0  0  0  0
  -10.2853    3.5416    2.8349 C   0  0  0  0  0  0  0  0  0  0  0  0
  -14.1584    3.9125   -3.4772 H   0  0  0  0  0  0  0  0  0  0  0  0
  -13.3727    3.0654   -4.8210 H   0  0  0  0  0  0  0  0  0  0  0  0
  -12.5668    4.4718   -4.0872 H   0  0  0  0  0  0  0  0  0  0  0  0
  -11.8167    2.0993   -3.4365 H   0  0  0  0  0  0  0  0  0  0  0  0
  -11.1334    4.2348   -2.4581 H   0  0  0  0  0  0  0  0  0  0  0  0
  -12.5891    4.6220   -0.2021 H   0  0  0  0  0  0  0  0  0  0  0  0
  -13.8304    3.7629   -1.2311 H   0  0  0  0  0  0  0  0  0  0  0  0
  -13.0703    5.2657   -1.8025 H   0  0  0  0  0  0  0  0  0  0  0  0
  -10.1784    4.3386    0.0907 H   0  0  0  0  0  0  0  0  0  0  0  0
   -8.4672    3.0338    1.0641 H   0  0  0  0  0  0  0  0  0  0  0  0
   -8.1507    3.4017   -1.1822 H   0  0  0  0  0  0  0  0  0  0  0  0
   -8.8844    2.6593   -2.7288 H   0  0  0  0  0  0  0  0  0  0  0  0
   -6.5856    2.9088   -3.4062 H   0  0  0  0  0  0  0  0  0  0  0  0
   -7.2420    0.8895   -3.9558 H   0  0  0  0  0  0  0  0  0  0  0  0
   -5.9226    0.4849   -2.8236 H   0  0  0  0  0  0  0  0  0  0  0  0
   -8.7830    0.0024   -2.6067 H   0  0  0  0  0  0  0  0  0  0  0  0
   -6.5374   -1.2163    0.6363 H   0  0  0  0  0  0  0  0  0  0  0  0
   -8.4394   -2.6852    0.7892 H   0  0  0  0  0  0  0  0  0  0  0  0
   -7.3324   -3.7412   -1.8413 H   0  0  0  0  0  0  0  0  0  0  0  0
   -8.9401   -2.9622   -1.4762 H   0  0  0  0  0  0  0  0  0  0  0  0
   -6.9227   -6.0351   -1.3579 H   0  0  0  0  0  0  0  0  0  0  0  0
   -7.8418   -8.2849   -0.8317 H   0  0  0  0  0  0  0  0  0  0  0  0
   -9.6619   -9.6752   -0.0169 H   0  0  0  0  0  0  0  0  0  0  0  0
  -11.9207   -9.8572    0.8827 H   0  0  0  0  0  0  0  0  0  0  0  0
  -13.2534   -7.7897    1.2645 H   0  0  0  0  0  0  0  0  0  0  0  0
  -12.2901   -5.5993    0.7313 H   0  0  0  0  0  0  0  0  0  0  0  0
  -10.4841   -4.2071   -0.0885 H   0  0  0  0  0  0  0  0  0  0  0  0
   -4.7976   -4.5555   -0.0559 H   0  0  0  0  0  0  0  0  0  0  0  0
   -5.3452   -6.7139    0.5366 H   0  0  0  0  0  0  0  0  0  0  0  0
   -7.4600   -8.0265    3.0143 H   0  0  0  0  0  0  0  0  0  0  0  0
   -4.3115   -7.0226    2.7290 H   0  0  0  0  0  0  0  0  0  0  0  0
   -4.4773   -5.3832    3.0592 H   0  0  0  0  0  0  0  0  0  0  0  0
   -2.8537   -7.7634    0.2557 H   0  0  0  0  0  0  0  0  0  0  0  0
   -1.0313   -7.4361   -0.7805 H   0  0  0  0  0  0  0  0  0  0  0  0
   -0.5242   -3.4679    1.1435 H   0  0  0  0  0  0  0  0  0  0  0  0
   -2.3752   -3.7148    2.2247 H   0  0  0  0  0  0  0  0  0  0  0  0
    1.8954   -6.2937    0.7363 H   0  0  0  0  0  0  0  0  0  0  0  0
    2.3344   -6.4260   -0.9980 H   0  0  0  0  0  0  0  0  0  0  0  0
    3.2473   -4.2724   -1.1481 H   0  0  0  0  0  0  0  0  0  0  0  0
    3.8862   -5.0814    0.3552 H   0  0  0  0  0  0  0  0  0  0  0  0
    1.8761   -2.7661    0.1822 H   0  0  0  0  0  0  0  0  0  0  0  0
    1.7768   -3.9402    1.5205 H   0  0  0  0  0  0  0  0  0  0  0  0
    3.2652   -1.9634    2.0177 H   0  0  0  0  0  0  0  0  0  0  0  0
    3.9584   -3.6049    2.2611 H   0  0  0  0  0  0  0  0  0  0  0  0
    4.9824   -3.4689   -0.0481 H   0  0  0  0  0  0  0  0  0  0  0  0
    4.2087   -1.5503   -1.2306 H   0  0  0  0  0  0  0  0  0  0  0  0
    4.0443   -0.6488    0.3338 H   0  0  0  0  0  0  0  0  0  0  0  0
    6.2418   -0.7687   -1.4429 H   0  0  0  0  0  0  0  0  0  0  0  0
    6.5410    0.9559    2.3347 H   0  0  0  0  0  0  0  0  0  0  0  0
    7.1296    3.1029    2.1884 H   0  0  0  0  0  0  0  0  0  0  0  0
    8.3460    2.0489   -0.3751 H   0  0  0  0  0  0  0  0  0  0  0  0
    9.0267    1.8256    1.2562 H   0  0  0  0  0  0  0  0  0  0  0  0
    9.5956    3.9463    2.5386 H   0  0  0  0  0  0  0  0  0  0  0  0
   11.0059    5.9290    2.3767 H   0  0  0  0  0  0  0  0  0  0  0  0
   12.0436    7.6220    1.0495 H   0  0  0  0  0  0  0  0  0  0  0  0
   12.5001    8.6766   -1.1189 H   0  0  0  0  0  0  0  0  0  0  0  0
   11.4936    7.6748   -3.1363 H   0  0  0  0  0  0  0  0  0  0  0  0
   10.0343    5.6370   -2.9495 H   0  0  0  0  0  0  0  0  0  0  0  0
    9.0450    3.9923   -1.6712 H   0  0  0  0  0  0  0  0  0  0  0  0
    3.9151    3.3432    0.8279 H   0  0  0  0  0  0  0  0  0  0  0  0
    5.1252    5.8067   -0.3100 H   0  0  0  0  0  0  0  0  0  0  0  0
    3.7409    5.1762    1.9670 H   0  0  0  0  0  0  0  0  0  0  0  0
    6.3475    6.5322    2.7785 H   0  0  0  0  0  0  0  0  0  0  0  0
    7.8294    8.4967    2.4726 H   0  0  0  0  0  0  0  0  0  0  0  0
    6.6142    9.3265    1.3561 H   0  0  0  0  0  0  0  0  0  0  0  0
    6.8255    7.4547   -0.2590 H   0  0  0  0  0  0  0  0  0  0  0  0
    7.9976    6.5263    0.8389 H   0  0  0  0  0  0  0  0  0  0  0  0
    3.7119    4.1002   -1.5973 H   0  0  0  0  0  0  0  0  0  0  0  0
    3.5159    5.8769   -1.8121 H   0  0  0  0  0  0  0  0  0  0  0  0
    1.1936    3.2435   -2.1907 H   0  0  0  0  0  0  0  0  0  0  0  0
   -0.8518    3.1500   -1.7742 H   0  0  0  0  0  0  0  0  0  0  0  0
   -0.5240    6.4580    1.1557 H   0  0  0  0  0  0  0  0  0  0  0  0
    1.5828    6.6237    0.7812 H   0  0  0  0  0  0  0  0  0  0  0  0
   -2.4430    3.1811    1.2804 H   0  0  0  0  0  0  0  0  0  0  0  0
   -3.6300    4.3656    1.7046 H   0  0  0  0  0  0  0  0  0  0  0  0
   -5.6316    4.6967   -0.8981 H   0  0  0  0  0  0  0  0  0  0  0  0
    9.8353   -0.9637   -0.2318 H   0  0  0  0  0  0  0  0  0  0  0  0
   10.3221   -3.9574   -0.3890 H   0  0  0  0  0  0  0  0  0  0  0  0
   12.7883   -3.5198    2.0552 H   0  0  0  0  0  0  0  0  0  0  0  0
   13.9796   -2.2314   -0.0852 H   0  0  0  0  0  0  0  0  0  0  0  0
   14.1754   -3.9415   -0.5486 H   0  0  0  0  0  0  0  0  0  0  0  0
   14.8286   -3.3086    1.0541 H   0  0  0  0  0  0  0  0  0  0  0  0
   11.3293   -5.1062    1.1510 H   0  0  0  0  0  0  0  0  0  0  0  0
   14.0303   -5.9229    0.3080 H   0  0  0  0  0  0  0  0  0  0  0  0
   13.6073   -5.5740    2.0438 H   0  0  0  0  0  0  0  0  0  0  0  0
   12.7749   -6.8694    1.1564 H   0  0  0  0  0  0  0  0  0  0  0  0
    7.7577   -0.9671   -3.1761 H   0  0  0  0  0  0  0  0  0  0  0  0
    9.2719   -0.0731   -3.3144 H   0  0  0  0  0  0  0  0  0  0  0  0
    8.3944    0.0659   -1.7909 H   0  0  0  0  0  0  0  0  0  0  0  0
    8.1747   -3.6667   -2.0702 H   0  0  0  0  0  0  0  0  0  0  0  0
    9.7452   -3.7983   -2.9571 H   0  0  0  0  0  0  0  0  0  0  0  0
    8.4209   -2.8381   -3.7060 H   0  0  0  0  0  0  0  0  0  0  0  0
   10.7804   -1.2878   -3.5896 H   0  0  0  0  0  0  0  0  0  0  0  0
   11.3303   -2.6990   -2.5974 H   0  0  0  0  0  0  0  0  0  0  0  0
   11.3886   -0.9617   -1.9428 H   0  0  0  0  0  0  0  0  0  0  0  0
    5.8453   -1.5469    2.1107 H   0  0  0  0  0  0  0  0  0  0  0  0
    6.4853   -3.1977    1.8113 H   0  0  0  0  0  0  0  0  0  0  0  0
  -12.1548    2.1910    1.7647 H   0  0  0  0  0  0  0  0  0  0  0  0
  -11.4009    0.5043    1.7048 H   0  0  0  0  0  0  0  0  0  0  0  0
  -11.6766    1.3419    3.2386 H   0  0  0  0  0  0  0  0  0  0  0  0
   -9.2253    0.3765    3.2273 H   0  0  0  0  0  0  0  0  0  0  0  0
   -9.2367    1.8432    4.2184 H   0  0  0  0  0  0  0  0  0  0  0  0
   -8.0348    1.7807    2.9358 H   0  0  0  0  0  0  0  0  0  0  0  0
  -10.8806    4.1656    2.1286 H   0  0  0  0  0  0  0  0  0  0  0  0
   -9.3260    4.0112    3.1286 H   0  0  0  0  0  0  0  0  0  0  0  0
  -10.8941    3.4538    3.7568 H   0  0  0  0  0  0  0  0  0  0  0  0
  1  2  1  0
  2  3  1  0
  3  4  1  0
  3  5  1  0
  5  6  2  0
  5  7  1  0
  7  8  1  0
  8  9  1  0
  9 10  2  0
  9 11  1  0
 11 12  1  0
 12 13  1  0
 13 14  1  0
 14 15  1  0
 15 16  1  0
 16 17  2  0
 16 18  1  0
 18 19  1  0
 19 20  1  0
 20 21  1  0
 21 22  2  0
 22 23  1  0
 23 24  2  0
 24 25  1  0
 25 26  2  0
 26 27  1  0
 27 28  2  0
 28 29  1  0
 29 30  2  0
 19 31  1  0
 31 32  2  0
 31 33  1  0
 33 34  1  0
 34 35  1  0
 35 36  2  0
 35 37  1  0
 34 38  1  0
 38 39  1  0
 39 40  2  0
 40 41  1  0
 41 42  2  0
 42 43  1  0
 43 44  2  0
 42 45  1  0
 45 46  1  0
 46 47  1  0
 47 48  1  0
 48 49  1  0
 49 50  1  0
 50 51  1  0
 51 52  1  0
 52 53  1  0
 53 54  2  0
 53 55  1  0
 55 56  1  0
 56 57  1  0
 57 58  1  0
 58 59  2  0
 59 60  1  0
 60 61  2  0
 61 62  1  0
 62 63  2  0
 63 64  1  0
 64 65  2  0
 65 66  1  0
 66 67  2  0
 56 68  1  0
 68 69  2  0
 68 70  1  0
 70 71  1  0
 71 72  1  0
 72 73  1  0
 73 74  2  0
 73 75  2  0
 73 76  1  0
 76 77  1  0
 77 78  1  0
 71 79  1  0
 79 80  1  0
 80 81  2  0
 81 82  1  0
 82 83  2  0
 83 84  1  0
 84 85  2  0
 83 86  1  0
 86 87  1  0
 87 88  1  0
 88 89  2  0
 89 90  1  0
 90 91  1  0
 91 92  2  0
 52 93  1  0
 93 94  1  0
 94 95  2  0
 94 96  1  0
 96 97  1  0
 97 98  1  0
 98 99  2  0
 98100  1  0
100101  1  0
100102  1  0
102103  1  0
 96104  1  0
104105  1  0
104106  1  0
104107  1  0
 93108  1  0
  8109  1  0
109110  1  0
109111  1  0
109112  1  0
 15 11  1  0
 30 21  1  0
 44 39  1  0
108 50  1  0
 90 13  1  0
 29 24  1  0
 67 58  1  0
 78 76  1  0
 85 80  1  0
 92 88  1  0
 66 61  1  0
  1113  1  0
  1114  1  0
  1115  1  0
  2116  1  0
  3117  1  6
  4118  1  0
  4119  1  0
  4120  1  0
  7121  1  0
  8122  1  1
 12123  1  0
 12124  1  0
 13125  1  6
 14126  1  0
 14127  1  0
 15128  1  6
 18129  1  0
 19130  1  1
 20131  1  0
 20132  1  0
 22133  1  0
 23134  1  0
 25135  1  0
 26136  1  0
 27137  1  0
 28138  1  0
 30139  1  0
 33140  1  0
 34141  1  6
 37142  1  0
 38143  1  0
 38144  1  0
 40145  1  0
 41146  1  0
 43147  1  0
 44148  1  0
 46149  1  0
 46150  1  0
 47151  1  0
 47152  1  0
 48153  1  0
 48154  1  0
 49155  1  0
 49156  1  0
 50157  1  6
 51158  1  0
 51159  1  0
 52160  1  6
 55161  1  0
 56162  1  1
 57163  1  0
 57164  1  0
 59165  1  0
 60166  1  0
 62167  1  0
 63168  1  0
 64169  1  0
 65170  1  0
 67171  1  0
 70172  1  0
 71173  1  6
 72174  1  0
 76175  1  0
 77176  1  0
 77177  1  0
 78178  1  0
 78179  1  0
 79180  1  0
 79181  1  0
 81182  1  0
 82183  1  0
 84184  1  0
 85185  1  0
 87186  1  0
 87187  1  0
 89188  1  0
 96189  1  1
 97190  1  0
100191  1  1
101192  1  0
101193  1  0
101194  1  0
102195  1  0
103196  1  0
103197  1  0
103198  1  0
105199  1  0
105200  1  0
105201  1  0
106202  1  0
106203  1  0
106204  1  0
107205  1  0
107206  1  0
107207  1  0
108208  1  0
108209  1  0
110210  1  0
110211  1  0
110212  1  0
111213  1  0
111214  1  0
111215  1  0
112216  1  0
112217  1  0
112218  1  0
M  END
$$$$
