@<TRIPOS>MOLECULE
*****
 218 228 0 0 0
SMALL
GASTEIGER

@<TRIPOS>ATOM
      1 C         -13.1804    3.5739   -3.8375 C.3     0  UNK0       -0.0151
      2 N         -12.4985    2.6893   -2.9111 N.3     1  ALA1       -0.3089
      3 CA        -11.8101    3.5300   -1.9417 C.3     1  ALA1        0.0817
      4 CB        -12.8714    4.3432   -1.2375 C.3     1  ALA1       -0.0412
      5 C         -11.0079    2.7265   -1.0069 C.2     1  ALA1        0.2304
      6 O         -11.0455    1.4692   -1.1140 O.2     1  ALA1       -0.2741
      7 N         -10.1891    3.2948    0.0120 N.am    2  UNK2       -0.3022
      8 C          -9.4289    2.4115    0.8776 C.3     2  UNK2        0.1045
      9 C          -8.8618    1.2347    0.1790 C.2     2  UNK2        0.2371
     10 O          -8.8607    0.1462    0.7777 O.2     2  UNK2       -0.2735
     11 N          -8.3324    1.3342   -1.1203 N.am    3  UNK3       -0.2863
     12 C          -8.1596    2.5881   -1.8952 C.3     3  UNK3        0.0380
     13 C          -6.7677    2.3744   -2.4267 C.3     3  UNK3        0.0722
     14 C          -6.9208    0.9330   -2.9046 C.3     3  UNK3       -0.0017
     15 C          -7.8944    0.2719   -1.9395 C.3     3  UNK3        0.1043
     16 C          -7.2554   -0.9117   -1.4027 C.2     3  UNK3        0.2342
     17 O          -6.6607   -1.6151   -2.3572 O.2     3  UNK3       -0.2738
     18 N          -7.0597   -1.5602   -0.2003 N.am    4  UNK4       -0.3022
     19 C          -7.5619   -2.9388    0.1088 C.3     4  UNK4        0.1034
     20 C          -8.1282   -3.6199   -1.0515 C.3     4  UNK4       -0.0006
     21 C          -8.6333   -4.9591   -0.7581 C.ar    4  UNK4       -0.0445
     22 C          -7.9311   -6.1269   -0.9502 C.ar    4  UNK4       -0.0579
     23 C          -8.4364   -7.3812   -0.6617 C.ar    4  UNK4       -0.0538
     24 C          -9.7088   -7.5116   -0.1529 C.ar    4  UNK4       -0.0179
     25 C         -10.2175   -8.7557    0.1365 C.ar    4  UNK4       -0.0540
     26 C         -11.4952   -8.8884    0.6488 C.ar    4  UNK4       -0.0612
     27 C         -12.2383   -7.7614    0.8612 C.ar    4  UNK4       -0.0612
     28 C         -11.7172   -6.5009    0.5654 C.ar    4  UNK4       -0.0540
     29 C         -10.4446   -6.3644    0.0540 C.ar    4  UNK4       -0.0176
     30 C          -9.9254   -5.1245   -0.2384 C.ar    4  UNK4       -0.0508
     31 C          -6.5775   -3.6632    0.9140 C.2     4  UNK4        0.2343
     32 O          -6.5667   -3.3570    2.1949 O.2     4  UNK4       -0.2738
     33 N          -5.5970   -4.6398    0.6567 N.am    5  UNK5       -0.3006
     34 C          -5.4814   -5.9154    1.3342 C.3     5  UNK5        0.1242
     35 C          -6.6024   -6.3418    2.1457 C.2     5  UNK5        0.3256
     36 O          -7.6500   -5.6759    2.2432 O.2     5  UNK5       -0.2489
     37 O          -6.5799   -7.5400    2.8806 O.3     5  UNK5       -0.4793
     38 C          -4.2314   -6.0231    2.1871 C.3     5  UNK5        0.0012
     39 C          -2.9482   -5.7932    1.4511 C.ar    5  UNK5       -0.0449
     40 C          -2.4702   -6.7476    0.5926 C.ar    5  UNK5       -0.0550
     41 C          -1.2401   -6.5451   -0.1070 C.ar    5  UNK5       -0.0197
     42 C          -0.4979   -5.4179    0.0430 C.ar    5  UNK5        0.1205
     43 C          -0.9835   -4.4769    0.8953 C.ar    5  UNK5       -0.0197
     44 C          -2.2019   -4.6441    1.6056 C.ar    5  UNK5       -0.0550
     45 O           0.7137   -5.2260   -0.6434 O.3     5  UNK5       -0.4920
     46 C           1.9655   -5.7055   -0.2082 C.3     5  UNK5        0.0896
     47 C           2.9713   -4.6156   -0.1325 C.3     5  UNK5       -0.0186
     48 C           2.4838   -3.5167    0.7516 C.3     5  UNK5       -0.0497
     49 C           3.6257   -2.8813    1.4820 C.3     5  UNK5       -0.0486
     50 C           4.7831   -2.6059    0.5878 C.3     5  UNK5       -0.0230
     51 C           4.6437   -1.3662   -0.2574 C.3     5  UNK5       -0.0215
     52 C           6.0902   -0.8124   -0.3296 C.3     5  UNK5        0.1025
     53 C           6.0809    0.5787    0.1833 C.2     5  UNK5        0.2342
     54 O           5.5268    1.3968   -0.6855 O.2     5  UNK5       -0.2738
     55 N           6.5031    1.2192    1.3328 N.am    5  UNK5       -0.3022
     56 C           7.0122    2.6337    1.1784 C.3     5  UNK5        0.1034
     57 C           8.4086    2.5412    0.6508 C.3     5  UNK5       -0.0006
     58 C           9.1668    3.7696    0.4543 C.ar    5  UNK5       -0.0445
     59 C           9.7762    4.3892    1.5710 C.ar    5  UNK5       -0.0579
     60 C          10.5601    5.4924    1.4871 C.ar    5  UNK5       -0.0538
     61 C          10.8033    6.0738    0.2750 C.ar    5  UNK5       -0.0179
     62 C          11.6063    7.1996    0.1508 C.ar    5  UNK5       -0.0540
     63 C          11.8730    7.8000   -1.0592 C.ar    5  UNK5       -0.0612
     64 C          11.2919    7.2217   -2.1902 C.ar    5  UNK5       -0.0612
     65 C          10.4918    6.1004   -2.0654 C.ar    5  UNK5       -0.0540
     66 C          10.2297    5.5067   -0.8512 C.ar    5  UNK5       -0.0176
     67 C           9.4311    4.3794   -0.7481 C.ar    5  UNK5       -0.0508
     68 C           6.0980    3.3881    0.3108 C.2     5  UNK5        0.2349
     69 O           6.5762    3.7593   -0.8420 O.2     5  UNK5       -0.2737
     70 N           4.7636    3.8192    0.4517 N.am    5  UNK5       -0.2967
     71 C           4.3036    5.1679    0.0059 C.3     5  UNK5        0.0971
     72 N           3.6645    5.7717    1.1384 N.3     5  UNK5       -0.1739
     73 S           4.3974    7.2878    1.4793 S.O2    5  UNK5        0.0338
     74 O           4.3060    8.2027    0.2629 O.2     5  UNK5       -0.1579
     75 O           3.6236    7.9989    2.5773 O.2     5  UNK5       -0.1579
     76 C           6.1024    7.1747    1.8887 C.3     5  UNK5        0.0929
     77 C           7.0150    8.3396    1.7351 C.3     5  UNK5       -0.0275
     78 C           7.1249    7.1991    0.7810 C.3     5  UNK5       -0.0275
     79 C           3.2739    5.0122   -1.0951 C.3     5  UNK5        0.0056
     80 C           1.8170    4.9485   -0.7664 C.ar    5  UNK5       -0.0441
     81 C           1.0067    4.0353   -1.4022 C.ar    5  UNK5       -0.0550
     82 C          -0.3918    3.9604   -1.1361 C.ar    5  UNK5       -0.0197
     83 C          -1.0166    4.7786   -0.2435 C.ar    5  UNK5        0.1211
     84 C          -0.2080    5.6855    0.3878 C.ar    5  UNK5       -0.0197
     85 C           1.1858    5.7805    0.1394 C.ar    5  UNK5       -0.0550
     86 O          -2.3667    4.7349    0.0306 O.3     5  UNK5       -0.4858
     87 C          -3.1755    3.9289    0.8030 C.3     5  UNK5        0.1346
     88 C          -4.1484    3.1880   -0.0935 C.ar    5  UNK5        0.1199
     89 C          -5.2075    3.6200   -0.8318 C.ar    5  UNK5        0.0524
     90 N          -5.6889    2.5430   -1.4680 N.ar    3  UNK3       -0.2467
     91 N          -4.9256    1.4607   -1.1132 N.ar    3  UNK3       -0.0650
     92 N          -4.0048    1.8236   -0.2959 N.ar    5  UNK5       -0.1310
     93 N           6.9354   -1.7481    0.2697 N.am    5  UNK5       -0.2881
     94 C           8.2258   -2.2274    0.1631 C.2     5  UNK5        0.2370
     95 O           8.4070   -3.2334    1.0820 O.2     5  UNK5       -0.2735
     96 C           9.4186   -1.9823   -0.6157 C.3     5  UNK5        0.1045
     97 N          10.4615   -2.9454   -0.1742 N.am    5  UNK5       -0.3022
     98 C          11.6262   -2.5516    0.5131 C.2     5  UNK5        0.2304
     99 O          11.8167   -1.3374    0.7638 O.2     5  UNK5       -0.2741
    100 C          12.6503   -3.5605    0.9581 C.3     5  UNK5        0.0817
    101 C          13.9867   -3.2592    0.3280 C.3     5  UNK5       -0.0412
    102 N          12.2072   -4.9002    0.5894 N.3     5  UNK5       -0.3089
    103 C          13.2071   -5.8460    1.0529 C.3     5  UNK5       -0.0151
    104 C           9.4081   -1.8532   -2.0698 C.3     5  UNK5       -0.0108
    105 C           8.6544   -0.6715   -2.5768 C.3     5  UNK5       -0.0579
    106 C           8.8818   -3.1455   -2.7459 C.3     5  UNK5       -0.0579
    107 C          10.8652   -1.6890   -2.5594 C.3     5  UNK5       -0.0579
    108 C           6.0493   -2.3125    1.3745 C.3     5  UNK5        0.0184
    109 C         -10.0255    2.1530    2.2030 C.3     2  UNK2       -0.0108
    110 C         -11.3820    1.4960    2.1561 C.3     2  UNK2       -0.0579
    111 C          -9.0828    1.4669    3.1623 C.3     2  UNK2       -0.0579
    112 C         -10.2853    3.5416    2.8349 C.3     2  UNK2       -0.0579
    113 H         -14.1584    3.9125   -3.4772 H       0  UNK0        0.0388
    114 H         -13.3727    3.0654   -4.8210 H       0  UNK0        0.0388
    115 H         -12.5668    4.4718   -4.0872 H       0  UNK0        0.0388
    116 H         -11.8167    2.0993   -3.4365 H       1  ALA1        0.1223
    117 HA        -11.1334    4.2348   -2.4581 H       1  ALA1        0.0553
    118 HB1       -12.5891    4.6220   -0.2021 H       1  ALA1        0.0249
    119 HB2       -13.8304    3.7629   -1.2311 H       1  ALA1        0.0249
    120 HB3       -13.0703    5.2657   -1.8025 H       1  ALA1        0.0249
    121 H         -10.1784    4.3386    0.0907 H       2  UNK2        0.1495
    122 H          -8.4672    3.0338    1.0641 H       2  UNK2        0.0600
    123 H          -8.1507    3.4017   -1.1822 H       3  UNK3        0.0486
    124 H          -8.8844    2.6593   -2.7288 H       3  UNK3        0.0486
    125 H          -6.5856    2.9088   -3.4062 H       3  UNK3        0.0562
    126 H          -7.2420    0.8895   -3.9558 H       3  UNK3        0.0309
    127 H          -5.9226    0.4849   -2.8236 H       3  UNK3        0.0309
    128 H          -8.7830    0.0024   -2.6067 H       3  UNK3        0.0597
    129 H          -6.5374   -1.2163    0.6363 H       4  UNK4        0.1495
    130 H          -8.4394   -2.6852    0.7892 H       4  UNK4        0.0598
    131 H          -7.3324   -3.7412   -1.8413 H       4  UNK4        0.0336
    132 H          -8.9401   -2.9622   -1.4762 H       4  UNK4        0.0336
    133 H          -6.9227   -6.0351   -1.3579 H       4  UNK4        0.0620
    134 H          -7.8418   -8.2849   -0.8317 H       4  UNK4        0.0624
    135 H          -9.6619   -9.6752   -0.0169 H       4  UNK4        0.0624
    136 H         -11.9207   -9.8572    0.8827 H       4  UNK4        0.0618
    137 H         -13.2534   -7.7897    1.2645 H       4  UNK4        0.0618
    138 H         -12.2901   -5.5993    0.7313 H       4  UNK4        0.0624
    139 H         -10.4841   -4.2071   -0.0885 H       4  UNK4        0.0626
    140 H          -4.7976   -4.5555   -0.0559 H       5  UNK5        0.1496
    141 H          -5.3452   -6.7139    0.5366 H       5  UNK5        0.0618
    142 H          -7.4600   -8.0265    3.0143 H       5  UNK5        0.2951
    143 H          -4.3115   -7.0226    2.7290 H       5  UNK5        0.0337
    144 H          -4.4773   -5.3832    3.0592 H       5  UNK5        0.0337
    145 H          -2.8537   -7.7634    0.2557 H       5  UNK5        0.0621
    146 H          -1.0313   -7.4361   -0.7805 H       5  UNK5        0.0654
    147 H          -0.5242   -3.4679    1.1435 H       5  UNK5        0.0654
    148 H          -2.3752   -3.7148    2.2247 H       5  UNK5        0.0621
    149 H           1.8954   -6.2937    0.7363 H       5  UNK5        0.0696
    150 H           2.3344   -6.4260   -0.9980 H       5  UNK5        0.0696
    151 H           3.2473   -4.2724   -1.1481 H       5  UNK5        0.0298
    152 H           3.8862   -5.0814    0.3552 H       5  UNK5        0.0298
    153 H           1.8761   -2.7661    0.1822 H       5  UNK5        0.0266
    154 H           1.7768   -3.9402    1.5205 H       5  UNK5        0.0266
    155 H           3.2652   -1.9634    2.0177 H       5  UNK5        0.0268
    156 H           3.9584   -3.6049    2.2611 H       5  UNK5        0.0268
    157 H           4.9824   -3.4689   -0.0481 H       5  UNK5        0.0317
    158 H           4.2087   -1.5503   -1.2306 H       5  UNK5        0.0291
    159 H           4.0443   -0.6488    0.3338 H       5  UNK5        0.0291
    160 H           6.2418   -0.7687   -1.4429 H       5  UNK5        0.0597
    161 H           6.5410    0.9559    2.3347 H       5  UNK5        0.1495
    162 H           7.1296    3.1029    2.1884 H       5  UNK5        0.0598
    163 H           8.3460    2.0489   -0.3751 H       5  UNK5        0.0336
    164 H           9.0267    1.8256    1.2562 H       5  UNK5        0.0336
    165 H           9.5956    3.9463    2.5386 H       5  UNK5        0.0620
    166 H          11.0059    5.9290    2.3767 H       5  UNK5        0.0624
    167 H          12.0436    7.6220    1.0495 H       5  UNK5        0.0624
    168 H          12.5001    8.6766   -1.1189 H       5  UNK5        0.0618
    169 H          11.4936    7.6748   -3.1363 H       5  UNK5        0.0618
    170 H          10.0343    5.6370   -2.9495 H       5  UNK5        0.0624
    171 H           9.0450    3.9923   -1.6712 H       5  UNK5        0.0626
    172 H           3.9151    3.3432    0.8279 H       5  UNK5        0.1503
    173 H           5.1252    5.8067   -0.3100 H       5  UNK5        0.0686
    174 H           3.7409    5.1762    1.9670 H       5  UNK5        0.1497
    175 H           6.3475    6.5322    2.7785 H       5  UNK5        0.0551
    176 H           7.8294    8.4967    2.4726 H       5  UNK5        0.0285
    177 H           6.6142    9.3265    1.3561 H       5  UNK5        0.0285
    178 H           6.8255    7.4547   -0.2590 H       5  UNK5        0.0285
    179 H           7.9976    6.5263    0.8389 H       5  UNK5        0.0285
    180 H           3.7119    4.1002   -1.5973 H       5  UNK5        0.0345
    181 H           3.5159    5.8769   -1.8121 H       5  UNK5        0.0345
    182 H           1.1936    3.2435   -2.1907 H       5  UNK5        0.0621
    183 H          -0.8518    3.1500   -1.7742 H       5  UNK5        0.0654
    184 H          -0.5240    6.4580    1.1557 H       5  UNK5        0.0654
    185 H           1.5828    6.6237    0.7812 H       5  UNK5        0.0621
    186 H          -2.4430    3.1811    1.2804 H       5  UNK5        0.0764
    187 H          -3.6300    4.3656    1.7046 H       5  UNK5        0.0764
    188 H          -5.6316    4.6967   -0.8981 H       5  UNK5        0.0846
    189 H           9.8353   -0.9637   -0.2318 H       5  UNK5        0.0600
    190 H          10.3221   -3.9574   -0.3890 H       5  UNK5        0.1495
    191 H          12.7883   -3.5198    2.0552 H       5  UNK5        0.0553
    192 H          13.9796   -2.2314   -0.0852 H       5  UNK5        0.0249
    193 H          14.1754   -3.9415   -0.5486 H       5  UNK5        0.0249
    194 H          14.8286   -3.3086    1.0541 H       5  UNK5        0.0249
    195 H          11.3293   -5.1062    1.1510 H       5  UNK5        0.1223
    196 H          14.0303   -5.9229    0.3080 H       5  UNK5        0.0388
    197 H          13.6073   -5.5740    2.0438 H       5  UNK5        0.0388
    198 H          12.7749   -6.8694    1.1564 H       5  UNK5        0.0388
    199 H           7.7577   -0.9671   -3.1761 H       5  UNK5        0.0236
    200 H           9.2719   -0.0731   -3.3144 H       5  UNK5        0.0236
    201 H           8.3944    0.0659   -1.7909 H       5  UNK5        0.0236
    202 H           8.1747   -3.6667   -2.0702 H       5  UNK5        0.0236
    203 H           9.7452   -3.7983   -2.9571 H       5  UNK5        0.0236
    204 H           8.4209   -2.8381   -3.7060 H       5  UNK5        0.0236
    205 H          10.7804   -1.2878   -3.5896 H       5  UNK5        0.0236
    206 H          11.3303   -2.6990   -2.5974 H       5  UNK5        0.0236
    207 H          11.3886   -0.9617   -1.9428 H       5  UNK5        0.0236
    208 H           5.8453   -1.5469    2.1107 H       5  UNK5        0.0467
    209 H           6.4853   -3.1977    1.8113 H       5  UNK5        0.0467
    210 H         -12.1548    2.1910    1.7647 H       2  UNK2        0.0236
    211 H         -11.4009    0.5043    1.7048 H       2  UNK2        0.0236
    212 H         -11.6766    1.3419    3.2386 H       2  UNK2        0.0236
    213 H          -9.2253    0.3765    3.2273 H       2  UNK2        0.0236
    214 H          -9.2367    1.8432    4.2184 H       2  UNK2        0.0236
    215 H          -8.0348    1.7807    2.9358 H       2  UNK2        0.0236
    216 H         -10.8806    4.1656    2.1286 H       2  UNK2        0.0236
    217 H          -9.3260    4.0112    3.1286 H       2  UNK2        0.0236
    218 H         -10.8941    3.4538    3.7568 H       2  UNK2        0.0236
@<TRIPOS>BOND
     1     1     2    1
     2     2     3    1
     3     3     4    1
     4     3     5    1
     5     5     6    2
     6     5     7   am
     7     7     8    1
     8     8     9    1
     9     9    10    2
    10     9    11   am
    11    11    12    1
    12    12    13    1
    13    13    14    1
    14    14    15    1
    15    15    16    1
    16    16    17    2
    17    16    18   am
    18    18    19    1
    19    19    20    1
    20    20    21    1
    21    21    22   ar
    22    22    23   ar
    23    23    24   ar
    24    24    25   ar
    25    25    26   ar
    26    26    27   ar
    27    27    28   ar
    28    28    29   ar
    29    29    30   ar
    30    19    31    1
    31    31    32    2
    32    31    33   am
    33    33    34    1
    34    34    35    1
    35    35    36    2
    36    35    37    1
    37    34    38    1
    38    38    39    1
    39    39    40   ar
    40    40    41   ar
    41    41    42   ar
    42    42    43   ar
    43    43    44   ar
    44    42    45    1
    45    45    46    1
    46    46    47    1
    47    47    48    1
    48    48    49    1
    49    49    50    1
    50    50    51    1
    51    51    52    1
    52    52    53    1
    53    53    54    2
    54    53    55   am
    55    55    56    1
    56    56    57    1
    57    57    58    1
    58    58    59   ar
    59    59    60   ar
    60    60    61   ar
    61    61    62   ar
    62    62    63   ar
    63    63    64   ar
    64    64    65   ar
    65    65    66   ar
    66    66    67   ar
    67    56    68    1
    68    68    69    2
    69    68    70   am
    70    70    71    1
    71    71    72    1
    72    72    73    1
    73    73    74    2
    74    73    75    2
    75    73    76    1
    76    76    77    1
    77    77    78    1
    78    71    79    1
    79    79    80    1
    80    80    81   ar
    81    81    82   ar
    82    82    83   ar
    83    83    84   ar
    84    84    85   ar
    85    83    86    1
    86    86    87    1
    87    87    88    1
    88    88    89   ar
    89    89    90   ar
    90    90    91   ar
    91    91    92   ar
    92    52    93    1
    93    93    94   am
    94    94    95    2
    95    94    96    1
    96    96    97    1
    97    97    98   am
    98    98    99    2
    99    98   100    1
   100   100   101    1
   101   100   102    1
   102   102   103    1
   103    96   104    1
   104   104   105    1
   105   104   106    1
   106   104   107    1
   107    93   108    1
   108     8   109    1
   109   109   110    1
   110   109   111    1
   111   109   112    1
   112    15    11    1
   113    30    21   ar
   114    44    39   ar
   115   108    50    1
   116    90    13    1
   117    29    24   ar
   118    67    58   ar
   119    78    76    1
   120    85    80   ar
   121    92    88   ar
   122    66    61   ar
   123     1   113    1
   124     1   114    1
   125     1   115    1
   126     2   116    1
   127     3   117    1
   128     4   118    1
   129     4   119    1
   130     4   120    1
   131     7   121    1
   132     8   122    1
   133    12   123    1
   134    12   124    1
   135    13   125    1
   136    14   126    1
   137    14   127    1
   138    15   128    1
   139    18   129    1
   140    19   130    1
   141    20   131    1
   142    20   132    1
   143    22   133    1
   144    23   134    1
   145    25   135    1
   146    26   136    1
   147    27   137    1
   148    28   138    1
   149    30   139    1
   150    33   140    1
   151    34   141    1
   152    37   142    1
   153    38   143    1
   154    38   144    1
   155    40   145    1
   156    41   146    1
   157    43   147    1
   158    44   148    1
   159    46   149    1
   160    46   150    1
   161    47   151    1
   162    47   152    1
   163    48   153    1
   164    48   154    1
   165    49   155    1
   166    49   156    1
   167    50   157    1
   168    51   158    1
   169    51   159    1
   170    52   160    1
   171    55   161    1
   172    56   162    1
   173    57   163    1
   174    57   164    1
   175    59   165    1
   176    60   166    1
   177    62   167    1
   178    63   168    1
   179    64   169    1
   180    65   170    1
   181    67   171    1
   182    70   172    1
   183    71   173    1
   184    72   174    1
   185    76   175    1
   186    77   176    1
   187    77   177    1
   188    78   178    1
   189    78   179    1
   190    79   180    1
   191    79   181    1
   192    81   182    1
   193    82   183    1
   194    84   184    1
   195    85   185    1
   196    87   186    1
   197    87   187    1
   198    89   188    1
   199    96   189    1
   200    97   190    1
   201   100   191    1
   202   101   192    1
   203   101   193    1
   204   101   194    1
   205   102   195    1
   206   103   196    1
   207   103   197    1
   208   103   198    1
   209   105   199    1
   210   105   200    1
   211   105   201    1
   212   106   202    1
   213   106   203    1
   214   106   204    1
   215   107   205    1
   216   107   206    1
   217   107   207    1
   218   108   208    1
   219   108   209    1
   220   110   210    1
   221   110   211    1
   222   110   212    1
   223   111   213    1
   224   111   214    1
   225   111   215    1
   226   112   216    1
   227   112   217    1
   228   112   218    1
