@<TRIPOS>MOLECULE
*****
 56 60 0 0 0
SMALL
GASTEIGER

@<TRIPOS>ATOM
      1 N1          6.0861   -4.2197    0.9106 N.3     1  <1>        -0.2035
      2 S1          6.0042   -2.5207    0.6517 S.O2    1  <1>         0.0559
      3 O1          6.6773   -2.1875   -0.6442 O.2     1  <1>        -0.1533
      4 O2          6.6738   -1.7668    1.7894 O.2     1  <1>        -0.1533
      5 C1          4.3081   -2.0406    0.6513 C.ar    1  <1>         0.1050
      6 C2          3.5637   -2.0366   -0.4944 C.ar    1  <1>        -0.0351
      7 C3          2.2501   -1.6557   -0.4516 C.ar    1  <1>        -0.0564
      8 C4          1.6445   -1.2677    0.7403 C.ar    1  <1>        -0.0428
      9 C5          0.2013   -0.8599    0.7341 C.3     1  <1>         0.0011
     10 C6          0.0791    0.5833    0.4459 C.ar    1  <1>         0.0027
     11 C7          1.1246    1.4151    0.1101 C.ar    1  <1>         0.0375
     12 N2          0.6328    2.6510   -0.0800 N.ar    1  <1>        -0.2149
     13 C8          1.3948    3.7968   -0.4412 C.ar    1  <1>         0.1944
     14 N3          2.3304    4.1197   -1.1892 N.ar    1  <1>        -0.2145
     15 C9          2.8618    5.2790   -1.3431 C.ar    1  <1>         0.1568
     16 C10         3.9769    5.5796   -2.2573 C.2     1  <1>         0.3559
     17 O3          4.4593    4.6598   -2.9430 O.2     1  <1>        -0.2434
     18 O4          4.4822    6.8473   -2.3590 O.3     1  <1>        -0.4761
     19 C11         2.3220    6.3308   -0.5678 C.ar    1  <1>         0.0116
     20 S2          1.0479    5.4700    0.3342 S.2     1  <1>        -0.0555
     21 N4         -0.6745    2.5754    0.1338 N.ar    1  <1>        -0.1643
     22 C12        -1.0513    1.3284    0.4576 C.ar    1  <1>         0.0967
     23 C13        -2.4230    0.9421    0.7599 C.ar    1  <1>         0.0030
     24 C14        -3.2139    1.7122    1.6232 C.ar    1  <1>        -0.0525
     25 C15        -4.4990    1.4085    1.9409 C.ar    1  <1>        -0.0606
     26 C16        -5.0506    0.2781    1.3803 C.ar    1  <1>        -0.0540
     27 C17        -4.3345   -0.5334    0.5194 C.ar    1  <1>        -0.0173
     28 C18        -4.9317   -1.7277   -0.0650 C.ar    1  <1>        -0.0179
     29 C19        -5.8722   -2.4141    0.6723 C.ar    1  <1>        -0.0540
     30 C20        -6.4926   -3.5646    0.1922 C.ar    1  <1>        -0.0612
     31 C21        -6.1564   -4.0380   -1.0670 C.ar    1  <1>        -0.0617
     32 C22        -5.2187   -3.3668   -1.8206 C.ar    1  <1>        -0.0612
     33 C23        -4.6154   -2.2187   -1.3131 C.ar    1  <1>        -0.0540
     34 C24        -3.0220   -0.1691    0.2320 C.ar    1  <1>        -0.0448
     35 C25         2.4017   -1.2774    1.8731 C.ar    1  <1>        -0.0564
     36 C26         3.7224   -1.6575    1.8474 C.ar    1  <1>        -0.0351
     37 H1          6.2568   -4.4233    1.9041 H       1  <1>         0.1442
     38 H2          6.7048   -4.7109    0.2470 H       1  <1>         0.1442
     39 H3          4.0088   -2.3295   -1.4188 H       1  <1>         0.0637
     40 H4          1.6321   -1.6415   -1.3408 H       1  <1>         0.0621
     41 H5         -0.2566   -1.4762   -0.0730 H       1  <1>         0.0363
     42 H6         -0.2068   -1.1325    1.7230 H       1  <1>         0.0363
     43 H7          2.1808    1.1658    0.0041 H       1  <1>         0.0834
     44 H8          5.3341    7.0737   -2.8950 H       1  <1>         0.2955
     45 H9          2.5819    7.3272   -0.5249 H       1  <1>         0.0718
     46 H10        -2.7083    2.5932    2.0322 H       1  <1>         0.0624
     47 H11        -5.0841    2.0311    2.6148 H       1  <1>         0.0618
     48 H12        -6.0677    0.0313    1.6292 H       1  <1>         0.0624
     49 H13        -6.1334   -2.0349    1.6662 H       1  <1>         0.0624
     50 H14        -7.2277   -4.0865    0.7899 H       1  <1>         0.0618
     51 H15        -6.6142   -4.9274   -1.4758 H       1  <1>         0.0618
     52 H16        -4.9711   -3.7516   -2.7983 H       1  <1>         0.0618
     53 H17        -3.8807   -1.6866   -1.8947 H       1  <1>         0.0624
     54 H18        -2.5054   -0.8347   -0.4508 H       1  <1>         0.0630
     55 H19         1.9372   -0.9748    2.8051 H       1  <1>         0.0621
     56 H20         4.3301   -1.6664    2.7578 H       1  <1>         0.0637
@<TRIPOS>BOND
     1     1     2    1
     2     2     3    2
     3     2     4    2
     4     2     5    1
     5     5     6   ar
     6     6     7   ar
     7     7     8   ar
     8     8     9    1
     9     9    10    1
    10    10    11   ar
    11    11    12   ar
    12    12    13    1
    13    13    14   ar
    14    14    15   ar
    15    15    16    1
    16    16    17    2
    17    16    18    1
    18    15    19   ar
    19    19    20   ar
    20    12    21   ar
    21    21    22   ar
    22    22    23    1
    23    23    24   ar
    24    24    25   ar
    25    25    26   ar
    26    26    27   ar
    27    27    28    1
    28    28    29   ar
    29    29    30   ar
    30    30    31   ar
    31    31    32   ar
    32    32    33   ar
    33    27    34   ar
    34     8    35   ar
    35    35    36   ar
    36    36     5   ar
    37    22    10   ar
    38    34    23   ar
    39    20    13   ar
    40    33    28   ar
    41     1    37    1
    42     1    38    1
    43     6    39    1
    44     7    40    1
    45     9    41    1
    46     9    42    1
    47    11    43    1
    48    18    44    1
    49    19    45    1
    50    24    46    1
    51    25    47    1
    52    26    48    1
    53    29    49    1
    54    30    50    1
    55    31    51    1
    56    32    52    1
    57    33    53    1
    58    34    54    1
    59    35    55    1
    60    36    56    1
