
     RDKit          3D

 56 60  0  0  0  0  0  0  0  0999 V2000
    6.0861   -4.2197    0.9106 N   0  0  0  0  0  0  0  0  0  0  0  0
    6.0042   -2.5207    0.6517 S   0  0  0  0  0  6  0  0  0  0  0  0
    6.6773   -2.1875   -0.6442 O   0  0  0  0  0  0  0  0  0  0  0  0
    6.6738   -1.7668    1.7894 O   0  0  0  0  0  0  0  0  0  0  0  0
    4.3081   -2.0406    0.6513 C   0  0  0  0  0  0  0  0  0  0  0  0
    3.5637   -2.0366   -0.4944 C   0  0  0  0  0  0  0  0  0  0  0  0
    2.2501   -1.6557   -0.4516 C   0  0  0  0  0  0  0  0  0  0  0  0
    1.6445   -1.2677    0.7403 C   0  0  0  0  0  0  0  0  0  0  0  0
    0.2013   -0.8599    0.7341 C   0  0  0  0  0  0  0  0  0  0  0  0
    0.0791    0.5833    0.4459 C   0  0  0  0  0  0  0  0  0  0  0  0
    1.1246    1.4151    0.1101 C   0  0  0  0  0  0  0  0  0  0  0  0
    0.6328    2.6510   -0.0800 N   0  0  0  0  0  0  0  0  0  0  0  0
    1.3948    3.7968   -0.4412 C   0  0  0  0  0  0  0  0  0  0  0  0
    2.3304    4.1197   -1.1892 N   0  0  0  0  0  0  0  0  0  0  0  0
    2.8618    5.2790   -1.3431 C   0  0  0  0  0  0  0  0  0  0  0  0
    3.9769    5.5796   -2.2573 C   0  0  0  0  0  0  0  0  0  0  0  0
    4.4593    4.6598   -2.9430 O   0  0  0  0  0  0  0  0  0  0  0  0
    4.4822    6.8473   -2.3590 O   0  0  0  0  0  0  0  0  0  0  0  0
    2.3220    6.3308   -0.5678 C   0  0  0  0  0  0  0  0  0  0  0  0
    1.0479    5.4700    0.3342 S   0  0  0  0  0  0  0  0  0  0  0  0
   -0.6745    2.5754    0.1338 N   0  0  0  0  0  0  0  0  0  0  0  0
   -1.0513    1.3284    0.4576 C   0  0  0  0  0  0  0  0  0  0  0  0
   -2.4230    0.9421    0.7599 C   0  0  0  0  0  0  0  0  0  0  0  0
   -3.2139    1.7122    1.6232 C   0  0  0  0  0  0  0  0  0  0  0  0
   -4.4990    1.4085    1.9409 C   0  0  0  0  0  0  0  0  0  0  0  0
   -5.0506    0.2781    1.3803 C   0  0  0  0  0  0  0  0  0  0  0  0
   -4.3345   -0.5334    0.5194 C   0  0  0  0  0  0  0  0  0  0  0  0
   -4.9317   -1.7277   -0.0650 C   0  0  0  0  0  0  0  0  0  0  0  0
   -5.8722   -2.4141    0.6723 C   0  0  0  0  0  0  0  0  0  0  0  0
   -6.4926   -3.5646    0.1922 C   0  0  0  0  0  0  0  0  0  0  0  0
   -6.1564   -4.0380   -1.0670 C   0  0  0  0  0  0  0  0  0  0  0  0
   -5.2187   -3.3668   -1.8206 C   0  0  0  0  0  0  0  0  0  0  0  0
   -4.6154   -2.2187   -1.3131 C   0  0  0  0  0  0  0  0  0  0  0  0
   -3.0220   -0.1691    0.2320 C   0  0  0  0  0  0  0  0  0  0  0  0
    2.4017   -1.2774    1.8731 C   0  0  0  0  0  0  0  0  0  0  0  0
    3.7224   -1.6575    1.8474 C   0  0  0  0  0  0  0  0  0  0  0  0
    6.2568   -4.4233    1.9041 H   0  0  0  0  0  0  0  0  0  0  0  0
    6.7048   -4.7109    0.2470 H   0  0  0  0  0  0  0  0  0  0  0  0
    4.0088   -2.3295   -1.4188 H   0  0  0  0  0  0  0  0  0  0  0  0
    1.6321   -1.6415   -1.3408 H   0  0  0  0  0  0  0  0  0  0  0  0
   -0.2566   -1.4762   -0.0730 H   0  0  0  0  0  0  0  0  0  0  0  0
   -0.2068   -1.1325    1.7230 H   0  0  0  0  0  0  0  0  0  0  0  0
    2.1808    1.1658    0.0041 H   0  0  0  0  0  0  0  0  0  0  0  0
    5.3341    7.0737   -2.8950 H   0  0  0  0  0  0  0  0  0  0  0  0
    2.5819    7.3272   -0.5249 H   0  0  0  0  0  0  0  0  0  0  0  0
   -2.7083    2.5932    2.0322 H   0  0  0  0  0  0  0  0  0  0  0  0
   -5.0841    2.0311    2.6148 H   0  0  0  0  0  0  0  0  0  0  0  0
   -6.0677    0.0313    1.6292 H   0  0  0  0  0  0  0  0  0  0  0  0
   -6.1334   -2.0349    1.6662 H   0  0  0  0  0  0  0  0  0  0  0  0
   -7.2277   -4.0865    0.7899 H   0  0  0  0  0  0  0  0  0  0  0  0
   -6.6142   -4.9274   -1.4758 H   0  0  0  0  0  0  0  0  0  0  0  0
   -4.9711   -3.7516   -2.7983 H   0  0  0  0  0  0  0  0  0  0  0  0
   -3.8807   -1.6866   -1.8947 H   0  0  0  0  0  0  0  0  0  0  0  0
   -2.5054   -0.8347   -0.4508 H   0  0  0  0  0  0  0  0  0  0  0  0
    1.9372   -0.9748    2.8051 H   0  0  0  0  0  0  0  0  0  0  0  0
    4.3301   -1.6664    2.7578 H   0  0  0  0  0  0  0  0  0  0  0  0
  1  2  1  0
  2  3  2  0
  2  4  2  0
  2  5  1  0
  5  6  2  0
  6  7  1  0
  7  8  2  0
  8  9  1  0
  9 10  1  0
 10 11  2  0
 11 12  1  0
 12 13  1  0
 13 14  2  0
 14 15  1  0
 15 16  1  0
 16 17  2  0
 16 18  1  0
 15 19  2  0
 19 20  1  0
 12 21  1  0
 21 22  2  0
 22 23  1  0
 23 24  2  0
 24 25  1  0
 25 26  2  0
 26 27  1  0
 27 28  1  0
 28 29  2  0
 29 30  1  0
 30 31  2  0
 31 32  1  0
 32 33  2  0
 27 34  2  0
  8 35  1  0
 35 36  2  0
 36  5  1  0
 22 10  1  0
 34 23  1  0
 20 13  1  0
 33 28  1  0
  1 37  1  0
  1 38  1  0
  6 39  1  0
  7 40  1  0
  9 41  1  0
  9 42  1  0
 11 43  1  0
 18 44  1  0
 19 45  1  0
 24 46  1  0
 25 47  1  0
 26 48  1  0
 29 49  1  0
 30 50  1  0
 31 51  1  0
 32 52  1  0
 33 53  1  0
 34 54  1  0
 35 55  1  0
 36 56  1  0
M  END
$$$$
