@<TRIPOS>MOLECULE
*****
 56 61 0 0 0
SMALL
GASTEIGER

@<TRIPOS>ATOM
      1 C          -7.6449    2.4314    0.2561 C.3     1  UNL1       -0.0306
      2 C          -6.7384    2.1275    1.4499 C.3     1  UNL1        0.0900
      3 O          -5.5589    1.5255    0.8925 O.3     1  UNL1       -0.4604
      4 C          -4.7663    2.1909   -0.0151 C.2     1  UNL1        0.3575
      5 O          -5.1129    3.3500   -0.3406 O.2     1  UNL1       -0.2432
      6 C          -3.5643    1.6252   -0.6069 C.ar    1  UNL1        0.1461
      7 N          -2.7850    2.2694   -1.4942 N.ar    1  UNL1       -0.3538
      8 C          -1.7696    1.4551   -1.8266 C.ar    1  UNL1        0.0084
      9 C          -1.9032    0.2575   -1.1329 C.ar    1  UNL1        0.0068
     10 C          -3.0245    0.3686   -0.3732 C.ar    1  UNL1        0.0674
     11 N          -3.4332   -0.6978    0.4551 N.pl3   1  UNL1       -0.3154
     12 C          -2.6445   -1.8784    0.4700 C.2     1  UNL1        0.0157
     13 C          -1.5585   -1.9988   -0.2593 C.2     1  UNL1        0.0268
     14 C          -0.8401   -3.2731   -0.1466 C.2     1  UNL1        0.1617
     15 O           0.3387   -3.3419   -0.5747 O.2     1  UNL1       -0.2923
     16 C          -1.4327   -4.4871    0.4470 C.3     1  UNL1        0.0106
     17 C          -2.9253   -4.2897    0.6056 C.3     1  UNL1       -0.0409
     18 C          -3.1147   -2.9881    1.3647 C.3     1  UNL1       -0.0137
     19 C          -1.0562   -0.9505   -1.1466 C.3     1  UNL1        0.0750
     20 C           0.3541   -0.5932   -0.8705 C.ar    1  UNL1        0.1184
     21 C           1.0191   -0.5505    0.3374 C.ar    1  UNL1       -0.0186
     22 C           2.3103   -0.1611    0.0608 C.ar    1  UNL1       -0.0091
     23 C           2.3821    0.0168   -1.2909 C.ar    1  UNL1        0.1689
     24 S           3.7894    0.5221   -2.2835 S.3     1  UNL1       -0.0142
     25 C           5.2151    0.7933   -1.2311 C.ar    1  UNL1        0.1749
     26 N           5.3464    0.6758    0.0833 N.ar    1  UNL1       -0.2215
     27 C           6.6062    0.9807    0.4558 C.ar    1  UNL1        0.0930
     28 C           7.3036    1.0345    1.6444 C.ar    1  UNL1       -0.0313
     29 C           8.6280    1.3930    1.7108 C.ar    1  UNL1       -0.0214
     30 C           9.2870    1.7133    0.5309 C.ar    1  UNL1        0.1606
     31 F          10.5860    2.0706    0.5468 F       1  UNL1       -0.2024
     32 C           8.6249    1.6710   -0.6733 C.ar    1  UNL1        0.1837
     33 F           9.2584    1.9811   -1.8268 F       1  UNL1       -0.2002
     34 C           7.2947    1.3064   -0.7013 C.ar    1  UNL1        0.1054
     35 N           6.4092    1.1794   -1.7086 N.ar    1  UNL1       -0.3302
     36 O           1.2157   -0.2476   -1.7880 O.2     1  UNL1       -0.4522
     37 H          -8.6777    2.0254    0.4627 H       1  UNL1        0.0262
     38 H          -7.3106    1.9232   -0.6599 H       1  UNL1        0.0262
     39 H          -7.6866    3.5168    0.0399 H       1  UNL1        0.0262
     40 H          -6.4906    3.0897    1.9150 H       1  UNL1        0.0695
     41 H          -7.2600    1.4462    2.1193 H       1  UNL1        0.0695
     42 H          -2.9298    3.2271   -1.8661 H       1  UNL1        0.1656
     43 H          -0.9737    1.7035   -2.5289 H       1  UNL1        0.0810
     44 H          -4.3009   -0.6104    1.0423 H       1  UNL1        0.1519
     45 H          -0.9494   -4.7705    1.4047 H       1  UNL1        0.0345
     46 H          -1.2734   -5.3169   -0.2575 H       1  UNL1        0.0345
     47 H          -3.3289   -4.1152   -0.4183 H       1  UNL1        0.0273
     48 H          -3.4129   -5.1375    1.0970 H       1  UNL1        0.0273
     49 H          -4.1878   -2.8888    1.5780 H       1  UNL1        0.0326
     50 H          -2.5444   -3.0252    2.2946 H       1  UNL1        0.0326
     51 H          -1.0943   -1.3370   -2.2014 H       1  UNL1        0.0479
     52 H           0.5807   -0.7842    1.2987 H       1  UNL1        0.0652
     53 H           3.1059   -0.0218    0.7505 H       1  UNL1        0.0661
     54 H           6.7696    0.7803    2.5553 H       1  UNL1        0.0640
     55 H           9.2002    1.4445    2.6230 H       1  UNL1        0.0648
     56 H           6.6688    1.3695   -2.7203 H       1  UNL1        0.1680
@<TRIPOS>BOND
     1     1     2    1
     2     2     3    1
     3     3     4    1
     4     4     5    2
     5     4     6    1
     6     6     7   ar
     7     7     8   ar
     8     8     9   ar
     9     9    10   ar
    10    10    11    1
    11    11    12    1
    12    12    13    2
    13    13    14    1
    14    14    15    2
    15    14    16    1
    16    16    17    1
    17    17    18    1
    18    13    19    1
    19    19    20    1
    20    20    21   ar
    21    21    22   ar
    22    22    23   ar
    23    23    24    1
    24    24    25    1
    25    25    26   ar
    26    26    27   ar
    27    27    28   ar
    28    28    29   ar
    29    29    30   ar
    30    30    31    1
    31    30    32   ar
    32    32    33    1
    33    32    34   ar
    34    34    35   ar
    35    23    36   ar
    36    10     6   ar
    37    18    12    1
    38    36    20   ar
    39    19     9    1
    40    35    25   ar
    41    34    27   ar
    42     1    37    1
    43     1    38    1
    44     1    39    1
    45     2    40    1
    46     2    41    1
    47     7    42    1
    48     8    43    1
    49    11    44    1
    50    16    45    1
    51    16    46    1
    52    17    47    1
    53    17    48    1
    54    18    49    1
    55    18    50    1
    56    19    51    1
    57    21    52    1
    58    22    53    1
    59    28    54    1
    60    29    55    1
    61    35    56    1
