@<TRIPOS>MOLECULE
*****
 54 57 0 0 0
SMALL
GASTEIGER

@<TRIPOS>ATOM
      1 C          -4.4634    5.3691   -2.9246 C.3     1  UNL1       -0.0319
      2 C          -3.5180    4.4620   -2.2473 C.ar    1  UNL1        0.0068
      3 C          -2.2213    4.5963   -1.9032 C.ar    1  UNL1        0.0383
      4 N          -1.6628    3.5777   -1.2985 N.ar    1  UNL1       -0.2471
      5 C          -2.1465    2.5426   -1.0091 C.ar    1  UNL1        0.1086
      6 C          -1.8358    1.2547   -0.3668 C.ar    1  UNL1        0.0113
      7 C          -2.7700    0.2894   -0.2465 C.ar    1  UNL1       -0.0102
      8 C          -2.4924   -0.9422    0.3617 C.ar    1  UNL1        0.1224
      9 O          -3.4738   -1.8659    0.4497 O.3     1  UNL1       -0.4864
     10 C          -3.4635   -3.1391    0.9928 C.3     1  UNL1        0.1254
     11 C          -3.8069   -4.1220   -0.1329 C.3     1  UNL1        0.0099
     12 C          -4.4917   -5.2206    0.6644 C.3     1  UNL1        0.0512
     13 O          -5.2990   -4.4862    1.5125 O.3     1  UNL1       -0.3760
     14 C          -4.5943   -3.3987    1.9575 C.3     1  UNL1        0.0846
     15 C          -1.2248   -1.1424    0.8389 C.ar    1  UNL1       -0.0078
     16 C          -0.2396   -0.1728    0.7325 C.ar    1  UNL1        0.0408
     17 C           1.0767   -0.4448    1.2552 C.2     1  UNL1        0.2447
     18 O           1.3317   -1.5654    1.8090 O.2     1  UNL1       -0.2702
     19 N           2.1496    0.4847    1.1933 N.am    1  UNL1       -0.3047
     20 C           3.4526    0.1108    1.7550 C.3     1  UNL1        0.0487
     21 C           3.9148    1.1082    2.7758 C.3     1  UNL1       -0.0423
     22 C           4.4455    0.1107    0.6345 C.ar    1  UNL1        0.0087
     23 C           4.4695    1.1509   -0.2799 C.ar    1  UNL1        0.0363
     24 N           5.3668    1.1242   -1.2697 N.ar    1  UNL1       -0.2321
     25 C           6.2524    0.1243   -1.4162 C.ar    1  UNL1        0.2339
     26 C           7.2563    0.0772   -2.5090 C.3     1  UNL1        0.4522
     27 F           8.4435   -0.3526   -1.9490 F       1  UNL1       -0.1632
     28 F           7.4810    1.3228   -3.0669 F       1  UNL1       -0.1632
     29 F           6.7879   -0.8112   -3.4586 F       1  UNL1       -0.1632
     30 N           6.2283   -0.8785   -0.5336 N.ar    1  UNL1       -0.2321
     31 C           5.3489   -0.9216    0.4957 C.ar    1  UNL1        0.0363
     32 C          -0.5739    1.0176    0.1243 C.ar    1  UNL1       -0.0397
     33 S          -3.8982    2.8050   -1.6622 S.2     1  UNL1       -0.0725
     34 H          -4.0119    5.8815   -3.7944 H       1  UNL1        0.0283
     35 H          -4.8236    6.1007   -2.1672 H       1  UNL1        0.0283
     36 H          -5.3708    4.8042   -3.2476 H       1  UNL1        0.0283
     37 H          -1.6704    5.5335   -2.1303 H       1  UNL1        0.0838
     38 H          -3.7640    0.4421   -0.6189 H       1  UNL1        0.0661
     39 H          -2.4811   -3.3842    1.4007 H       1  UNL1        0.0757
     40 H          -4.5473   -3.6919   -0.8228 H       1  UNL1        0.0324
     41 H          -2.8915   -4.4845   -0.6277 H       1  UNL1        0.0324
     42 H          -3.7734   -5.8639    1.1833 H       1  UNL1        0.0561
     43 H          -5.0918   -5.8244   -0.0492 H       1  UNL1        0.0561
     44 H          -5.2047   -2.5177    2.1655 H       1  UNL1        0.0597
     45 H          -4.1108   -3.6943    2.9281 H       1  UNL1        0.0597
     46 H          -0.9492   -2.0632    1.3146 H       1  UNL1        0.0662
     47 H           2.0034    1.4167    0.7531 H       1  UNL1        0.1496
     48 H           3.4222   -0.8991    2.1730 H       1  UNL1        0.0546
     49 H           3.2113    1.9487    2.9269 H       1  UNL1        0.0251
     50 H           4.8958    1.5667    2.5153 H       1  UNL1        0.0251
     51 H           4.0724    0.6272    3.7734 H       1  UNL1        0.0251
     52 H           3.7509    1.9629   -0.1615 H       1  UNL1        0.0834
     53 H           5.3495   -1.7443    1.1967 H       1  UNL1        0.0834
     54 H           0.1552    1.8190    0.0101 H       1  UNL1        0.0632
@<TRIPOS>BOND
     1     1     2    1
     2     2     3   ar
     3     3     4   ar
     4     4     5   ar
     5     5     6    1
     6     6     7   ar
     7     7     8   ar
     8     8     9    1
     9     9    10    1
    10    10    11    1
    11    11    12    1
    12    12    13    1
    13    13    14    1
    14     8    15   ar
    15    15    16   ar
    16    16    17    1
    17    17    18    2
    18    17    19   am
    19    19    20    1
    20    20    21    1
    21    20    22    1
    22    22    23   ar
    23    23    24   ar
    24    24    25   ar
    25    25    26    1
    26    26    27    1
    27    26    28    1
    28    26    29    1
    29    25    30   ar
    30    30    31   ar
    31    16    32   ar
    32     5    33   ar
    33    33     2   ar
    34    32     6   ar
    35    14    10    1
    36    31    22   ar
    37     1    34    1
    38     1    35    1
    39     1    36    1
    40     3    37    1
    41     7    38    1
    42    10    39    1
    43    11    40    1
    44    11    41    1
    45    12    42    1
    46    12    43    1
    47    14    44    1
    48    14    45    1
    49    15    46    1
    50    19    47    1
    51    20    48    1
    52    21    49    1
    53    21    50    1
    54    21    51    1
    55    23    52    1
    56    31    53    1
    57    32    54    1
