@<TRIPOS>MOLECULE
*****
 49 51 0 0 0
SMALL
GASTEIGER

@<TRIPOS>ATOM
      1 C           6.7421   -2.2460   -1.0351 C.3     1  UNL1       -0.0397
      2 C           5.7197   -1.3413   -0.4511 C.ar    1  UNL1       -0.0498
      3 C           5.7250   -1.0881    0.9105 C.ar    1  UNL1       -0.0569
      4 C           4.8087   -0.2639    1.5153 C.ar    1  UNL1       -0.0375
      5 C           3.8181    0.3603    0.7568 C.ar    1  UNL1        0.0470
      6 N           2.8119    1.1993    1.0753 N.ar    1  UNL1       -0.3506
      7 C           2.1062    1.5347   -0.0397 C.ar    1  UNL1        0.1030
      8 C           0.9426    2.4284   -0.0783 C.2     1  UNL1        0.2629
      9 O           1.0781    3.6476   -0.3745 O.2     1  UNL1       -0.2684
     10 N          -0.3389    1.9489    0.2120 N.am    1  UNL1       -0.2963
     11 C          -0.5295    0.5553    0.5512 C.3     1  UNL1        0.0153
     12 C          -1.4075   -0.0067   -0.5759 C.3     1  UNL1       -0.0342
     13 C          -2.6633    0.7776   -0.6487 C.3     1  UNL1       -0.0356
     14 C          -3.8965   -0.0231   -0.7064 C.3     1  UNL1       -0.0216
     15 C          -4.2561   -0.9320    0.3890 C.3     1  UNL1        0.0608
     16 C          -5.6123   -1.5723   -0.0214 C.3     1  UNL1       -0.0363
     17 C          -3.3687   -2.0792    0.7002 C.3     1  UNL1       -0.0363
     18 O          -4.5485   -0.2675    1.5766 O.3     1  UNL1       -0.3891
     19 C          -2.7244    1.8868    0.3956 C.3     1  UNL1       -0.0342
     20 C          -1.5215    2.7817    0.1938 C.3     1  UNL1        0.0153
     21 C           2.7254    0.8604   -1.0711 C.ar    1  UNL1       -0.0241
     22 C           3.7988    0.1188   -0.5989 C.ar    1  UNL1        0.0006
     23 C           4.7339   -0.7163   -1.1847 C.ar    1  UNL1       -0.0496
     24 H           6.2653   -3.1529   -1.4607 H       1  UNL1        0.0278
     25 H           7.1903   -1.7021   -1.9038 H       1  UNL1        0.0278
     26 H           7.4996   -2.4658   -0.2824 H       1  UNL1        0.0278
     27 H           6.4946   -1.5728    1.4957 H       1  UNL1        0.0621
     28 H           4.8095   -0.0626    2.5830 H       1  UNL1        0.0638
     29 H           2.6011    1.5444    2.0367 H       1  UNL1        0.1660
     30 H          -1.0296    0.4361    1.5091 H       1  UNL1        0.0465
     31 H           0.4333   -0.0198    0.4775 H       1  UNL1        0.0465
     32 H          -1.4845   -1.0911   -0.5440 H       1  UNL1        0.0283
     33 H          -0.7570    0.1845   -1.5002 H       1  UNL1        0.0283
     34 H          -2.6243    1.3614   -1.6276 H       1  UNL1        0.0303
     35 H          -3.8905   -0.5851   -1.6755 H       1  UNL1        0.0295
     36 H          -4.7610    0.7104   -0.8107 H       1  UNL1        0.0295
     37 H          -5.6325   -1.7391   -1.1182 H       1  UNL1        0.0257
     38 H          -5.7621   -2.5393    0.4647 H       1  UNL1        0.0257
     39 H          -6.4499   -0.9175    0.2193 H       1  UNL1        0.0257
     40 H          -2.5267   -1.8690    1.3946 H       1  UNL1        0.0257
     41 H          -3.1036   -2.7183   -0.1658 H       1  UNL1        0.0257
     42 H          -4.0182   -2.7894    1.3280 H       1  UNL1        0.0257
     43 H          -5.1089    0.5076    1.4099 H       1  UNL1        0.2101
     44 H          -3.6120    2.5002    0.1254 H       1  UNL1        0.0283
     45 H          -2.7299    1.5326    1.4231 H       1  UNL1        0.0283
     46 H          -1.4103    3.5079    1.0275 H       1  UNL1        0.0465
     47 H          -1.6338    3.3481   -0.7386 H       1  UNL1        0.0465
     48 H           2.4056    0.9128   -2.1057 H       1  UNL1        0.0646
     49 H           4.6920   -0.8844   -2.2469 H       1  UNL1        0.0627
@<TRIPOS>BOND
     1     1     2    1
     2     2     3   ar
     3     3     4   ar
     4     4     5   ar
     5     5     6   ar
     6     6     7   ar
     7     7     8    1
     8     8     9    2
     9     8    10   am
    10    10    11    1
    11    11    12    1
    12    12    13    1
    13    13    14    1
    14    14    15    1
    15    15    16    1
    16    15    17    1
    17    15    18    1
    18    13    19    1
    19    19    20    1
    20     7    21   ar
    21    21    22   ar
    22    22    23   ar
    23    23     2   ar
    24    22     5   ar
    25    20    10    1
    26     1    24    1
    27     1    25    1
    28     1    26    1
    29     3    27    1
    30     4    28    1
    31     6    29    1
    32    11    30    1
    33    11    31    1
    34    12    32    1
    35    12    33    1
    36    13    34    1
    37    14    35    1
    38    14    36    1
    39    16    37    1
    40    16    38    1
    41    16    39    1
    42    17    40    1
    43    17    41    1
    44    17    42    1
    45    18    43    1
    46    19    44    1
    47    19    45    1
    48    20    46    1
    49    20    47    1
    50    21    48    1
    51    23    49    1
