
     RDKit          3D

 49 51  0  0  0  0  0  0  0  0999 V2000
    6.7421   -2.2460   -1.0351 C   0  0  0  0  0  0  0  0  0  0  0  0
    5.7197   -1.3413   -0.4511 C   0  0  0  0  0  0  0  0  0  0  0  0
    5.7250   -1.0881    0.9105 C   0  0  0  0  0  0  0  0  0  0  0  0
    4.8087   -0.2639    1.5153 C   0  0  0  0  0  0  0  0  0  0  0  0
    3.8181    0.3603    0.7568 C   0  0  0  0  0  0  0  0  0  0  0  0
    2.8119    1.1993    1.0753 N   0  0  0  0  0  0  0  0  0  0  0  0
    2.1062    1.5347   -0.0397 C   0  0  0  0  0  0  0  0  0  0  0  0
    0.9426    2.4284   -0.0783 C   0  0  0  0  0  0  0  0  0  0  0  0
    1.0781    3.6476   -0.3745 O   0  0  0  0  0  0  0  0  0  0  0  0
   -0.3389    1.9489    0.2120 N   0  0  0  0  0  0  0  0  0  0  0  0
   -0.5295    0.5553    0.5512 C   0  0  0  0  0  0  0  0  0  0  0  0
   -1.4075   -0.0067   -0.5759 C   0  0  0  0  0  0  0  0  0  0  0  0
   -2.6633    0.7776   -0.6487 C   0  0  0  0  0  0  0  0  0  0  0  0
   -3.8965   -0.0231   -0.7064 C   0  0  0  0  0  0  0  0  0  0  0  0
   -4.2561   -0.9320    0.3890 C   0  0  0  0  0  0  0  0  0  0  0  0
   -5.6123   -1.5723   -0.0214 C   0  0  0  0  0  0  0  0  0  0  0  0
   -3.3687   -2.0792    0.7002 C   0  0  0  0  0  0  0  0  0  0  0  0
   -4.5485   -0.2675    1.5766 O   0  0  0  0  0  0  0  0  0  0  0  0
   -2.7244    1.8868    0.3956 C   0  0  0  0  0  0  0  0  0  0  0  0
   -1.5215    2.7817    0.1938 C   0  0  0  0  0  0  0  0  0  0  0  0
    2.7254    0.8604   -1.0711 C   0  0  0  0  0  0  0  0  0  0  0  0
    3.7988    0.1188   -0.5989 C   0  0  0  0  0  0  0  0  0  0  0  0
    4.7339   -0.7163   -1.1847 C   0  0  0  0  0  0  0  0  0  0  0  0
    6.2653   -3.1529   -1.4607 H   0  0  0  0  0  0  0  0  0  0  0  0
    7.1903   -1.7021   -1.9038 H   0  0  0  0  0  0  0  0  0  0  0  0
    7.4996   -2.4658   -0.2824 H   0  0  0  0  0  0  0  0  0  0  0  0
    6.4946   -1.5728    1.4957 H   0  0  0  0  0  0  0  0  0  0  0  0
    4.8095   -0.0626    2.5830 H   0  0  0  0  0  0  0  0  0  0  0  0
    2.6011    1.5444    2.0367 H   0  0  0  0  0  0  0  0  0  0  0  0
   -1.0296    0.4361    1.5091 H   0  0  0  0  0  0  0  0  0  0  0  0
    0.4333   -0.0198    0.4775 H   0  0  0  0  0  0  0  0  0  0  0  0
   -1.4845   -1.0911   -0.5440 H   0  0  0  0  0  0  0  0  0  0  0  0
   -0.7570    0.1845   -1.5002 H   0  0  0  0  0  0  0  0  0  0  0  0
   -2.6243    1.3614   -1.6276 H   0  0  0  0  0  0  0  0  0  0  0  0
   -3.8905   -0.5851   -1.6755 H   0  0  0  0  0  0  0  0  0  0  0  0
   -4.7610    0.7104   -0.8107 H   0  0  0  0  0  0  0  0  0  0  0  0
   -5.6325   -1.7391   -1.1182 H   0  0  0  0  0  0  0  0  0  0  0  0
   -5.7621   -2.5393    0.4647 H   0  0  0  0  0  0  0  0  0  0  0  0
   -6.4499   -0.9175    0.2193 H   0  0  0  0  0  0  0  0  0  0  0  0
   -2.5267   -1.8690    1.3946 H   0  0  0  0  0  0  0  0  0  0  0  0
   -3.1036   -2.7183   -0.1658 H   0  0  0  0  0  0  0  0  0  0  0  0
   -4.0182   -2.7894    1.3280 H   0  0  0  0  0  0  0  0  0  0  0  0
   -5.1089    0.5076    1.4099 H   0  0  0  0  0  0  0  0  0  0  0  0
   -3.6120    2.5002    0.1254 H   0  0  0  0  0  0  0  0  0  0  0  0
   -2.7299    1.5326    1.4231 H   0  0  0  0  0  0  0  0  0  0  0  0
   -1.4103    3.5079    1.0275 H   0  0  0  0  0  0  0  0  0  0  0  0
   -1.6338    3.3481   -0.7386 H   0  0  0  0  0  0  0  0  0  0  0  0
    2.4056    0.9128   -2.1057 H   0  0  0  0  0  0  0  0  0  0  0  0
    4.6920   -0.8844   -2.2469 H   0  0  0  0  0  0  0  0  0  0  0  0
  1  2  1  0
  2  3  2  0
  3  4  1  0
  4  5  2  0
  5  6  1  0
  6  7  1  0
  7  8  1  0
  8  9  2  0
  8 10  1  0
 10 11  1  0
 11 12  1  0
 12 13  1  0
 13 14  1  0
 14 15  1  0
 15 16  1  0
 15 17  1  0
 15 18  1  0
 13 19  1  0
 19 20  1  0
  7 21  2  0
 21 22  1  0
 22 23  2  0
 23  2  1  0
 22  5  1  0
 20 10  1  0
  1 24  1  0
  1 25  1  0
  1 26  1  0
  3 27  1  0
  4 28  1  0
  6 29  1  0
 11 30  1  0
 11 31  1  0
 12 32  1  0
 12 33  1  0
 13 34  1  0
 14 35  1  0
 14 36  1  0
 16 37  1  0
 16 38  1  0
 16 39  1  0
 17 40  1  0
 17 41  1  0
 17 42  1  0
 18 43  1  0
 19 44  1  0
 19 45  1  0
 20 46  1  0
 20 47  1  0
 21 48  1  0
 23 49  1  0
M  END
$$$$
