@<TRIPOS>MOLECULE
*****
 53 55 0 0 0
SMALL
GASTEIGER

@<TRIPOS>ATOM
      1 C          -2.2173    3.5974   -1.9624 C.2     1  UNL1       -0.0951
      2 C          -1.4560    2.5698   -1.6465 C.2     1  UNL1       -0.0472
      3 C          -0.0149    2.7305   -2.0217 C.3     1  UNL1       -0.0396
      4 C          -2.0444    1.3809   -1.0843 C.ar    1  UNL1        0.0166
      5 C          -3.4469    1.1873   -1.1498 C.ar    1  UNL1        0.0374
      6 N          -4.0244    0.0850   -0.6559 N.ar    1  UNL1       -0.2542
      7 C          -3.3304   -0.9201   -0.0634 C.ar    1  UNL1        0.0755
      8 C          -4.0661   -2.0866    0.4418 C.ar    1  UNL1        0.0369
      9 C          -5.4577   -2.1034    0.2857 C.ar    1  UNL1       -0.0314
     10 C          -6.2187   -3.1515    0.7278 C.ar    1  UNL1        0.0418
     11 CL         -7.9478   -3.1658    0.5305 Cl      1  UNL1       -0.0835
     12 C          -5.6301   -4.2278    1.3439 C.ar    1  UNL1       -0.0406
     13 C          -4.2688   -4.2502    1.5164 C.ar    1  UNL1       -0.0244
     14 C          -3.5311   -3.1751    1.0578 C.ar    1  UNL1        0.1326
     15 F          -2.1958   -3.2362    1.2469 F       1  UNL1       -0.2048
     16 C          -1.9810   -0.7432    0.0065 C.ar    1  UNL1       -0.0138
     17 C          -1.3295    0.4025   -0.4979 C.ar    1  UNL1        0.0423
     18 N           0.0913    0.4613   -0.3279 N.pl3   1  UNL1       -0.3133
     19 C           0.7073    1.3768    0.5408 C.ar    1  UNL1        0.0465
     20 C          -0.1786    2.1795    1.2794 C.ar    1  UNL1       -0.0217
     21 C           0.3500    3.0970    2.1413 C.ar    1  UNL1        0.0293
     22 N           1.6749    3.2400    2.2903 N.ar    1  UNL1       -0.2624
     23 C           2.5178    2.4713    1.5831 C.ar    1  UNL1        0.0415
     24 C           2.0593    1.5019    0.6732 C.ar    1  UNL1        0.0758
     25 C           2.9963    0.6992   -0.0792 C.2     1  UNL1        0.2474
     26 O           2.5839   -0.1404   -0.9117 O.2     1  UNL1       -0.2701
     27 N           4.4260    0.7897    0.0561 N.am    1  UNL1       -0.3088
     28 C           5.2947   -0.0448   -0.7295 C.3     1  UNL1        0.0377
     29 C           5.0948   -1.5115   -0.5142 C.3     1  UNL1        0.0679
     30 C           5.4722   -1.8358    0.9296 C.3     1  UNL1       -0.0375
     31 O           6.0132   -2.1752   -1.3489 O.3     1  UNL1       -0.3905
     32 H          -3.2529    3.6156   -1.7527 H       1  UNL1        0.0538
     33 H          -1.8126    4.4753   -2.4544 H       1  UNL1        0.0538
     34 H           0.4344    3.4361   -1.3134 H       1  UNL1        0.0278
     35 H          -0.0484    3.3364   -3.0025 H       1  UNL1        0.0278
     36 H           0.4920    1.7882   -2.2030 H       1  UNL1        0.0278
     37 H          -4.0354    1.9572   -1.6246 H       1  UNL1        0.0836
     38 H          -5.9254   -1.2617   -0.1970 H       1  UNL1        0.0639
     39 H          -6.1961   -5.0833    1.7113 H       1  UNL1        0.0633
     40 H          -3.7592   -5.0577    1.9867 H       1  UNL1        0.0647
     41 H          -1.3656   -1.4824    0.4544 H       1  UNL1        0.0658
     42 H           0.5814   -0.2436   -0.9090 H       1  UNL1        0.1522
     43 H          -1.2342    2.0634    1.1663 H       1  UNL1        0.0651
     44 H          -0.3192    3.7415    2.7346 H       1  UNL1        0.0830
     45 H           3.5841    2.5760    1.6925 H       1  UNL1        0.0838
     46 H           4.8005    1.4650    0.7282 H       1  UNL1        0.1491
     47 H           6.3491    0.1886   -0.4751 H       1  UNL1        0.0487
     48 H           5.2099    0.1853   -1.8295 H       1  UNL1        0.0487
     49 H           4.1110   -1.8987   -0.7643 H       1  UNL1        0.0606
     50 H           4.7342   -2.5479    1.3325 H       1  UNL1        0.0255
     51 H           5.4129   -0.9039    1.5298 H       1  UNL1        0.0255
     52 H           6.4978   -2.2191    0.9653 H       1  UNL1        0.0255
     53 H           5.7995   -3.1330   -1.4342 H       1  UNL1        0.2098
@<TRIPOS>BOND
     1     1     2    2
     2     2     3    1
     3     2     4    1
     4     4     5   ar
     5     5     6   ar
     6     6     7   ar
     7     7     8    1
     8     8     9   ar
     9     9    10   ar
    10    10    11    1
    11    10    12   ar
    12    12    13   ar
    13    13    14   ar
    14    14    15    1
    15     7    16   ar
    16    16    17   ar
    17    17    18    1
    18    18    19    1
    19    19    20   ar
    20    20    21   ar
    21    21    22   ar
    22    22    23   ar
    23    23    24   ar
    24    24    25    1
    25    25    26    2
    26    25    27   am
    27    27    28    1
    28    28    29    1
    29    29    30    1
    30    29    31    1
    31    17     4   ar
    32    24    19   ar
    33    14     8   ar
    34     1    32    1
    35     1    33    1
    36     3    34    1
    37     3    35    1
    38     3    36    1
    39     5    37    1
    40     9    38    1
    41    12    39    1
    42    13    40    1
    43    16    41    1
    44    18    42    1
    45    20    43    1
    46    21    44    1
    47    23    45    1
    48    27    46    1
    49    28    47    1
    50    28    48    1
    51    29    49    1
    52    30    50    1
    53    30    51    1
    54    30    52    1
    55    31    53    1
