
     RDKit          3D

 53 55  0  0  0  0  0  0  0  0999 V2000
   -2.2173    3.5974   -1.9624 C   0  0  0  0  0  0  0  0  0  0  0  0
   -1.4560    2.5698   -1.6465 C   0  0  0  0  0  0  0  0  0  0  0  0
   -0.0149    2.7305   -2.0217 C   0  0  0  0  0  0  0  0  0  0  0  0
   -2.0444    1.3809   -1.0843 C   0  0  0  0  0  0  0  0  0  0  0  0
   -3.4469    1.1873   -1.1498 C   0  0  0  0  0  0  0  0  0  0  0  0
   -4.0244    0.0850   -0.6559 N   0  0  0  0  0  0  0  0  0  0  0  0
   -3.3304   -0.9201   -0.0634 C   0  0  0  0  0  0  0  0  0  0  0  0
   -4.0661   -2.0866    0.4418 C   0  0  0  0  0  0  0  0  0  0  0  0
   -5.4577   -2.1034    0.2857 C   0  0  0  0  0  0  0  0  0  0  0  0
   -6.2187   -3.1515    0.7278 C   0  0  0  0  0  0  0  0  0  0  0  0
   -7.9478   -3.1658    0.5305 Cl  0  0  0  0  0  0  0  0  0  0  0  0
   -5.6301   -4.2278    1.3439 C   0  0  0  0  0  0  0  0  0  0  0  0
   -4.2688   -4.2502    1.5164 C   0  0  0  0  0  0  0  0  0  0  0  0
   -3.5311   -3.1751    1.0578 C   0  0  0  0  0  0  0  0  0  0  0  0
   -2.1958   -3.2362    1.2469 F   0  0  0  0  0  0  0  0  0  0  0  0
   -1.9810   -0.7432    0.0065 C   0  0  0  0  0  0  0  0  0  0  0  0
   -1.3295    0.4025   -0.4979 C   0  0  0  0  0  0  0  0  0  0  0  0
    0.0913    0.4613   -0.3279 N   0  0  0  0  0  0  0  0  0  0  0  0
    0.7073    1.3768    0.5408 C   0  0  0  0  0  0  0  0  0  0  0  0
   -0.1786    2.1795    1.2794 C   0  0  0  0  0  0  0  0  0  0  0  0
    0.3500    3.0970    2.1413 C   0  0  0  0  0  0  0  0  0  0  0  0
    1.6749    3.2400    2.2903 N   0  0  0  0  0  0  0  0  0  0  0  0
    2.5178    2.4713    1.5831 C   0  0  0  0  0  0  0  0  0  0  0  0
    2.0593    1.5019    0.6732 C   0  0  0  0  0  0  0  0  0  0  0  0
    2.9963    0.6992   -0.0792 C   0  0  0  0  0  0  0  0  0  0  0  0
    2.5839   -0.1404   -0.9117 O   0  0  0  0  0  0  0  0  0  0  0  0
    4.4260    0.7897    0.0561 N   0  0  0  0  0  0  0  0  0  0  0  0
    5.2947   -0.0448   -0.7295 C   0  0  0  0  0  0  0  0  0  0  0  0
    5.0948   -1.5115   -0.5142 C   0  0  2  0  0  0  0  0  0  0  0  0
    5.4722   -1.8358    0.9296 C   0  0  0  0  0  0  0  0  0  0  0  0
    6.0132   -2.1752   -1.3489 O   0  0  0  0  0  0  0  0  0  0  0  0
   -3.2529    3.6156   -1.7527 H   0  0  0  0  0  0  0  0  0  0  0  0
   -1.8126    4.4753   -2.4544 H   0  0  0  0  0  0  0  0  0  0  0  0
    0.4344    3.4361   -1.3134 H   0  0  0  0  0  0  0  0  0  0  0  0
   -0.0484    3.3364   -3.0025 H   0  0  0  0  0  0  0  0  0  0  0  0
    0.4920    1.7882   -2.2030 H   0  0  0  0  0  0  0  0  0  0  0  0
   -4.0354    1.9572   -1.6246 H   0  0  0  0  0  0  0  0  0  0  0  0
   -5.9254   -1.2617   -0.1970 H   0  0  0  0  0  0  0  0  0  0  0  0
   -6.1961   -5.0833    1.7113 H   0  0  0  0  0  0  0  0  0  0  0  0
   -3.7592   -5.0577    1.9867 H   0  0  0  0  0  0  0  0  0  0  0  0
   -1.3656   -1.4824    0.4544 H   0  0  0  0  0  0  0  0  0  0  0  0
    0.5814   -0.2436   -0.9090 H   0  0  0  0  0  0  0  0  0  0  0  0
   -1.2342    2.0634    1.1663 H   0  0  0  0  0  0  0  0  0  0  0  0
   -0.3192    3.7415    2.7346 H   0  0  0  0  0  0  0  0  0  0  0  0
    3.5841    2.5760    1.6925 H   0  0  0  0  0  0  0  0  0  0  0  0
    4.8005    1.4650    0.7282 H   0  0  0  0  0  0  0  0  0  0  0  0
    6.3491    0.1886   -0.4751 H   0  0  0  0  0  0  0  0  0  0  0  0
    5.2099    0.1853   -1.8295 H   0  0  0  0  0  0  0  0  0  0  0  0
    4.1110   -1.8987   -0.7643 H   0  0  0  0  0  0  0  0  0  0  0  0
    4.7342   -2.5479    1.3325 H   0  0  0  0  0  0  0  0  0  0  0  0
    5.4129   -0.9039    1.5298 H   0  0  0  0  0  0  0  0  0  0  0  0
    6.4978   -2.2191    0.9653 H   0  0  0  0  0  0  0  0  0  0  0  0
    5.7995   -3.1330   -1.4342 H   0  0  0  0  0  0  0  0  0  0  0  0
  1  2  2  3
  2  3  1  0
  2  4  1  0
  4  5  2  0
  5  6  1  0
  6  7  2  0
  7  8  1  0
  8  9  2  0
  9 10  1  0
 10 11  1  0
 10 12  2  0
 12 13  1  0
 13 14  2  0
 14 15  1  0
  7 16  1  0
 16 17  2  0
 17 18  1  0
 18 19  1  0
 19 20  2  0
 20 21  1  0
 21 22  2  0
 22 23  1  0
 23 24  2  0
 24 25  1  0
 25 26  2  0
 25 27  1  0
 27 28  1  0
 28 29  1  0
 29 30  1  0
 29 31  1  0
 17  4  1  0
 24 19  1  0
 14  8  1  0
  1 32  1  0
  1 33  1  0
  3 34  1  0
  3 35  1  0
  3 36  1  0
  5 37  1  0
  9 38  1  0
 12 39  1  0
 13 40  1  0
 16 41  1  0
 18 42  1  0
 20 43  1  0
 21 44  1  0
 23 45  1  0
 27 46  1  0
 28 47  1  0
 28 48  1  0
 29 49  1  6
 30 50  1  0
 30 51  1  0
 30 52  1  0
 31 53  1  0
M  END
$$$$
