
     RDKit          3D

 50 53  0  0  0  0  0  0  0  0999 V2000
   -4.7162    0.5991    1.1672 C   0  0  1  0  0  0  0  0  0  0  0  0
   -5.5577    0.8758    2.3905 C   0  0  0  0  0  0  0  0  0  0  0  0
   -6.2219    2.0956    2.2202 O   0  0  0  0  0  0  0  0  0  0  0  0
   -4.0159   -0.6245    1.2758 O   0  0  0  0  0  0  0  0  0  0  0  0
   -3.1607   -0.6657    0.1584 C   0  0  1  0  0  0  0  0  0  0  0  0
   -2.1008   -1.5659    0.3784 O   0  0  0  0  0  0  0  0  0  0  0  0
   -0.8000   -1.1928    0.2319 C   0  0  0  0  0  0  0  0  0  0  0  0
    0.0308   -2.2853    0.5134 C   0  0  0  0  0  0  0  0  0  0  0  0
    1.4266   -2.1876    0.4415 C   0  0  0  0  0  0  0  0  0  0  0  0
    2.0140   -0.9883    0.0847 C   0  0  0  0  0  0  0  0  0  0  0  0
    3.3883   -0.8589    0.0046 C   0  0  0  0  0  0  0  0  0  0  0  0
    4.1040   -1.8779    0.2691 O   0  0  0  0  0  0  0  0  0  0  0  0
    3.8755    0.3789   -0.3598 C   0  0  0  0  0  0  0  0  0  0  0  0
    3.0053    1.4192   -0.6254 C   0  0  0  0  0  0  0  0  0  0  0  0
    1.6984    1.2353   -0.5320 O   0  0  0  0  0  0  0  0  0  0  0  0
    1.1867    0.0810   -0.1903 C   0  0  0  0  0  0  0  0  0  0  0  0
   -0.1785   -0.0152   -0.1198 C   0  0  0  0  0  0  0  0  0  0  0  0
    5.3346    0.4858   -0.4362 C   0  0  0  0  0  0  0  0  0  0  0  0
    5.8768    1.1299   -1.5368 C   0  0  0  0  0  0  0  0  0  0  0  0
    7.2686    1.2387   -1.6215 C   0  0  0  0  0  0  0  0  0  0  0  0
    8.0605    0.7100   -0.6217 C   0  0  0  0  0  0  0  0  0  0  0  0
    9.4441    0.8401   -0.7449 O   0  0  0  0  0  0  0  0  0  0  0  0
    7.5026    0.0709    0.4688 C   0  0  0  0  0  0  0  0  0  0  0  0
    6.1315   -0.0519    0.5799 C   0  0  0  0  0  0  0  0  0  0  0  0
   -3.9954   -1.2479   -0.9899 C   0  0  2  0  0  0  0  0  0  0  0  0
   -3.4807   -0.7368   -2.1811 O   0  0  0  0  0  0  0  0  0  0  0  0
   -5.4156   -0.8125   -0.7709 C   0  0  1  0  0  0  0  0  0  0  0  0
   -6.0489   -1.8398   -0.0699 O   0  0  0  0  0  0  0  0  0  0  0  0
   -5.5474    0.5119   -0.0750 C   0  0  2  0  0  0  0  0  0  0  0  0
   -5.1765    1.5100   -0.9747 O   0  0  0  0  0  0  0  0  0  0  0  0
   -3.9351    1.3851    1.1062 H   0  0  0  0  0  0  0  0  0  0  0  0
   -6.2949    0.0868    2.5890 H   0  0  0  0  0  0  0  0  0  0  0  0
   -4.8816    0.9842    3.2644 H   0  0  0  0  0  0  0  0  0  0  0  0
   -5.6100    2.8499    2.1652 H   0  0  0  0  0  0  0  0  0  0  0  0
   -2.8388    0.3496   -0.1379 H   0  0  0  0  0  0  0  0  0  0  0  0
   -0.2652   -3.3042    0.8100 H   0  0  0  0  0  0  0  0  0  0  0  0
    2.1057   -2.9854    0.6447 H   0  0  0  0  0  0  0  0  0  0  0  0
    3.4462    2.3693   -0.9072 H   0  0  0  0  0  0  0  0  0  0  0  0
   -0.8739    0.7618   -0.3167 H   0  0  0  0  0  0  0  0  0  0  0  0
    5.2030    1.5348   -2.3076 H   0  0  0  0  0  0  0  0  0  0  0  0
    7.6913    1.7509   -2.4975 H   0  0  0  0  0  0  0  0  0  0  0  0
    9.8979    1.5856   -0.1994 H   0  0  0  0  0  0  0  0  0  0  0  0
    8.1101   -0.3494    1.2618 H   0  0  0  0  0  0  0  0  0  0  0  0
    5.6504   -0.5523    1.4304 H   0  0  0  0  0  0  0  0  0  0  0  0
   -3.9065   -2.3527   -1.0273 H   0  0  0  0  0  0  0  0  0  0  0  0
   -4.1573   -0.7706   -2.9045 H   0  0  0  0  0  0  0  0  0  0  0  0
   -5.9383   -0.7175   -1.7553 H   0  0  0  0  0  0  0  0  0  0  0  0
   -6.2308   -1.5824    0.8658 H   0  0  0  0  0  0  0  0  0  0  0  0
   -6.6298    0.6083    0.1955 H   0  0  0  0  0  0  0  0  0  0  0  0
   -4.4745    2.1171   -0.6140 H   0  0  0  0  0  0  0  0  0  0  0  0
  1  2  1  0
  2  3  1  0
  1  4  1  0
  4  5  1  0
  5  6  1  0
  6  7  1  0
  7  8  2  0
  8  9  1  0
  9 10  2  0
 10 11  1  0
 11 12  2  0
 11 13  1  0
 13 14  2  0
 14 15  1  0
 15 16  1  0
 16 17  2  0
 13 18  1  0
 18 19  2  0
 19 20  1  0
 20 21  2  0
 21 22  1  0
 21 23  1  0
 23 24  2  0
  5 25  1  0
 25 26  1  0
 25 27  1  0
 27 28  1  0
 27 29  1  0
 29 30  1  0
 29  1  1  0
 17  7  1  0
 24 18  1  0
 16 10  1  0
  1 31  1  6
  2 32  1  0
  2 33  1  0
  3 34  1  0
  5 35  1  6
  8 36  1  0
  9 37  1  0
 14 38  1  0
 17 39  1  0
 19 40  1  0
 20 41  1  0
 22 42  1  0
 23 43  1  0
 24 44  1  0
 25 45  1  6
 26 46  1  0
 27 47  1  6
 28 48  1  0
 29 49  1  1
 30 50  1  0
M  END
$$$$
