
     RDKit          3D

 48 50  0  0  0  0  0  0  0  0999 V2000
    9.1956    1.3970    0.1510 C   0  0  0  0  0  0  0  0  0  0  0  0
    8.3051    0.2827   -0.1195 N   0  0  0  0  0  0  0  0  0  0  0  0
    7.0154    0.2660    0.4715 C   0  0  0  0  0  0  0  0  0  0  0  0
    6.6864    1.2226    1.2137 O   0  0  0  0  0  0  0  0  0  0  0  0
    6.0701   -0.8285    0.2387 C   0  0  0  0  0  0  0  0  0  0  0  0
    4.8348   -0.8091    0.8267 C   0  0  0  0  0  0  0  0  0  0  0  0
    3.8967   -1.8131    0.6462 C   0  0  0  0  0  0  0  0  0  0  0  0
    2.6441   -1.7519    1.2679 O   0  0  0  0  0  0  0  0  0  0  0  0
    1.5522   -1.1557    0.6819 C   0  0  0  0  0  0  0  0  0  0  0  0
    0.6836   -1.8728   -0.1208 C   0  0  0  0  0  0  0  0  0  0  0  0
   -0.4103   -1.2655   -0.7051 C   0  0  0  0  0  0  0  0  0  0  0  0
   -0.6486    0.0767   -0.4905 C   0  0  0  0  0  0  0  0  0  0  0  0
   -1.7803    0.6620   -1.1071 N   0  0  0  0  0  0  0  0  0  0  0  0
   -3.0369    0.6908   -0.4556 C   0  0  0  0  0  0  0  0  0  0  0  0
   -3.1521    0.1813    0.7058 O   0  0  0  0  0  0  0  0  0  0  0  0
   -4.1799    1.2789   -1.0715 N   0  0  0  0  0  0  0  0  0  0  0  0
   -5.4244    1.2828   -0.3733 C   0  0  0  0  0  0  0  0  0  0  0  0
   -5.6687    2.3915    0.4422 C   0  0  0  0  0  0  0  0  0  0  0  0
   -6.8477    2.4784    1.1545 C   0  0  0  0  0  0  0  0  0  0  0  0
   -7.7725    1.4489    1.0409 C   0  0  0  0  0  0  0  0  0  0  0  0
   -9.2566    1.5947    1.9599 Cl  0  0  0  0  0  0  0  0  0  0  0  0
   -7.5161    0.3534    0.2266 C   0  0  0  0  0  0  0  0  0  0  0  0
   -8.5768   -0.6933    0.1785 C   0  0  0  0  0  0  0  0  0  0  0  0
   -9.7259   -0.0519   -0.3028 F   0  0  0  0  0  0  0  0  0  0  0  0
   -8.2269   -1.7428   -0.6247 F   0  0  0  0  0  0  0  0  0  0  0  0
   -8.8514   -1.0601    1.4752 F   0  0  0  0  0  0  0  0  0  0  0  0
   -6.3496    0.2789   -0.4711 C   0  0  0  0  0  0  0  0  0  0  0  0
    0.2228    0.7971    0.3151 C   0  0  0  0  0  0  0  0  0  0  0  0
    1.3110    0.1993    0.8981 C   0  0  0  0  0  0  0  0  0  0  0  0
    4.2625   -2.8632   -0.1706 C   0  0  0  0  0  0  0  0  0  0  0  0
    5.5129   -2.8768   -0.7621 C   0  0  0  0  0  0  0  0  0  0  0  0
    6.3997   -1.8630   -0.5517 N   0  0  0  0  0  0  0  0  0  0  0  0
    9.7912    1.6914   -0.7312 H   0  0  0  0  0  0  0  0  0  0  0  0
    8.6215    2.3077    0.4618 H   0  0  0  0  0  0  0  0  0  0  0  0
    9.9060    1.0976    0.9441 H   0  0  0  0  0  0  0  0  0  0  0  0
    8.5972   -0.4936   -0.7335 H   0  0  0  0  0  0  0  0  0  0  0  0
    4.5874    0.0259    1.4559 H   0  0  0  0  0  0  0  0  0  0  0  0
    0.8920   -2.9429   -0.2791 H   0  0  0  0  0  0  0  0  0  0  0  0
   -1.0459   -1.8887   -1.3203 H   0  0  0  0  0  0  0  0  0  0  0  0
   -1.7044    1.0815   -2.0525 H   0  0  0  0  0  0  0  0  0  0  0  0
   -4.1462    1.7027   -2.0021 H   0  0  0  0  0  0  0  0  0  0  0  0
   -4.9391    3.1791    0.5168 H   0  0  0  0  0  0  0  0  0  0  0  0
   -7.0490    3.3432    1.7968 H   0  0  0  0  0  0  0  0  0  0  0  0
   -6.1555   -0.5695   -1.0992 H   0  0  0  0  0  0  0  0  0  0  0  0
    0.0366    1.8470    0.4831 H   0  0  0  0  0  0  0  0  0  0  0  0
    2.0110    0.7372    1.5337 H   0  0  0  0  0  0  0  0  0  0  0  0
    3.5718   -3.6839   -0.3537 H   0  0  0  0  0  0  0  0  0  0  0  0
    5.8573   -3.6702   -1.4110 H   0  0  0  0  0  0  0  0  0  0  0  0
  1  2  1  0
  2  3  1  0
  3  4  2  0
  3  5  1  0
  5  6  2  0
  6  7  1  0
  7  8  1  0
  8  9  1  0
  9 10  2  0
 10 11  1  0
 11 12  2  0
 12 13  1  0
 13 14  1  0
 14 15  2  0
 14 16  1  0
 16 17  1  0
 17 18  2  0
 18 19  1  0
 19 20  2  0
 20 21  1  0
 20 22  1  0
 22 23  1  0
 23 24  1  0
 23 25  1  0
 23 26  1  0
 22 27  2  0
 12 28  1  0
 28 29  2  0
  7 30  2  0
 30 31  1  0
 31 32  2  0
 32  5  1  0
 29  9  1  0
 27 17  1  0
  1 33  1  0
  1 34  1  0
  1 35  1  0
  2 36  1  0
  6 37  1  0
 10 38  1  0
 11 39  1  0
 13 40  1  0
 16 41  1  0
 18 42  1  0
 19 43  1  0
 27 44  1  0
 28 45  1  0
 29 46  1  0
 30 47  1  0
 31 48  1  0
M  END
$$$$
