@<TRIPOS>MOLECULE
*****
 48 50 0 0 0
SMALL
GASTEIGER

@<TRIPOS>ATOM
      1 C           9.1956    1.3970    0.1510 C.3     1  UNL1        0.0004
      2 N           8.3051    0.2827   -0.1195 N.am    1  UNL1       -0.3132
      3 C           7.0154    0.2660    0.4715 C.2     1  UNL1        0.2623
      4 O           6.6864    1.2226    1.2137 O.2     1  UNL1       -0.2685
      5 C           6.0701   -0.8285    0.2387 C.ar    1  UNL1        0.1288
      6 C           4.8348   -0.8091    0.8267 C.ar    1  UNL1        0.0112
      7 C           3.8967   -1.8131    0.6462 C.ar    1  UNL1        0.1321
      8 O           2.6441   -1.7519    1.2679 O.3     1  UNL1       -0.4559
      9 C           1.5522   -1.1557    0.6819 C.ar    1  UNL1        0.1286
     10 C           0.6836   -1.8728   -0.1208 C.ar    1  UNL1       -0.0176
     11 C          -0.4103   -1.2655   -0.7051 C.ar    1  UNL1       -0.0370
     12 C          -0.6486    0.0767   -0.4905 C.ar    1  UNL1        0.0350
     13 N          -1.7803    0.6620   -1.1071 N.am    1  UNL1       -0.2692
     14 C          -3.0369    0.6908   -0.4556 C.2     1  UNL1        0.3081
     15 O          -3.1521    0.1813    0.7058 O.2     1  UNL1       -0.2522
     16 N          -4.1799    1.2789   -1.0715 N.am    1  UNL1       -0.2692
     17 C          -5.4244    1.2828   -0.3733 C.ar    1  UNL1        0.0354
     18 C          -5.6687    2.3915    0.4422 C.ar    1  UNL1       -0.0390
     19 C          -6.8477    2.4784    1.1545 C.ar    1  UNL1       -0.0411
     20 C          -7.7725    1.4489    1.0409 C.ar    1  UNL1        0.0527
     21 CL         -9.2566    1.5947    1.9599 Cl      1  UNL1       -0.0830
     22 C          -7.5161    0.3534    0.2266 C.ar    1  UNL1        0.0748
     23 C          -8.5768   -0.6933    0.1785 C.3     1  UNL1        0.4188
     24 F          -9.7259   -0.0519   -0.3028 F       1  UNL1       -0.1658
     25 F          -8.2269   -1.7428   -0.6247 F       1  UNL1       -0.1658
     26 F          -8.8514   -1.0601    1.4752 F       1  UNL1       -0.1658
     27 C          -6.3496    0.2789   -0.4711 C.ar    1  UNL1       -0.0274
     28 C           0.2228    0.7971    0.3151 C.ar    1  UNL1       -0.0370
     29 C           1.3110    0.1993    0.8981 C.ar    1  UNL1       -0.0176
     30 C           4.2625   -2.8632   -0.1706 C.ar    1  UNL1       -0.0012
     31 C           5.5129   -2.8768   -0.7621 C.ar    1  UNL1        0.0319
     32 N           6.3997   -1.8630   -0.5517 N.ar    1  UNL1       -0.2501
     33 H           9.7912    1.6914   -0.7312 H       1  UNL1        0.0426
     34 H           8.6215    2.3077    0.4618 H       1  UNL1        0.0426
     35 H           9.9060    1.0976    0.9441 H       1  UNL1        0.0426
     36 H           8.5972   -0.4936   -0.7335 H       1  UNL1        0.1487
     37 H           4.5874    0.0259    1.4559 H       1  UNL1        0.0677
     38 H           0.8920   -2.9429   -0.2791 H       1  UNL1        0.0655
     39 H          -1.0459   -1.8887   -1.3203 H       1  UNL1        0.0637
     40 H          -1.7044    1.0815   -2.0525 H       1  UNL1        0.1564
     41 H          -4.1462    1.7027   -2.0021 H       1  UNL1        0.1564
     42 H          -4.9391    3.1791    0.5168 H       1  UNL1        0.0636
     43 H          -7.0490    3.3432    1.7968 H       1  UNL1        0.0633
     44 H          -6.1555   -0.5695   -1.0992 H       1  UNL1        0.0642
     45 H           0.0366    1.8470    0.4831 H       1  UNL1        0.0637
     46 H           2.0110    0.7372    1.5337 H       1  UNL1        0.0655
     47 H           3.5718   -3.6839   -0.3537 H       1  UNL1        0.0669
     48 H           5.8573   -3.6702   -1.4110 H       1  UNL1        0.0831
@<TRIPOS>BOND
     1     1     2    1
     2     2     3   am
     3     3     4    2
     4     3     5    1
     5     5     6   ar
     6     6     7   ar
     7     7     8    1
     8     8     9    1
     9     9    10   ar
    10    10    11   ar
    11    11    12   ar
    12    12    13    1
    13    13    14   am
    14    14    15    2
    15    14    16   am
    16    16    17    1
    17    17    18   ar
    18    18    19   ar
    19    19    20   ar
    20    20    21    1
    21    20    22   ar
    22    22    23    1
    23    23    24    1
    24    23    25    1
    25    23    26    1
    26    22    27   ar
    27    12    28   ar
    28    28    29   ar
    29     7    30   ar
    30    30    31   ar
    31    31    32   ar
    32    32     5   ar
    33    29     9   ar
    34    27    17   ar
    35     1    33    1
    36     1    34    1
    37     1    35    1
    38     2    36    1
    39     6    37    1
    40    10    38    1
    41    11    39    1
    42    13    40    1
    43    16    41    1
    44    18    42    1
    45    19    43    1
    46    27    44    1
    47    28    45    1
    48    29    46    1
    49    30    47    1
    50    31    48    1
