@<TRIPOS>MOLECULE
*****
 21 21 0 0 0
SMALL
GASTEIGER

@<TRIPOS>ATOM
      1 O          -4.5472    0.7412   -1.0557 O.2     1  UNL1       -0.2458
      2 C          -3.7776   -0.0062   -0.4125 C.2     1  UNL1        0.3296
      3 O          -4.3411   -0.9952    0.3744 O.3     1  UNL1       -0.4775
      4 C          -2.3394    0.2178   -0.5377 C.2     1  UNL1        0.0229
      5 C          -1.4400   -0.4958    0.0830 C.2     1  UNL1       -0.0477
      6 C          -0.0041   -0.3373    0.0114 C.ar    1  UNL1       -0.0211
      7 C           0.8602   -1.1727    0.7305 C.ar    1  UNL1       -0.0509
      8 C           2.2193   -1.0328    0.6710 C.ar    1  UNL1       -0.0160
      9 C           2.7600   -0.0557   -0.1072 C.ar    1  UNL1        0.1582
     10 O           4.1323    0.1278   -0.2019 O.3     1  UNL1       -0.5033
     11 C           1.9277    0.7832   -0.8278 C.ar    1  UNL1        0.1588
     12 O           2.4848    1.7911   -1.6305 O.3     1  UNL1       -0.5033
     13 C           0.5722    0.6300   -0.7572 C.ar    1  UNL1       -0.0094
     14 H          -5.2453   -0.9058    0.8201 H       1  UNL1        0.2954
     15 H          -1.9904    1.0131   -1.1747 H       1  UNL1        0.0689
     16 H          -1.8243   -1.2941    0.7210 H       1  UNL1        0.0626
     17 H           0.4107   -1.9561    1.3536 H       1  UNL1        0.0625
     18 H           2.8683   -1.7025    1.2456 H       1  UNL1        0.0655
     19 H           4.5409    0.7120   -0.9083 H       1  UNL1        0.2923
     20 H           2.7669    2.6348   -1.1422 H       1  UNL1        0.2923
     21 H          -0.0338    1.3031   -1.3329 H       1  UNL1        0.0661
@<TRIPOS>BOND
     1     1     2    2
     2     2     3    1
     3     2     4    1
     4     4     5    2
     5     5     6    1
     6     6     7   ar
     7     7     8   ar
     8     8     9   ar
     9     9    10    1
    10     9    11   ar
    11    11    12    1
    12    11    13   ar
    13    13     6   ar
    14     3    14    1
    15     4    15    1
    16     5    16    1
    17     7    17    1
    18     8    18    1
    19    10    19    1
    20    12    20    1
    21    13    21    1
