
     RDKit          3D

 21 21  0  0  0  0  0  0  0  0999 V2000
   -4.5472    0.7412   -1.0557 O   0  0  0  0  0  0  0  0  0  0  0  0
   -3.7776   -0.0062   -0.4125 C   0  0  0  0  0  0  0  0  0  0  0  0
   -4.3411   -0.9952    0.3744 O   0  0  0  0  0  0  0  0  0  0  0  0
   -2.3394    0.2178   -0.5377 C   0  0  0  0  0  0  0  0  0  0  0  0
   -1.4400   -0.4958    0.0830 C   0  0  0  0  0  0  0  0  0  0  0  0
   -0.0041   -0.3373    0.0114 C   0  0  0  0  0  0  0  0  0  0  0  0
    0.8602   -1.1727    0.7305 C   0  0  0  0  0  0  0  0  0  0  0  0
    2.2193   -1.0328    0.6710 C   0  0  0  0  0  0  0  0  0  0  0  0
    2.7600   -0.0557   -0.1072 C   0  0  0  0  0  0  0  0  0  0  0  0
    4.1323    0.1278   -0.2019 O   0  0  0  0  0  0  0  0  0  0  0  0
    1.9277    0.7832   -0.8278 C   0  0  0  0  0  0  0  0  0  0  0  0
    2.4848    1.7911   -1.6305 O   0  0  0  0  0  0  0  0  0  0  0  0
    0.5722    0.6300   -0.7572 C   0  0  0  0  0  0  0  0  0  0  0  0
   -5.2453   -0.9058    0.8201 H   0  0  0  0  0  0  0  0  0  0  0  0
   -1.9904    1.0131   -1.1747 H   0  0  0  0  0  0  0  0  0  0  0  0
   -1.8243   -1.2941    0.7210 H   0  0  0  0  0  0  0  0  0  0  0  0
    0.4107   -1.9561    1.3536 H   0  0  0  0  0  0  0  0  0  0  0  0
    2.8683   -1.7025    1.2456 H   0  0  0  0  0  0  0  0  0  0  0  0
    4.5409    0.7120   -0.9083 H   0  0  0  0  0  0  0  0  0  0  0  0
    2.7669    2.6348   -1.1422 H   0  0  0  0  0  0  0  0  0  0  0  0
   -0.0338    1.3031   -1.3329 H   0  0  0  0  0  0  0  0  0  0  0  0
  1  2  2  0
  2  3  1  0
  2  4  1  0
  4  5  2  0
  5  6  1  0
  6  7  2  0
  7  8  1  0
  8  9  2  0
  9 10  1  0
  9 11  1  0
 11 12  1  0
 11 13  2  0
 13  6  1  0
  3 14  1  0
  4 15  1  0
  5 16  1  0
  7 17  1  0
  8 18  1  0
 10 19  1  0
 12 20  1  0
 13 21  1  0
M  END
$$$$
