@<TRIPOS>MOLECULE
*****
 77 81 0 0 0
SMALL
GASTEIGER

@<TRIPOS>ATOM
      1 C          -8.3503    4.4227   -0.5042 C.3     1  UNL1       -0.0306
      2 C          -8.8981    3.0905   -0.0205 C.3     1  UNL1        0.0885
      3 O          -7.9324    2.0568   -0.0619 O.3     1  UNL1       -0.4744
      4 C          -8.2591    0.7494    0.2583 C.ar    1  UNL1        0.2554
      5 N          -9.4416    0.2477    0.5998 N.ar    1  UNL1       -0.1317
      6 N          -9.3870   -1.0342    0.8300 N.ar    1  UNL1       -0.2692
      7 C         -10.4728   -1.9420    1.2273 C.3     1  UNL1        0.0304
      8 C          -8.0720   -1.3840    0.6218 C.ar    1  UNL1        0.0502
      9 C          -7.3152   -0.3049    0.2643 C.ar    1  UNL1        0.1142
     10 N          -5.9397   -0.1294    0.0898 N.pl3   1  UNL1       -0.2929
     11 C          -4.8368   -0.9297    0.4027 C.ar    1  UNL1        0.1420
     12 C          -4.9137   -2.1328    1.0466 C.ar    1  UNL1        0.0679
     13 N          -3.7855   -2.8522    1.3880 N.ar    1  UNL1       -0.2546
     14 C          -2.6001   -2.3447    1.0764 C.ar    1  UNL1        0.0643
     15 C          -1.3739   -3.1125    1.4315 C.3     1  UNL1       -0.0203
     16 C          -2.4520   -1.1343    0.4283 C.ar    1  UNL1        0.0960
     17 C          -1.1149   -0.6320    0.1622 C.ar    1  UNL1        0.0272
     18 C          -0.1551   -0.3505    1.1614 C.ar    1  UNL1        0.0120
     19 N           0.9547    0.1288    0.5744 N.ar    1  UNL1       -0.3586
     20 C           0.7930    0.1833   -0.7545 C.ar    1  UNL1        0.0686
     21 C           1.6569    0.5945   -1.7455 C.ar    1  UNL1        0.0576
     22 N           2.9454    1.0868   -1.3832 N.am    1  UNL1       -0.2824
     23 C           4.0739    0.2500   -1.1763 C.2     1  UNL1        0.2367
     24 O           3.8354   -0.9981   -1.3424 O.2     1  UNL1       -0.2737
     25 C           5.4285    0.7394   -0.8006 C.3     1  UNL1        0.1112
     26 C           5.3663    1.5207    0.4952 C.3     1  UNL1        0.0714
     27 O           4.5251    2.6179    0.4114 O.3     1  UNL1       -0.3809
     28 C           4.5084    3.3031    1.6145 C.3     1  UNL1        0.0365
     29 N           6.2868   -0.3767   -0.7329 N.3     1  UNL1       -0.2873
     30 C           6.0424   -1.3924    0.2065 C.3     1  UNL1        0.0125
     31 C           7.2972   -1.9218    0.8707 C.3     1  UNL1        0.0114
     32 N           8.5054   -1.3113    0.4050 N.3     1  UNL1       -0.3029
     33 C           8.9368   -0.1645    1.1487 C.3     1  UNL1       -0.0127
     34 C           8.5975   -1.1397   -1.0203 C.3     1  UNL1        0.0114
     35 C           7.3720   -0.4851   -1.6121 C.3     1  UNL1        0.0125
     36 C           1.1955    0.5208   -3.0452 C.ar    1  UNL1       -0.0384
     37 C          -0.0699    0.0599   -3.3580 C.ar    1  UNL1       -0.0593
     38 C          -0.8883   -0.3374   -2.3160 C.ar    1  UNL1       -0.0518
     39 C          -0.4825   -0.2865   -1.0023 C.ar    1  UNL1        0.0107
     40 N          -3.5629   -0.4723    0.1133 N.ar    1  UNL1       -0.2285
     41 H          -7.4169    4.6013    0.0857 H       1  UNL1        0.0262
     42 H          -8.1520    4.4503   -1.5745 H       1  UNL1        0.0262
     43 H          -9.0609    5.2238   -0.1651 H       1  UNL1        0.0262
     44 H          -9.1927    3.1943    1.0418 H       1  UNL1        0.0694
     45 H          -9.7769    2.8858   -0.6936 H       1  UNL1        0.0694
     46 H         -11.1294   -2.0942    0.3465 H       1  UNL1        0.0473
     47 H         -10.0203   -2.9247    1.4639 H       1  UNL1        0.0473
     48 H         -10.9833   -1.5815    2.1221 H       1  UNL1        0.0473
     49 H          -7.7736   -2.4130    0.7202 H       1  UNL1        0.0846
     50 H          -5.6568    0.8061   -0.3941 H       1  UNL1        0.1538
     51 H          -5.8578   -2.5452    1.3270 H       1  UNL1        0.0865
     52 H          -0.4717   -2.7423    0.9501 H       1  UNL1        0.0293
     53 H          -1.5915   -4.1848    1.1643 H       1  UNL1        0.0293
     54 H          -1.2951   -3.1245    2.5470 H       1  UNL1        0.0293
     55 H          -0.3259   -0.5071    2.2149 H       1  UNL1        0.0814
     56 H           1.8444    0.4279    1.0747 H       1  UNL1        0.1654
     57 H           3.0559    2.1261   -1.2727 H       1  UNL1        0.1549
     58 H           5.8560    1.4472   -1.5601 H       1  UNL1        0.0582
     59 H           5.0153    0.8978    1.3428 H       1  UNL1        0.0580
     60 H           6.3638    1.9139    0.7794 H       1  UNL1        0.0580
     61 H           4.1650    2.6992    2.4686 H       1  UNL1        0.0523
     62 H           5.5180    3.7063    1.8845 H       1  UNL1        0.0523
     63 H           3.7776    4.1453    1.5024 H       1  UNL1        0.0523
     64 H           5.2737   -1.0782    0.9406 H       1  UNL1        0.0439
     65 H           5.5763   -2.2642   -0.3275 H       1  UNL1        0.0439
     66 H           7.3095   -3.0247    0.8647 H       1  UNL1        0.0439
     67 H           7.1979   -1.6410    1.9591 H       1  UNL1        0.0439
     68 H          10.0276   -0.3199    1.3941 H       1  UNL1        0.0391
     69 H           8.9247    0.7590    0.5250 H       1  UNL1        0.0391
     70 H           8.3175   -0.0949    2.0580 H       1  UNL1        0.0391
     71 H           8.6801   -2.1577   -1.4540 H       1  UNL1        0.0439
     72 H           9.5100   -0.5919   -1.2680 H       1  UNL1        0.0439
     73 H           7.0742   -1.0441   -2.5476 H       1  UNL1        0.0439
     74 H           7.6798    0.5208   -1.9675 H       1  UNL1        0.0439
     75 H           1.8490    0.8342   -3.8278 H       1  UNL1        0.0637
     76 H          -0.4465   -0.0064   -4.3556 H       1  UNL1        0.0618
     77 H          -1.8821   -0.7021   -2.5074 H       1  UNL1        0.0624
@<TRIPOS>BOND
     1     1     2    1
     2     2     3    1
     3     3     4    1
     4     4     5   ar
     5     5     6   ar
     6     6     7    1
     7     6     8   ar
     8     8     9   ar
     9     9    10    1
    10    10    11    1
    11    11    12   ar
    12    12    13   ar
    13    13    14   ar
    14    14    15    1
    15    14    16   ar
    16    16    17    1
    17    17    18   ar
    18    18    19   ar
    19    19    20   ar
    20    20    21   ar
    21    21    22    1
    22    22    23   am
    23    23    24    2
    24    23    25    1
    25    25    26    1
    26    26    27    1
    27    27    28    1
    28    25    29    1
    29    29    30    1
    30    30    31    1
    31    31    32    1
    32    32    33    1
    33    32    34    1
    34    34    35    1
    35    21    36   ar
    36    36    37   ar
    37    37    38   ar
    38    38    39   ar
    39    16    40   ar
    40     9     4   ar
    41    40    11   ar
    42    39    17   ar
    43    39    20   ar
    44    35    29    1
    45     1    41    1
    46     1    42    1
    47     1    43    1
    48     2    44    1
    49     2    45    1
    50     7    46    1
    51     7    47    1
    52     7    48    1
    53     8    49    1
    54    10    50    1
    55    12    51    1
    56    15    52    1
    57    15    53    1
    58    15    54    1
    59    18    55    1
    60    19    56    1
    61    22    57    1
    62    25    58    1
    63    26    59    1
    64    26    60    1
    65    28    61    1
    66    28    62    1
    67    28    63    1
    68    30    64    1
    69    30    65    1
    70    31    66    1
    71    31    67    1
    72    33    68    1
    73    33    69    1
    74    33    70    1
    75    34    71    1
    76    34    72    1
    77    35    73    1
    78    35    74    1
    79    36    75    1
    80    37    76    1
    81    38    77    1
