@<TRIPOS>MOLECULE
*****
 53 53 0 0 0
SMALL
GASTEIGER

@<TRIPOS>ATOM
      1 CA         -1.4834   -0.2944   -0.7193 C.3     1  UNL1        0.1517
      2 C          -1.6535    1.2038   -0.6093 C.3     1  UNL1        0.0752
      3 O          -0.4159    1.8167   -0.7444 O.3     1  UNL1       -0.3924
      4 N          -2.6826   -1.0457   -0.5941 N.2     1  UNL1       -0.2395
      5 C          -3.4933   -1.0794    0.3955 C.2     1  UNL1        0.1850
      6 O          -3.3262   -0.3612    1.5497 O.2     1  UNL1       -0.4956
      7 C          -4.6857   -1.9667    0.2507 C.3     1  UNL1        0.0426
      8 C          -5.9760   -1.1552    0.3645 C.3     1  UNL1        0.0514
      9 N          -6.0444   -0.1511   -0.6516 N.2     1  UNL1       -0.2536
     10 C          -6.5745    1.0008   -0.5540 C.2     1  UNL1        0.1932
     11 O          -6.4627    1.7280   -1.7409 O.2     1  UNL1       -0.4951
     12 C          -7.2599    1.6302    0.6065 C.3     1  UNL1        0.0788
     13 BR         -6.3216    3.2449    1.1019 Br      1  UNL1       -0.0818
     14 C          -0.4794   -0.8184    0.2510 C.2     1  UNL1        0.2102
     15 O           0.1718   -1.0931    1.4279 O.2     1  UNL1       -0.4941
     16 N           0.5911   -1.5198    0.1140 N.2     1  UNL1       -0.2526
     17 C           0.9860   -1.9346   -1.2106 C.3     1  UNL1        0.0471
     18 C           1.8557   -0.8810   -1.8767 C.3     1  UNL1       -0.0080
     19 C           3.0890   -0.6285   -1.0965 C.ar    1  UNL1       -0.0455
     20 C           4.2627   -1.3311   -1.2984 C.ar    1  UNL1       -0.0565
     21 C           5.3996   -1.0561   -0.5371 C.ar    1  UNL1       -0.0359
     22 C           5.3749   -0.0670    0.4428 C.ar    1  UNL1        0.0679
     23 C           4.1960    0.6246    0.6315 C.ar    1  UNL1       -0.0359
     24 C           3.0831    0.3592   -0.1098 C.ar    1  UNL1       -0.0565
     25 N           6.6189    0.0515    1.0929 N.2     1  UNL1       -0.2076
     26 C           7.4721    0.9008    0.6482 C.2     1  UNL1        0.2998
     27 O           8.6723    0.9910    1.3033 O.2     1  UNL1       -0.4876
     28 C           7.1925    1.7376   -0.4989 C.2     1  UNL1        0.3920
     29 O           5.9935    1.6808   -1.1921 O.3     1  UNL1       -0.4739
     30 O           8.0510    2.5602   -0.9092 O.2     1  UNL1       -0.2398
     31 HA         -1.0646   -0.4880   -1.7411 H       1  UNL1        0.0666
     32 H1         -2.2720    1.5176   -1.4805 H       1  UNL1        0.0583
     33 H2         -2.1421    1.5170    0.3109 H       1  UNL1        0.0583
     34 H          -0.4883    2.7413   -1.0888 H       1  UNL1        0.2095
     35 H          -2.3807   -0.2276    1.9099 H       1  UNL1        0.2934
     36 H          -4.6937   -2.5049   -0.7126 H       1  UNL1        0.0377
     37 H          -4.6327   -2.7299    1.0373 H       1  UNL1        0.0377
     38 H          -6.8126   -1.8638    0.2021 H       1  UNL1        0.0514
     39 H          -6.0877   -0.7539    1.3971 H       1  UNL1        0.0514
     40 H          -6.5248    1.2660   -2.6417 H       1  UNL1        0.2934
     41 H          -8.3267    1.8024    0.3759 H       1  UNL1        0.0478
     42 H          -7.2087    0.9513    1.4832 H       1  UNL1        0.0478
     43 H          -0.0456   -0.5811    2.2846 H       1  UNL1        0.2935
     44 H           0.1028   -2.1382   -1.8462 H       1  UNL1        0.0512
     45 H           1.5332   -2.9072   -1.1442 H       1  UNL1        0.0512
     46 H           2.1181   -1.2062   -2.9087 H       1  UNL1        0.0331
     47 H           1.2674    0.0499   -1.9867 H       1  UNL1        0.0331
     48 H           4.2465   -2.0925   -2.0678 H       1  UNL1        0.0621
     49 H           6.2515   -1.6782   -0.7960 H       1  UNL1        0.0639
     50 H           4.2782    1.3712    1.4143 H       1  UNL1        0.0639
     51 H           2.1937    0.9560    0.1077 H       1  UNL1        0.0621
     52 H           8.9042    0.3399    2.0380 H       1  UNL1        0.2940
     53 H           5.6336    2.5123   -1.6555 H       1  UNL1        0.2956
@<TRIPOS>BOND
     1     1     2    1
     2     2     3    1
     3     1     4    1
     4     4     5    2
     5     5     6    1
     6     5     7    1
     7     7     8    1
     8     8     9    1
     9     9    10    2
    10    10    11    1
    11    10    12    1
    12    12    13    1
    13     1    14    1
    14    14    15    1
    15    14    16    2
    16    16    17    1
    17    17    18    1
    18    18    19    1
    19    19    20   ar
    20    20    21   ar
    21    21    22   ar
    22    22    23   ar
    23    23    24   ar
    24    22    25    1
    25    25    26    2
    26    26    27    1
    27    26    28    1
    28    28    29    1
    29    28    30    2
    30    24    19   ar
    31     1    31    1
    32     2    32    1
    33     2    33    1
    34     3    34    1
    35     6    35    1
    36     7    36    1
    37     7    37    1
    38     8    38    1
    39     8    39    1
    40    11    40    1
    41    12    41    1
    42    12    42    1
    43    15    43    1
    44    17    44    1
    45    17    45    1
    46    18    46    1
    47    18    47    1
    48    20    48    1
    49    21    49    1
    50    23    50    1
    51    24    51    1
    52    27    52    1
    53    29    53    1
