
     RDKit          3D

 63 67  0  0  0  0  0  0  0  0999 V2000
    2.7015   -5.4084   -1.2362 N   0  0  0  0  0  0  0  0  0  0  0  0
    1.8261   -4.9401   -0.6419 C   0  0  0  0  0  0  0  0  0  0  0  0
    0.7427   -4.3375    0.1030 C   0  0  0  0  0  0  0  0  0  0  0  0
    0.0132   -5.0031    1.0521 C   0  0  0  0  0  0  0  0  0  0  0  0
   -0.9665   -4.3491    1.7278 N   0  0  0  0  0  0  0  0  0  0  0  0
   -1.2564   -3.0743    1.5112 C   0  0  0  0  0  0  0  0  0  0  0  0
   -2.2302   -2.3826    2.1927 C   0  0  0  0  0  0  0  0  0  0  0  0
   -2.5068   -1.0949    1.9833 N   0  0  0  0  0  0  0  0  0  0  0  0
   -1.8123   -0.3588    1.0407 C   0  0  0  0  0  0  0  0  0  0  0  0
   -2.1046    1.0152    0.8803 N   0  0  0  0  0  0  0  0  0  0  0  0
   -3.2975    1.4292    0.1929 C   0  0  0  0  0  0  0  0  0  0  0  0
   -4.5447    0.8064    0.7969 C   0  0  0  0  0  0  0  0  0  0  0  0
   -5.6861    1.3046    0.0598 N   0  0  0  0  0  0  0  0  0  0  0  0
   -5.9479    2.6731    0.2548 C   0  0  0  0  0  0  0  0  0  0  0  0
   -7.3411    3.1401    0.0219 C   0  0  0  0  0  0  0  0  0  0  0  0
   -8.3183    2.1752    0.1608 O   0  0  0  0  0  0  0  0  0  0  0  0
   -7.9332    1.0240    0.8088 C   0  0  0  0  0  0  0  0  0  0  0  0
   -6.7946    0.4267    0.0041 C   0  0  0  0  0  0  0  0  0  0  0  0
   -0.8381   -1.0436    0.3540 C   0  0  0  0  0  0  0  0  0  0  0  0
   -0.5210   -2.3672    0.5382 C   0  0  0  0  0  0  0  0  0  0  0  0
    0.4724   -2.9986   -0.1608 C   0  0  0  0  0  0  0  0  0  0  0  0
    1.2101   -2.3117   -1.1540 N   0  0  0  0  0  0  0  0  0  0  0  0
    2.4682   -1.7819   -0.7401 C   0  0  0  0  0  0  0  0  0  0  0  0
    3.5434   -1.7980   -1.6314 C   0  0  0  0  0  0  0  0  0  0  0  0
    4.7729   -1.2911   -1.3027 C   0  0  0  0  0  0  0  0  0  0  0  0
    4.9949   -0.7425   -0.0767 C   0  0  0  0  0  0  0  0  0  0  0  0
    6.2882   -0.1629    0.3879 C   0  0  0  0  0  0  0  0  0  0  0  0
    6.4860    1.1987   -0.1283 C   0  0  0  0  0  0  0  0  0  0  0  0
    7.3223    1.4918   -1.1792 C   0  0  0  0  0  0  0  0  0  0  0  0
    7.5016    2.7441   -1.6805 C   0  0  0  0  0  0  0  0  0  0  0  0
    6.8151    3.8279   -1.1277 C   0  0  0  0  0  0  0  0  0  0  0  0
    5.9767    3.5442   -0.0762 C   0  0  0  0  0  0  0  0  0  0  0  0
    5.8059    2.2738    0.4204 C   0  0  0  0  0  0  0  0  0  0  0  0
    3.9578   -0.7023    0.8480 C   0  0  0  0  0  0  0  0  0  0  0  0
    2.7154   -1.2287    0.4837 C   0  0  0  0  0  0  0  0  0  0  0  0
    0.2327   -6.0473    1.2469 H   0  0  0  0  0  0  0  0  0  0  0  0
   -2.7781   -2.9648    2.9419 H   0  0  0  0  0  0  0  0  0  0  0  0
   -1.4664    1.7415    1.2515 H   0  0  0  0  0  0  0  0  0  0  0  0
   -3.4219    2.5543    0.2466 H   0  0  0  0  0  0  0  0  0  0  0  0
   -3.3109    1.2154   -0.8884 H   0  0  0  0  0  0  0  0  0  0  0  0
   -4.6450    1.0245    1.8787 H   0  0  0  0  0  0  0  0  0  0  0  0
   -4.5423   -0.2974    0.6536 H   0  0  0  0  0  0  0  0  0  0  0  0
   -5.2581    3.2802   -0.3684 H   0  0  0  0  0  0  0  0  0  0  0  0
   -5.6550    2.9356    1.3199 H   0  0  0  0  0  0  0  0  0  0  0  0
   -7.4585    3.5768   -0.9915 H   0  0  0  0  0  0  0  0  0  0  0  0
   -7.5855    3.9423    0.7476 H   0  0  0  0  0  0  0  0  0  0  0  0
   -7.6191    1.1354    1.8456 H   0  0  0  0  0  0  0  0  0  0  0  0
   -8.8056    0.3286    0.7623 H   0  0  0  0  0  0  0  0  0  0  0  0
   -6.5127   -0.5607    0.4170 H   0  0  0  0  0  0  0  0  0  0  0  0
   -7.2041    0.2734   -1.0386 H   0  0  0  0  0  0  0  0  0  0  0  0
   -0.2584   -0.5031   -0.4148 H   0  0  0  0  0  0  0  0  0  0  0  0
    0.8951   -2.1758   -2.1389 H   0  0  0  0  0  0  0  0  0  0  0  0
    3.3942   -2.2229   -2.6061 H   0  0  0  0  0  0  0  0  0  0  0  0
    5.6168   -1.3021   -1.9892 H   0  0  0  0  0  0  0  0  0  0  0  0
    7.0897   -0.8655    0.0351 H   0  0  0  0  0  0  0  0  0  0  0  0
    6.3614   -0.2192    1.5109 H   0  0  0  0  0  0  0  0  0  0  0  0
    7.8958    0.6878   -1.6702 H   0  0  0  0  0  0  0  0  0  0  0  0
    8.1491    2.9825   -2.4928 H   0  0  0  0  0  0  0  0  0  0  0  0
    6.9067    4.8342   -1.4746 H   0  0  0  0  0  0  0  0  0  0  0  0
    5.4121    4.3336    0.3975 H   0  0  0  0  0  0  0  0  0  0  0  0
    5.1382    2.1124    1.2418 H   0  0  0  0  0  0  0  0  0  0  0  0
    4.0198   -0.2925    1.8303 H   0  0  0  0  0  0  0  0  0  0  0  0
    1.8949   -1.2052    1.2063 H   0  0  0  0  0  0  0  0  0  0  0  0
  1  2  3  0
  2  3  1  0
  3  4  2  0
  4  5  1  0
  5  6  2  0
  6  7  1  0
  7  8  2  0
  8  9  1  0
  9 10  1  0
 10 11  1  0
 11 12  1  0
 12 13  1  0
 13 14  1  0
 14 15  1  0
 15 16  1  0
 16 17  1  0
 17 18  1  0
  9 19  2  0
 19 20  1  0
 20 21  2  0
 21 22  1  0
 22 23  1  0
 23 24  2  0
 24 25  1  0
 25 26  2  0
 26 27  1  0
 27 28  1  0
 28 29  2  0
 29 30  1  0
 30 31  2  0
 31 32  1  0
 32 33  2  0
 26 34  1  0
 34 35  2  0
 21  3  1  0
 35 23  1  0
 20  6  1  0
 33 28  1  0
 18 13  1  0
  4 36  1  0
  7 37  1  0
 10 38  1  0
 11 39  1  0
 11 40  1  0
 12 41  1  0
 12 42  1  0
 14 43  1  0
 14 44  1  0
 15 45  1  0
 15 46  1  0
 17 47  1  0
 17 48  1  0
 18 49  1  0
 18 50  1  0
 19 51  1  0
 22 52  1  0
 24 53  1  0
 25 54  1  0
 27 55  1  0
 27 56  1  0
 29 57  1  0
 30 58  1  0
 31 59  1  0
 32 60  1  0
 33 61  1  0
 34 62  1  0
 35 63  1  0
M  END
$$$$
