@<TRIPOS>MOLECULE
*****
 63 67 0 0 0
SMALL
GASTEIGER

@<TRIPOS>ATOM
      1 N           2.7015   -5.4084   -1.2362 N.1     1  UNL1       -0.1908
      2 C           1.8261   -4.9401   -0.6419 C.1     1  UNL1        0.1026
      3 C           0.7427   -4.3375    0.1030 C.ar    1  UNL1        0.0915
      4 C           0.0132   -5.0031    1.0521 C.ar    1  UNL1        0.0475
      5 N          -0.9665   -4.3491    1.7278 N.ar    1  UNL1       -0.2521
      6 C          -1.2564   -3.0743    1.5112 C.ar    1  UNL1        0.0910
      7 C          -2.2302   -2.3826    2.1927 C.ar    1  UNL1        0.0556
      8 N          -2.5068   -1.0949    1.9833 N.ar    1  UNL1       -0.2384
      9 C          -1.8123   -0.3588    1.0407 C.ar    1  UNL1        0.1195
     10 N          -2.1046    1.0152    0.8803 N.pl3   1  UNL1       -0.3278
     11 C          -3.2975    1.4292    0.1929 C.3     1  UNL1        0.0232
     12 C          -4.5447    0.8064    0.7969 C.3     1  UNL1        0.0146
     13 N          -5.6861    1.3046    0.0598 N.3     1  UNL1       -0.2965
     14 C          -5.9479    2.6731    0.2548 C.3     1  UNL1        0.0225
     15 C          -7.3411    3.1401    0.0219 C.3     1  UNL1        0.0604
     16 O          -8.3183    2.1752    0.1608 O.3     1  UNL1       -0.3772
     17 C          -7.9332    1.0240    0.8088 C.3     1  UNL1        0.0604
     18 C          -6.7946    0.4267    0.0041 C.3     1  UNL1        0.0225
     19 C          -0.8381   -1.0436    0.3540 C.ar    1  UNL1       -0.0109
     20 C          -0.5210   -2.3672    0.5382 C.ar    1  UNL1        0.0275
     21 C           0.4724   -2.9986   -0.1608 C.ar    1  UNL1        0.0598
     22 N           1.2101   -2.3117   -1.1540 N.pl3   1  UNL1       -0.3129
     23 C           2.4682   -1.7819   -0.7401 C.ar    1  UNL1        0.0314
     24 C           3.5434   -1.7980   -1.6314 C.ar    1  UNL1       -0.0403
     25 C           4.7729   -1.2911   -1.3027 C.ar    1  UNL1       -0.0565
     26 C           4.9949   -0.7425   -0.0767 C.ar    1  UNL1       -0.0429
     27 C           6.2882   -0.1629    0.3879 C.3     1  UNL1       -0.0024
     28 C           6.4860    1.1987   -0.1283 C.ar    1  UNL1       -0.0431
     29 C           7.3223    1.4918   -1.1792 C.ar    1  UNL1       -0.0583
     30 C           7.5016    2.7441   -1.6805 C.ar    1  UNL1       -0.0615
     31 C           6.8151    3.8279   -1.1277 C.ar    1  UNL1       -0.0617
     32 C           5.9767    3.5442   -0.0762 C.ar    1  UNL1       -0.0615
     33 C           5.8059    2.2738    0.4204 C.ar    1  UNL1       -0.0583
     34 C           3.9578   -0.7023    0.8480 C.ar    1  UNL1       -0.0565
     35 C           2.7154   -1.2287    0.4837 C.ar    1  UNL1       -0.0403
     36 H           0.2327   -6.0473    1.2469 H       1  UNL1        0.0843
     37 H          -2.7781   -2.9648    2.9419 H       1  UNL1        0.0852
     38 H          -1.4664    1.7415    1.2515 H       1  UNL1        0.1475
     39 H          -3.4219    2.5543    0.2466 H       1  UNL1        0.0474
     40 H          -3.3109    1.2154   -0.8884 H       1  UNL1        0.0474
     41 H          -4.6450    1.0245    1.8787 H       1  UNL1        0.0442
     42 H          -4.5423   -0.2974    0.6536 H       1  UNL1        0.0442
     43 H          -5.2581    3.2802   -0.3684 H       1  UNL1        0.0449
     44 H          -5.6550    2.9356    1.3199 H       1  UNL1        0.0449
     45 H          -7.4585    3.5768   -0.9915 H       1  UNL1        0.0572
     46 H          -7.5855    3.9423    0.7476 H       1  UNL1        0.0572
     47 H          -7.6191    1.1354    1.8456 H       1  UNL1        0.0572
     48 H          -8.8056    0.3286    0.7623 H       1  UNL1        0.0572
     49 H          -6.5127   -0.5607    0.4170 H       1  UNL1        0.0449
     50 H          -7.2041    0.2734   -1.0386 H       1  UNL1        0.0449
     51 H          -0.2584   -0.5031   -0.4148 H       1  UNL1        0.0659
     52 H           0.8951   -2.1758   -2.1389 H       1  UNL1        0.1522
     53 H           3.3942   -2.2229   -2.6061 H       1  UNL1        0.0636
     54 H           5.6168   -1.3021   -1.9892 H       1  UNL1        0.0621
     55 H           7.0897   -0.8655    0.0351 H       1  UNL1        0.0361
     56 H           6.3614   -0.2192    1.5109 H       1  UNL1        0.0361
     57 H           7.8958    0.6878   -1.6702 H       1  UNL1        0.0620
     58 H           8.1491    2.9825   -2.4928 H       1  UNL1        0.0618
     59 H           6.9067    4.8342   -1.4746 H       1  UNL1        0.0618
     60 H           5.4121    4.3336    0.3975 H       1  UNL1        0.0618
     61 H           5.1382    2.1124    1.2418 H       1  UNL1        0.0620
     62 H           4.0198   -0.2925    1.8303 H       1  UNL1        0.0621
     63 H           1.8949   -1.2052    1.2063 H       1  UNL1        0.0636
@<TRIPOS>BOND
     1     1     2    3
     2     2     3    1
     3     3     4   ar
     4     4     5   ar
     5     5     6   ar
     6     6     7   ar
     7     7     8   ar
     8     8     9   ar
     9     9    10    1
    10    10    11    1
    11    11    12    1
    12    12    13    1
    13    13    14    1
    14    14    15    1
    15    15    16    1
    16    16    17    1
    17    17    18    1
    18     9    19   ar
    19    19    20   ar
    20    20    21   ar
    21    21    22    1
    22    22    23    1
    23    23    24   ar
    24    24    25   ar
    25    25    26   ar
    26    26    27    1
    27    27    28    1
    28    28    29   ar
    29    29    30   ar
    30    30    31   ar
    31    31    32   ar
    32    32    33   ar
    33    26    34   ar
    34    34    35   ar
    35    21     3   ar
    36    35    23   ar
    37    20     6   ar
    38    33    28   ar
    39    18    13    1
    40     4    36    1
    41     7    37    1
    42    10    38    1
    43    11    39    1
    44    11    40    1
    45    12    41    1
    46    12    42    1
    47    14    43    1
    48    14    44    1
    49    15    45    1
    50    15    46    1
    51    17    47    1
    52    17    48    1
    53    18    49    1
    54    18    50    1
    55    19    51    1
    56    22    52    1
    57    24    53    1
    58    25    54    1
    59    27    55    1
    60    27    56    1
    61    29    57    1
    62    30    58    1
    63    31    59    1
    64    32    60    1
    65    33    61    1
    66    34    62    1
    67    35    63    1
