
     RDKit          3D

 60 64  0  0  0  0  0  0  0  0999 V2000
   -5.4944   -1.8703    0.0080 C   0  0  0  0  0  0  0  0  0  0  0  0
   -4.6916   -0.7956    0.7508 C   0  0  1  0  0  0  0  0  0  0  0  0
   -3.5872   -0.5281    0.1307 O   0  0  0  0  0  0  0  0  0  0  0  0
   -2.4860   -0.2668   -0.4757 C   0  0  0  0  0  0  0  0  0  0  0  0
   -1.2686   -0.5366    0.0653 N   0  0  0  0  0  0  0  0  0  0  0  0
   -0.0913   -0.3009   -0.4883 C   0  0  0  0  0  0  0  0  0  0  0  0
    1.1767   -0.6242    0.1668 C   0  0  0  0  0  0  0  0  0  0  0  0
    1.2857   -1.1969    1.4053 C   0  0  0  0  0  0  0  0  0  0  0  0
    2.6057   -1.3310    1.6479 N   0  0  0  0  0  0  0  0  0  0  0  0
    3.3160   -0.8687    0.6190 N   0  0  0  0  0  0  0  0  0  0  0  0
    4.7581   -0.8957    0.6246 C   0  0  0  0  0  0  0  0  0  0  0  0
    5.2987   -0.5719   -0.7451 C   0  0  0  0  0  0  0  0  0  0  0  0
    6.7564   -0.3277   -0.7851 C   0  0  0  0  0  0  0  0  0  0  0  0
    7.4560   -0.2466    0.4207 N   0  0  0  0  0  0  0  0  0  0  0  0
    8.6513    0.5888    0.3508 C   0  0  0  0  0  0  0  0  0  0  0  0
    6.7715   -0.0107    1.6180 C   0  0  0  0  0  0  0  0  0  0  0  0
    5.3027    0.2032    1.5481 C   0  0  0  0  0  0  0  0  0  0  0  0
    2.4516   -0.4306   -0.2997 C   0  0  0  0  0  0  0  0  0  0  0  0
   -0.0941    0.2786   -1.7447 C   0  0  0  0  0  0  0  0  0  0  0  0
   -1.2745    0.5864   -2.3692 C   0  0  0  0  0  0  0  0  0  0  0  0
   -1.5802    1.1446   -3.5684 N   0  0  0  0  0  0  0  0  0  0  0  0
   -2.8939    1.2313   -3.7087 N   0  0  0  0  0  0  0  0  0  0  0  0
   -3.5984    1.7744   -4.8605 C   0  0  0  0  0  0  0  0  0  0  0  0
   -3.4821    0.7303   -2.6013 C   0  0  0  0  0  0  0  0  0  0  0  0
   -2.4675    0.3217   -1.7523 C   0  0  0  0  0  0  0  0  0  0  0  0
   -5.6325    0.3748    1.0460 C   0  0  1  0  0  0  0  0  0  0  0  0
   -6.7603   -0.1585    1.9033 C   0  0  0  0  0  0  0  0  0  0  0  0
   -6.1810   -0.2518    3.2333 N   0  0  0  0  0  0  0  0  0  0  0  0
   -5.1593    0.7285    3.3210 C   0  0  0  0  0  0  0  0  0  0  0  0
   -4.5337    1.0067    4.3684 O   0  0  0  0  0  0  0  0  0  0  0  0
   -4.9591    1.3540    2.0005 C   0  0  0  0  0  0  0  0  0  0  0  0
   -6.0086   -2.5617    0.6938 H   0  0  0  0  0  0  0  0  0  0  0  0
   -4.7727   -2.4675   -0.5892 H   0  0  0  0  0  0  0  0  0  0  0  0
   -6.1708   -1.3545   -0.7008 H   0  0  0  0  0  0  0  0  0  0  0  0
   -4.5216   -1.2706    1.7722 H   0  0  0  0  0  0  0  0  0  0  0  0
    0.5246   -1.5093    2.1108 H   0  0  0  0  0  0  0  0  0  0  0  0
    5.1807   -1.8393    0.9706 H   0  0  0  0  0  0  0  0  0  0  0  0
    4.7597    0.3628   -1.0741 H   0  0  0  0  0  0  0  0  0  0  0  0
    4.9514   -1.3688   -1.4347 H   0  0  0  0  0  0  0  0  0  0  0  0
    7.2171   -1.1516   -1.4098 H   0  0  0  0  0  0  0  0  0  0  0  0
    6.9772    0.6011   -1.3913 H   0  0  0  0  0  0  0  0  0  0  0  0
    8.7375    1.1336   -0.5954 H   0  0  0  0  0  0  0  0  0  0  0  0
    8.6313    1.3392    1.1913 H   0  0  0  0  0  0  0  0  0  0  0  0
    9.5252   -0.0640    0.5459 H   0  0  0  0  0  0  0  0  0  0  0  0
    6.9461   -0.8860    2.3109 H   0  0  0  0  0  0  0  0  0  0  0  0
    7.2318    0.8566    2.1758 H   0  0  0  0  0  0  0  0  0  0  0  0
    5.0301    1.1593    1.0429 H   0  0  0  0  0  0  0  0  0  0  0  0
    4.8697    0.1483    2.5518 H   0  0  0  0  0  0  0  0  0  0  0  0
    2.7626    0.0038   -1.2538 H   0  0  0  0  0  0  0  0  0  0  0  0
    0.8542    0.4795   -2.2145 H   0  0  0  0  0  0  0  0  0  0  0  0
   -3.6864    0.9751   -5.6179 H   0  0  0  0  0  0  0  0  0  0  0  0
   -2.9766    2.5746   -5.3090 H   0  0  0  0  0  0  0  0  0  0  0  0
   -4.5773    2.1518   -4.4992 H   0  0  0  0  0  0  0  0  0  0  0  0
   -4.5446    0.6609   -2.4124 H   0  0  0  0  0  0  0  0  0  0  0  0
   -5.9652    0.8876    0.1436 H   0  0  0  0  0  0  0  0  0  0  0  0
   -7.1566   -1.1032    1.5346 H   0  0  0  0  0  0  0  0  0  0  0  0
   -7.5395    0.6437    1.9470 H   0  0  0  0  0  0  0  0  0  0  0  0
   -6.4707   -0.9263    3.9906 H   0  0  0  0  0  0  0  0  0  0  0  0
   -5.5103    2.3197    1.9423 H   0  0  0  0  0  0  0  0  0  0  0  0
   -3.8930    1.5135    1.7488 H   0  0  0  0  0  0  0  0  0  0  0  0
  1  2  1  0
  2  3  1  0
  3  4  1  0
  4  5  2  0
  5  6  1  0
  6  7  1  0
  7  8  1  0
  8  9  2  0
  9 10  1  0
 10 11  1  0
 11 12  1  0
 12 13  1  0
 13 14  1  0
 14 15  1  0
 14 16  1  0
 16 17  1  0
 10 18  1  0
  6 19  2  0
 19 20  1  0
 20 21  2  0
 21 22  1  0
 22 23  1  0
 22 24  1  0
 24 25  2  0
  2 26  1  0
 26 27  1  0
 27 28  1  0
 28 29  1  0
 29 30  2  0
 29 31  1  0
 25  4  1  0
 31 26  1  0
 18  7  2  0
 25 20  1  0
 17 11  1  0
  1 32  1  0
  1 33  1  0
  1 34  1  0
  2 35  1  1
  8 36  1  0
 11 37  1  0
 12 38  1  0
 12 39  1  0
 13 40  1  0
 13 41  1  0
 15 42  1  0
 15 43  1  0
 15 44  1  0
 16 45  1  0
 16 46  1  0
 17 47  1  0
 17 48  1  0
 18 49  1  0
 19 50  1  0
 23 51  1  0
 23 52  1  0
 23 53  1  0
 24 54  1  0
 26 55  1  6
 27 56  1  0
 27 57  1  0
 28 58  1  0
 31 59  1  0
 31 60  1  0
M  END
$$$$
