@<TRIPOS>MOLECULE
*****
 60 64 0 0 0
SMALL
GASTEIGER

@<TRIPOS>ATOM
      1 C          -5.4944   -1.8703    0.0080 C.3     1  UNL1       -0.0274
      2 C          -4.6916   -0.7956    0.7508 C.3     1  UNL1        0.1037
      3 O          -3.5872   -0.5281    0.1307 O.3     1  UNL1       -0.4725
      4 C          -2.4860   -0.2668   -0.4757 C.ar    1  UNL1        0.2265
      5 N          -1.2686   -0.5366    0.0653 N.ar    1  UNL1       -0.2121
      6 C          -0.0913   -0.3009   -0.4883 C.ar    1  UNL1        0.0798
      7 C           1.1767   -0.6242    0.1668 C.ar    1  UNL1        0.0380
      8 C           1.2857   -1.1969    1.4053 C.ar    1  UNL1        0.0586
      9 N           2.6057   -1.3310    1.6479 N.ar    1  UNL1       -0.1787
     10 N           3.3160   -0.8687    0.6190 N.ar    1  UNL1       -0.2677
     11 C           4.7581   -0.8957    0.6246 C.3     1  UNL1        0.0550
     12 C           5.2987   -0.5719   -0.7451 C.3     1  UNL1       -0.0176
     13 C           6.7564   -0.3277   -0.7851 C.3     1  UNL1        0.0005
     14 N           7.4560   -0.2466    0.4207 N.3     1  UNL1       -0.3052
     15 C           8.6513    0.5888    0.3508 C.3     1  UNL1       -0.0128
     16 C           6.7715   -0.0107    1.6180 C.3     1  UNL1        0.0005
     17 C           5.3027    0.2032    1.5481 C.3     1  UNL1       -0.0176
     18 C           2.4516   -0.4306   -0.2997 C.ar    1  UNL1        0.0350
     19 C          -0.0941    0.2786   -1.7447 C.ar    1  UNL1       -0.0076
     20 C          -1.2745    0.5864   -2.3692 C.ar    1  UNL1        0.0999
     21 N          -1.5802    1.1446   -3.5684 N.ar    1  UNL1       -0.1712
     22 N          -2.8939    1.2313   -3.7087 N.ar    1  UNL1       -0.2732
     23 C          -3.5984    1.7744   -4.8605 C.3     1  UNL1        0.0302
     24 C          -3.4821    0.7303   -2.6013 C.ar    1  UNL1        0.0380
     25 C          -2.4675    0.3217   -1.7523 C.ar    1  UNL1        0.0812
     26 C          -5.6325    0.3748    1.0460 C.3     1  UNL1        0.0196
     27 C          -6.7603   -0.1585    1.9033 C.3     1  UNL1        0.0182
     28 N          -6.1810   -0.2518    3.2333 N.am    1  UNL1       -0.3149
     29 C          -5.1593    0.7285    3.3210 C.2     1  UNL1        0.2135
     30 O          -4.5337    1.0067    4.3684 O.2     1  UNL1       -0.2758
     31 C          -4.9591    1.3540    2.0005 C.3     1  UNL1        0.0315
     32 H          -6.0086   -2.5617    0.6938 H       1  UNL1        0.0265
     33 H          -4.7727   -2.4675   -0.5892 H       1  UNL1        0.0265
     34 H          -6.1708   -1.3545   -0.7008 H       1  UNL1        0.0265
     35 H          -4.5216   -1.2706    1.7722 H       1  UNL1        0.0734
     36 H           0.5246   -1.5093    2.1108 H       1  UNL1        0.0854
     37 H           5.1807   -1.8393    0.9706 H       1  UNL1        0.0545
     38 H           4.7597    0.3628   -1.0741 H       1  UNL1        0.0298
     39 H           4.9514   -1.3688   -1.4347 H       1  UNL1        0.0298
     40 H           7.2171   -1.1516   -1.4098 H       1  UNL1        0.0427
     41 H           6.9772    0.6011   -1.3913 H       1  UNL1        0.0427
     42 H           8.7375    1.1336   -0.5954 H       1  UNL1        0.0391
     43 H           8.6313    1.3392    1.1913 H       1  UNL1        0.0391
     44 H           9.5252   -0.0640    0.5459 H       1  UNL1        0.0391
     45 H           6.9461   -0.8860    2.3109 H       1  UNL1        0.0427
     46 H           7.2318    0.8566    2.1758 H       1  UNL1        0.0427
     47 H           5.0301    1.1593    1.0429 H       1  UNL1        0.0298
     48 H           4.8697    0.1483    2.5518 H       1  UNL1        0.0298
     49 H           2.7626    0.0038   -1.2538 H       1  UNL1        0.0833
     50 H           0.8542    0.4795   -2.2145 H       1  UNL1        0.0661
     51 H          -3.6864    0.9751   -5.6179 H       1  UNL1        0.0473
     52 H          -2.9766    2.5746   -5.3090 H       1  UNL1        0.0473
     53 H          -4.5773    2.1518   -4.4992 H       1  UNL1        0.0473
     54 H          -4.5446    0.6609   -2.4124 H       1  UNL1        0.0834
     55 H          -5.9652    0.8876    0.1436 H       1  UNL1        0.0356
     56 H          -7.1566   -1.1032    1.5346 H       1  UNL1        0.0466
     57 H          -7.5395    0.6437    1.9470 H       1  UNL1        0.0466
     58 H          -6.4707   -0.9263    3.9906 H       1  UNL1        0.1487
     59 H          -5.5103    2.3197    1.9423 H       1  UNL1        0.0363
     60 H          -3.8930    1.5135    1.7488 H       1  UNL1        0.0363
@<TRIPOS>BOND
     1     1     2    1
     2     2     3    1
     3     3     4    1
     4     4     5   ar
     5     5     6   ar
     6     6     7    1
     7     7     8   ar
     8     8     9   ar
     9     9    10   ar
    10    10    11    1
    11    11    12    1
    12    12    13    1
    13    13    14    1
    14    14    15    1
    15    14    16    1
    16    16    17    1
    17    10    18   ar
    18     6    19   ar
    19    19    20   ar
    20    20    21   ar
    21    21    22   ar
    22    22    23    1
    23    22    24   ar
    24    24    25   ar
    25     2    26    1
    26    26    27    1
    27    27    28    1
    28    28    29   am
    29    29    30    2
    30    29    31    1
    31    25     4   ar
    32    31    26    1
    33    18     7   ar
    34    25    20   ar
    35    17    11    1
    36     1    32    1
    37     1    33    1
    38     1    34    1
    39     2    35    1
    40     8    36    1
    41    11    37    1
    42    12    38    1
    43    12    39    1
    44    13    40    1
    45    13    41    1
    46    15    42    1
    47    15    43    1
    48    15    44    1
    49    16    45    1
    50    16    46    1
    51    17    47    1
    52    17    48    1
    53    18    49    1
    54    19    50    1
    55    23    51    1
    56    23    52    1
    57    23    53    1
    58    24    54    1
    59    26    55    1
    60    27    56    1
    61    27    57    1
    62    28    58    1
    63    31    59    1
    64    31    60    1
