@<TRIPOS>MOLECULE
*****
 29 30 0 0 0
SMALL
GASTEIGER

@<TRIPOS>ATOM
      1 C          -3.2794    1.3043   -1.9099 C.3     1  UNL1        0.0788
      2 O          -3.4514    0.6875   -0.6722 O.3     1  UNL1       -0.4951
      3 C          -2.4418    0.2582    0.1460 C.ar    1  UNL1        0.1208
      4 C          -2.9480   -0.3192    1.3171 C.ar    1  UNL1       -0.0180
      5 C          -2.1223   -0.8274    2.2986 C.ar    1  UNL1       -0.0343
      6 C          -0.7514   -0.7836    2.1592 C.ar    1  UNL1        0.0470
      7 N           0.3071   -1.1632    2.8737 N.ar    1  UNL1       -0.3604
      8 C           1.4472   -0.8557    2.2143 C.ar    1  UNL1        0.0059
      9 C           1.1483   -0.2384    0.9950 C.ar    1  UNL1       -0.0217
     10 C           2.0859    0.2568   -0.0297 C.3     1  UNL1       -0.0156
     11 C           2.1720   -0.6565   -1.2306 C.3     1  UNL1        0.0488
     12 C           3.1519   -0.0383   -2.1842 C.2     1  UNL1        0.3050
     13 O           3.8386    1.1486   -1.9831 O.3     1  UNL1       -0.4806
     14 O           3.4568   -0.5509   -3.2944 O.2     1  UNL1       -0.2510
     15 C          -0.2418   -0.2132    1.0017 C.ar    1  UNL1        0.0063
     16 C          -1.0664    0.2954    0.0191 C.ar    1  UNL1       -0.0105
     17 H          -3.5589    2.3770   -1.8612 H       1  UNL1        0.0660
     18 H          -2.2318    1.2559   -2.2072 H       1  UNL1        0.0660
     19 H          -3.9378    0.8401   -2.6740 H       1  UNL1        0.0660
     20 H          -3.9981   -0.4273    1.5729 H       1  UNL1        0.0655
     21 H          -2.4706   -1.2798    3.2159 H       1  UNL1        0.0639
     22 H           0.2714   -1.6295    3.8073 H       1  UNL1        0.1653
     23 H           2.4630   -1.0498    2.5626 H       1  UNL1        0.0810
     24 H           1.9215    1.3114   -0.3305 H       1  UNL1        0.0319
     25 H           3.1144    0.2296    0.4267 H       1  UNL1        0.0319
     26 H           2.6126   -1.6286   -0.9265 H       1  UNL1        0.0381
     27 H           1.2001   -0.8810   -1.6954 H       1  UNL1        0.0381
     28 H           4.0678    1.8216   -2.7023 H       1  UNL1        0.2951
     29 H          -0.7590    0.7561   -0.9089 H       1  UNL1        0.0661
@<TRIPOS>BOND
     1     1     2    1
     2     2     3    1
     3     3     4   ar
     4     4     5   ar
     5     5     6   ar
     6     6     7   ar
     7     7     8   ar
     8     8     9   ar
     9     9    10    1
    10    10    11    1
    11    11    12    1
    12    12    13    1
    13    12    14    2
    14     9    15   ar
    15    15    16   ar
    16    16     3   ar
    17    15     6   ar
    18     1    17    1
    19     1    18    1
    20     1    19    1
    21     4    20    1
    22     5    21    1
    23     7    22    1
    24     8    23    1
    25    10    24    1
    26    10    25    1
    27    11    26    1
    28    11    27    1
    29    13    28    1
    30    16    29    1
