
     RDKit          3D

 53 55  0  0  0  0  0  0  0  0999 V2000
    2.9496    1.4624    1.5696 C   0  0  0  0  0  0  0  0  0  0  0  0
    2.2969    0.9524    0.3042 C   0  0  0  0  0  0  0  0  0  0  0  0
    3.0490    1.5806   -0.8600 C   0  0  0  0  0  0  0  0  0  0  0  0
    2.3685   -0.4408    0.1927 O   0  0  0  0  0  0  0  0  0  0  0  0
    3.6149   -1.0544    0.1599 C   0  0  0  0  0  0  0  0  0  0  0  0
    4.2339   -1.4630    1.3324 C   0  0  0  0  0  0  0  0  0  0  0  0
    5.4634   -2.0721    1.3427 C   0  0  0  0  0  0  0  0  0  0  0  0
    6.1292   -2.2983    0.1620 C   0  0  0  0  0  0  0  0  0  0  0  0
    7.7045   -3.0727    0.1074 Cl  0  0  0  0  0  0  0  0  0  0  0  0
    5.5326   -1.8998   -1.0210 C   0  0  0  0  0  0  0  0  0  0  0  0
    4.2798   -1.2793   -1.0300 C   0  0  0  0  0  0  0  0  0  0  0  0
    0.9162    1.4501    0.2554 C   0  0  0  0  0  0  0  0  0  0  0  0
    0.7023    2.6852    0.3444 O   0  0  0  0  0  0  0  0  0  0  0  0
   -0.2268    0.6028    0.1099 N   0  0  0  0  0  0  0  0  0  0  0  0
   -1.5510    1.1296    0.0672 C   0  0  1  0  0  0  0  0  0  0  0  0
   -2.2627    0.8858   -1.2443 C   0  0  0  0  0  0  0  0  0  0  0  0
   -3.6065    1.5400   -1.1671 C   0  0  0  0  0  0  0  0  0  0  0  0
   -3.7866    2.4262    0.0329 C   0  0  0  0  0  0  0  0  0  0  0  0
   -3.5279    1.7294    1.3383 C   0  0  0  0  0  0  0  0  0  0  0  0
   -2.4527    0.6459    1.1611 C   0  0  0  0  0  0  0  0  0  0  0  0
   -3.1655   -0.6230    0.8781 C   0  0  0  0  0  0  0  0  0  0  0  0
   -2.7013   -1.4055   -0.2900 C   0  0  1  0  0  0  0  0  0  0  0  0
   -3.7573   -2.3823   -0.6601 C   0  0  0  0  0  0  0  0  0  0  0  0
   -3.6433   -3.2854   -1.7280 N   0  0  0  0  0  0  0  0  0  0  0  0
   -4.8210   -2.4174    0.0091 O   0  0  0  0  0  0  0  0  0  0  0  0
   -2.4175   -0.5849   -1.5250 C   0  0  0  0  0  0  0  0  0  0  0  0
    2.7208    2.5462    1.6499 H   0  0  0  0  0  0  0  0  0  0  0  0
    4.0480    1.3770    1.5362 H   0  0  0  0  0  0  0  0  0  0  0  0
    2.5043    0.9303    2.4388 H   0  0  0  0  0  0  0  0  0  0  0  0
    4.0933    1.1764   -0.8952 H   0  0  0  0  0  0  0  0  0  0  0  0
    3.1133    2.6810   -0.7491 H   0  0  0  0  0  0  0  0  0  0  0  0
    2.5773    1.3499   -1.8233 H   0  0  0  0  0  0  0  0  0  0  0  0
    3.6901   -1.2742    2.2499 H   0  0  0  0  0  0  0  0  0  0  0  0
    5.8995   -2.3702    2.2853 H   0  0  0  0  0  0  0  0  0  0  0  0
    6.0505   -2.0751   -1.9467 H   0  0  0  0  0  0  0  0  0  0  0  0
    3.8189   -0.9693   -1.9695 H   0  0  0  0  0  0  0  0  0  0  0  0
   -0.0339   -0.4199    0.0372 H   0  0  0  0  0  0  0  0  0  0  0  0
   -1.4847    2.2540    0.1649 H   0  0  0  0  0  0  0  0  0  0  0  0
   -1.6127    1.3024   -2.0522 H   0  0  0  0  0  0  0  0  0  0  0  0
   -3.7042    2.1966   -2.0663 H   0  0  0  0  0  0  0  0  0  0  0  0
   -4.3975    0.7858   -1.2493 H   0  0  0  0  0  0  0  0  0  0  0  0
   -4.8588    2.7399    0.0420 H   0  0  0  0  0  0  0  0  0  0  0  0
   -3.1957    3.3453   -0.0414 H   0  0  0  0  0  0  0  0  0  0  0  0
   -4.4234    1.2632    1.7812 H   0  0  0  0  0  0  0  0  0  0  0  0
   -3.1441    2.4629    2.0823 H   0  0  0  0  0  0  0  0  0  0  0  0
   -1.8663    0.6048    2.1235 H   0  0  0  0  0  0  0  0  0  0  0  0
   -3.0588   -1.2784    1.7853 H   0  0  0  0  0  0  0  0  0  0  0  0
   -4.2839   -0.4976    0.7752 H   0  0  0  0  0  0  0  0  0  0  0  0
   -1.8178   -2.0209    0.0085 H   0  0  0  0  0  0  0  0  0  0  0  0
   -3.9696   -4.2648   -1.6217 H   0  0  0  0  0  0  0  0  0  0  0  0
   -3.2319   -2.9783   -2.6300 H   0  0  0  0  0  0  0  0  0  0  0  0
   -3.2444   -0.6751   -2.2818 H   0  0  0  0  0  0  0  0  0  0  0  0
   -1.5089   -1.0028   -2.0345 H   0  0  0  0  0  0  0  0  0  0  0  0
  1  2  1  0
  2  3  1  0
  2  4  1  0
  4  5  1  0
  5  6  2  0
  6  7  1  0
  7  8  2  0
  8  9  1  0
  8 10  1  0
 10 11  2  0
  2 12  1  0
 12 13  2  0
 12 14  1  0
 14 15  1  0
 15 16  1  0
 16 17  1  0
 17 18  1  0
 18 19  1  0
 19 20  1  0
 20 21  1  0
 21 22  1  0
 22 23  1  0
 23 24  1  0
 23 25  2  0
 22 26  1  0
 11  5  1  0
 20 15  1  0
 26 16  1  0
  1 27  1  0
  1 28  1  0
  1 29  1  0
  3 30  1  0
  3 31  1  0
  3 32  1  0
  6 33  1  0
  7 34  1  0
 10 35  1  0
 11 36  1  0
 14 37  1  0
 15 38  1  1
 16 39  1  0
 17 40  1  0
 17 41  1  0
 18 42  1  0
 18 43  1  0
 19 44  1  0
 19 45  1  0
 20 46  1  0
 21 47  1  0
 21 48  1  0
 22 49  1  1
 24 50  1  0
 24 51  1  0
 26 52  1  0
 26 53  1  0
M  END
$$$$
