@<TRIPOS>MOLECULE
*****
 53 55 0 0 0
SMALL
GASTEIGER

@<TRIPOS>ATOM
      1 C           2.9496    1.4624    1.5696 C.3     1  UNL1       -0.0165
      2 C           2.2969    0.9524    0.3042 C.3     1  UNL1        0.1799
      3 C           3.0490    1.5806   -0.8600 C.3     1  UNL1       -0.0165
      4 O           2.3685   -0.4408    0.1927 O.3     1  UNL1       -0.4770
      5 C           3.6149   -1.0544    0.1599 C.ar    1  UNL1        0.1221
      6 C           4.2339   -1.4630    1.3324 C.ar    1  UNL1       -0.0185
      7 C           5.4634   -2.0721    1.3427 C.ar    1  UNL1       -0.0399
      8 C           6.1292   -2.2983    0.1620 C.ar    1  UNL1        0.0412
      9 CL          7.7045   -3.0727    0.1074 Cl      1  UNL1       -0.0835
     10 C           5.5326   -1.8998   -1.0210 C.ar    1  UNL1       -0.0399
     11 C           4.2798   -1.2793   -1.0300 C.ar    1  UNL1       -0.0185
     12 C           0.9162    1.4501    0.2554 C.2     1  UNL1        0.2566
     13 O           0.7023    2.6852    0.3444 O.2     1  UNL1       -0.2714
     14 N          -0.2268    0.6028    0.1099 N.am    1  UNL1       -0.3087
     15 C          -1.5510    1.1296    0.0672 C.3     1  UNL1        0.0289
     16 C          -2.2627    0.8858   -1.2443 C.3     1  UNL1       -0.0216
     17 C          -3.6065    1.5400   -1.1671 C.3     1  UNL1       -0.0485
     18 C          -3.7866    2.4262    0.0329 C.3     1  UNL1       -0.0524
     19 C          -3.5279    1.7294    1.3383 C.3     1  UNL1       -0.0485
     20 C          -2.4527    0.6459    1.1611 C.3     1  UNL1       -0.0216
     21 C          -3.1655   -0.6230    0.8781 C.3     1  UNL1       -0.0374
     22 C          -2.7013   -1.4055   -0.2900 C.3     1  UNL1        0.0360
     23 C          -3.7573   -2.3823   -0.6601 C.2     1  UNL1        0.2136
     24 N          -3.6433   -3.2854   -1.7280 N.am    1  UNL1       -0.3291
     25 O          -4.8210   -2.4174    0.0091 O.2     1  UNL1       -0.2757
     26 C          -2.4175   -0.5849   -1.5250 C.3     1  UNL1       -0.0374
     27 H           2.7208    2.5462    1.6499 H       1  UNL1        0.0273
     28 H           4.0480    1.3770    1.5362 H       1  UNL1        0.0273
     29 H           2.5043    0.9303    2.4388 H       1  UNL1        0.0273
     30 H           4.0933    1.1764   -0.8952 H       1  UNL1        0.0273
     31 H           3.1133    2.6810   -0.7491 H       1  UNL1        0.0273
     32 H           2.5773    1.3499   -1.8233 H       1  UNL1        0.0273
     33 H           3.6901   -1.2742    2.2499 H       1  UNL1        0.0654
     34 H           5.8995   -2.3702    2.2853 H       1  UNL1        0.0633
     35 H           6.0505   -2.0751   -1.9467 H       1  UNL1        0.0633
     36 H           3.8189   -0.9693   -1.9695 H       1  UNL1        0.0654
     37 H          -0.0339   -0.4199    0.0372 H       1  UNL1        0.1491
     38 H          -1.4847    2.2540    0.1649 H       1  UNL1        0.0504
     39 H          -1.6127    1.3024   -2.0522 H       1  UNL1        0.0319
     40 H          -3.7042    2.1966   -2.0663 H       1  UNL1        0.0269
     41 H          -4.3975    0.7858   -1.2493 H       1  UNL1        0.0269
     42 H          -4.8588    2.7399    0.0420 H       1  UNL1        0.0265
     43 H          -3.1957    3.3453   -0.0414 H       1  UNL1        0.0265
     44 H          -4.4234    1.2632    1.7812 H       1  UNL1        0.0269
     45 H          -3.1441    2.4629    2.0823 H       1  UNL1        0.0269
     46 H          -1.8663    0.6048    2.1235 H       1  UNL1        0.0319
     47 H          -3.0588   -1.2784    1.7853 H       1  UNL1        0.0276
     48 H          -4.2839   -0.4976    0.7752 H       1  UNL1        0.0276
     49 H          -1.8178   -2.0209    0.0085 H       1  UNL1        0.0394
     50 H          -3.9696   -4.2648   -1.6217 H       1  UNL1        0.1449
     51 H          -3.2319   -2.9783   -2.6300 H       1  UNL1        0.1449
     52 H          -3.2444   -0.6751   -2.2818 H       1  UNL1        0.0276
     53 H          -1.5089   -1.0028   -2.0345 H       1  UNL1        0.0276
@<TRIPOS>BOND
     1     1     2    1
     2     2     3    1
     3     2     4    1
     4     4     5    1
     5     5     6   ar
     6     6     7   ar
     7     7     8   ar
     8     8     9    1
     9     8    10   ar
    10    10    11   ar
    11     2    12    1
    12    12    13    2
    13    12    14   am
    14    14    15    1
    15    15    16    1
    16    16    17    1
    17    17    18    1
    18    18    19    1
    19    19    20    1
    20    20    21    1
    21    21    22    1
    22    22    23    1
    23    23    24   am
    24    23    25    2
    25    22    26    1
    26    11     5   ar
    27    20    15    1
    28    26    16    1
    29     1    27    1
    30     1    28    1
    31     1    29    1
    32     3    30    1
    33     3    31    1
    34     3    32    1
    35     6    33    1
    36     7    34    1
    37    10    35    1
    38    11    36    1
    39    14    37    1
    40    15    38    1
    41    16    39    1
    42    17    40    1
    43    17    41    1
    44    18    42    1
    45    18    43    1
    46    19    44    1
    47    19    45    1
    48    20    46    1
    49    21    47    1
    50    21    48    1
    51    22    49    1
    52    24    50    1
    53    24    51    1
    54    26    52    1
    55    26    53    1
