@<TRIPOS>MOLECULE
*****
 153 153 0 0 0
SMALL
GASTEIGER

@<TRIPOS>ATOM
      1 C          -0.7154    2.0350    2.5596 C.3     1  UNL1       -0.0652
      2 C          -0.8038    2.8122    1.2886 C.3     1  UNL1       -0.0538
      3 C          -1.5100    2.0794    0.1580 C.3     1  UNL1       -0.0262
      4 C          -0.7897    0.8005   -0.2113 C.3     1  UNL1        0.0994
      5 N           0.5514    1.0735   -0.6593 N.am    1  UNL1       -0.3024
      6 C           1.6634    0.5750    0.0752 C.2     1  UNL1        0.2365
      7 O           1.7380   -0.1356    1.1028 O.2     1  UNL1       -0.2737
      8 C           3.1326    0.7566   -0.1420 C.3     1  UNL1        0.1252
      9 N           3.9585    0.2121    0.8968 N.am    1  UNL1       -0.3003
     10 C           3.8272    0.6421    2.2711 C.2     1  UNL1        0.2343
     11 O           2.9730    1.4594    2.6910 O.2     1  UNL1       -0.2738
     12 C           4.7608    0.1173    3.3468 C.3     1  UNL1        0.1020
     13 N           6.0537   -0.1284    2.6052 N.am    1  UNL1       -0.3022
     14 C           6.8285    1.0598    2.4088 C.2     1  UNL1        0.2342
     15 O           6.2665    2.1014    2.9290 O.2     1  UNL1       -0.2738
     16 C           8.0403    1.6048    1.8362 C.3     1  UNL1        0.1017
     17 N           8.9518    0.7750    1.1819 N.am    1  UNL1       -0.3025
     18 C          10.0010    0.1340    0.5692 C.2     1  UNL1        0.2308
     19 O          10.9196    1.0125    0.6528 O.2     1  UNL1       -0.2741
     20 C          10.4729   -1.0785   -0.1090 C.3     1  UNL1        0.0882
     21 N          11.8393   -0.8228   -0.5941 N.am    1  UNL1       -0.3054
     22 C          12.3686   -1.9915   -1.2109 C.2     1  UNL1        0.2308
     23 O          11.4665   -2.8152   -1.0795 O.2     1  UNL1       -0.2741
     24 C          13.7569   -1.7775   -1.7505 C.3     1  UNL1        0.0906
     25 N          14.1991   -0.4462   -1.5747 N.am    1  UNL1       -0.2960
     26 C          14.9538    0.2740   -0.6038 C.3     1  UNL1        0.0037
     27 C          13.8782    0.4946   -2.6243 C.2     1  UNL1        0.2126
     28 C          13.9609    1.8436   -3.1972 C.3     1  UNL1        0.0124
     29 O          13.3067   -0.5281   -3.0565 O.2     1  UNL1       -0.2759
     30 C           7.6521    2.7849    0.8579 C.3     1  UNL1       -0.0197
     31 C           6.7955    2.3090   -0.2487 C.3     1  UNL1       -0.0605
     32 C           8.9442    3.4262    0.4216 C.3     1  UNL1       -0.0605
     33 C           4.4102   -1.2165    3.8802 C.3     1  UNL1       -0.0171
     34 C           5.3402   -1.6586    4.9654 C.3     1  UNL1       -0.0603
     35 C           2.9988   -1.5806    4.0803 C.3     1  UNL1       -0.0512
     36 C           2.1597   -0.7663    4.9909 C.3     1  UNL1       -0.0650
     37 C           3.6380    0.3156   -1.4497 C.3     1  UNL1        0.0792
     38 C           3.6781   -1.2079   -1.5697 C.3     1  UNL1       -0.0367
     39 O           2.9440    0.8514   -2.5372 O.3     1  UNL1       -0.3897
     40 C          -1.5070   -0.0571   -1.1362 C.2     1  UNL1        0.2340
     41 O          -1.2831   -0.5894   -2.2488 O.2     1  UNL1       -0.2738
     42 N          -2.8003   -0.3052   -0.5281 N.am    1  UNL1       -0.3022
     43 C          -3.9945   -1.0444   -0.8695 C.3     1  UNL1        0.1020
     44 C          -4.1561   -2.2300    0.0663 C.3     1  UNL1       -0.0171
     45 C          -2.9579   -3.1226   -0.1006 C.3     1  UNL1       -0.0603
     46 C          -4.2911   -1.8204    1.5037 C.3     1  UNL1       -0.0512
     47 C          -4.4293   -3.0795    2.3381 C.3     1  UNL1       -0.0650
     48 C          -5.2028   -0.1938   -0.9103 C.2     1  UNL1        0.2342
     49 O          -5.0437    1.0367   -0.5773 O.2     1  UNL1       -0.2738
     50 N          -6.4640   -0.6933   -1.2887 N.am    1  UNL1       -0.3025
     51 C          -7.8195   -0.2439   -1.4427 C.3     1  UNL1        0.0997
     52 C          -8.2234   -0.4030   -2.8701 C.3     1  UNL1       -0.0230
     53 C          -8.1625   -1.6892   -3.5566 C.3     1  UNL1       -0.0165
     54 C          -8.9241   -2.8792   -3.2046 C.3     1  UNL1        0.1048
     55 N          -8.6238   -3.4508   -1.9387 N.pl3   1  UNL1       -0.1138
     56 C          -9.5095   -3.9722   -1.1682 C.cat   1  UNL1        0.3765
     57 N         -10.8713   -4.0629   -1.4381 N.pl3   1  UNL1       -0.2893
     58 N          -8.6372   -4.3335   -0.1298 N.pl3   1  UNL1       -0.2893
     59 C          -8.8111   -0.7241   -0.4914 C.2     1  UNL1        0.2365
     60 O          -7.6843   -1.1561   -0.5517 O.2     1  UNL1       -0.2735
     61 N         -10.0261    0.0075   -0.6913 N.am    1  UNL1       -0.2884
     62 C         -11.1971   -0.4556    0.0478 C.3     1  UNL1        0.0156
     63 C         -12.3691   -0.3590   -0.9150 C.3     1  UNL1       -0.0350
     64 C         -11.9136    0.7077   -1.9049 C.3     1  UNL1       -0.0243
     65 C         -10.6348    1.1737   -1.2777 C.3     1  UNL1        0.1022
     66 C         -10.9613    2.1761   -0.1763 C.2     1  UNL1        0.2336
     67 O         -11.0621    2.5480    1.0400 O.2     1  UNL1       -0.2738
     68 N         -11.4118    3.4172   -0.7838 N.am    1  UNL1       -0.3140
     69 C         -11.7494    4.4912    0.1631 C.3     1  UNL1        0.0088
     70 C         -10.5624    4.9002    0.9868 C.3     1  UNL1       -0.0495
     71 H          -0.7885    2.6803    3.4540 H       1  UNL1        0.0230
     72 H           0.2453    1.5335    2.6097 H       1  UNL1        0.0230
     73 H          -1.4872    1.2406    2.6442 H       1  UNL1        0.0230
     74 H          -1.2704    3.7760    1.4936 H       1  UNL1        0.0263
     75 H           0.2620    3.0444    0.9684 H       1  UNL1        0.0263
     76 H          -1.4954    2.8387   -0.6873 H       1  UNL1        0.0288
     77 H          -2.5541    1.9523    0.4343 H       1  UNL1        0.0288
     78 H          -0.6562    0.2551    0.7578 H       1  UNL1        0.0594
     79 H           0.9960    1.5778   -1.4528 H       1  UNL1        0.1495
     80 H           3.2641    1.8842   -0.0451 H       1  UNL1        0.0621
     81 H           4.7031   -0.5068    0.7761 H       1  UNL1        0.1496
     82 H           4.9439    0.9213    4.0290 H       1  UNL1        0.0597
     83 H           6.6699   -0.8616    2.1429 H       1  UNL1        0.1495
     84 H           8.6143    2.1977    2.6108 H       1  UNL1        0.0597
     85 H           8.2801   -0.0707    1.0102 H       1  UNL1        0.1495
     86 H           9.8435   -1.3426   -0.9570 H       1  UNL1        0.0558
     87 H          10.5656   -1.8850    0.6781 H       1  UNL1        0.0558
     88 H          12.2832    0.1446   -0.4559 H       1  UNL1        0.1492
     89 H          14.4697   -2.4158   -1.1308 H       1  UNL1        0.0560
     90 H          13.8816   -2.2107   -2.7671 H       1  UNL1        0.0560
     91 H          15.1836   -0.4008    0.2514 H       1  UNL1        0.0429
     92 H          15.9119    0.6221   -1.0674 H       1  UNL1        0.0429
     93 H          14.4100    1.1554   -0.2498 H       1  UNL1        0.0429
     94 H          13.0977    2.0625   -3.8584 H       1  UNL1        0.0323
     95 H          13.9477    2.6342   -2.4193 H       1  UNL1        0.0323
     96 H          14.8827    1.9527   -3.8236 H       1  UNL1        0.0323
     97 H           7.0688    3.5249    1.4727 H       1  UNL1        0.0318
     98 H           6.6250    1.2000   -0.2490 H       1  UNL1        0.0233
     99 H           7.1714    2.6281   -1.2559 H       1  UNL1        0.0233
    100 H           5.7495    2.7338   -0.2195 H       1  UNL1        0.0233
    101 H           8.8439    4.5085    0.1890 H       1  UNL1        0.0233
    102 H           9.3247    2.9309   -0.4967 H       1  UNL1        0.0233
    103 H           9.7057    3.3523    1.2561 H       1  UNL1        0.0233
    104 H           4.7235   -1.9397    2.9818 H       1  UNL1        0.0321
    105 H           5.8882   -0.8154    5.4372 H       1  UNL1        0.0233
    106 H           6.0734   -2.3987    4.6307 H       1  UNL1        0.0233
    107 H           4.7370   -2.1621    5.7597 H       1  UNL1        0.0233
    108 H           2.4770   -1.7581    3.0914 H       1  UNL1        0.0266
    109 H           3.0083   -2.6388    4.5143 H       1  UNL1        0.0266
    110 H           2.6406   -0.2803    5.8357 H       1  UNL1        0.0230
    111 H           1.5296   -0.0643    4.3741 H       1  UNL1        0.0230
    112 H           1.3612   -1.4290    5.4700 H       1  UNL1        0.0230
    113 H           4.6927    0.6294   -1.5375 H       1  UNL1        0.0614
    114 H           4.3655   -1.6728   -0.8375 H       1  UNL1        0.0255
    115 H           4.0837   -1.4583   -2.5692 H       1  UNL1        0.0255
    116 H           2.6843   -1.6607   -1.3563 H       1  UNL1        0.0255
    117 H           2.8720    0.1519   -3.2374 H       1  UNL1        0.2099
    118 H          -3.1751    0.0434    0.4021 H       1  UNL1        0.1495
    119 H          -3.9092   -1.4986   -1.8741 H       1  UNL1        0.0597
    120 H          -5.0494   -2.7878   -0.2714 H       1  UNL1        0.0321
    121 H          -2.2165   -2.9240    0.7055 H       1  UNL1        0.0233
    122 H          -3.2257   -4.1980   -0.1492 H       1  UNL1        0.0233
    123 H          -2.4481   -2.8766   -1.0565 H       1  UNL1        0.0233
    124 H          -3.4072   -1.3083    1.8960 H       1  UNL1        0.0266
    125 H          -5.2536   -1.2779    1.6273 H       1  UNL1        0.0266
    126 H          -4.8724   -2.7586    3.3199 H       1  UNL1        0.0230
    127 H          -5.1465   -3.7603    1.8577 H       1  UNL1        0.0230
    128 H          -3.4644   -3.5502    2.5782 H       1  UNL1        0.0230
    129 H          -6.3584   -1.7286   -1.5582 H       1  UNL1        0.1495
    130 H          -7.7598    0.9086   -1.2904 H       1  UNL1        0.0594
    131 H          -9.2806   -0.0324   -3.0303 H       1  UNL1        0.0289
    132 H          -7.6335    0.3813   -3.4489 H       1  UNL1        0.0289
    133 H          -7.0517   -1.9699   -3.7806 H       1  UNL1        0.0298
    134 H          -8.4699   -1.4438   -4.6513 H       1  UNL1        0.0298
    135 H         -10.0301   -2.6760   -3.3274 H       1  UNL1        0.0693
    136 H          -8.7067   -3.7116   -3.9638 H       1  UNL1        0.0693
    137 H         -11.8175   -3.6716   -1.2575 H       1  UNL1        0.2546
    138 H         -11.5263   -4.6388   -2.0094 H       1  UNL1        0.2546
    139 H          -8.0134   -5.1578   -0.0044 H       1  UNL1        0.2546
    140 H          -8.6215   -3.6356    0.6565 H       1  UNL1        0.2546
    141 H         -11.4170    0.2537    0.8644 H       1  UNL1        0.0465
    142 H         -11.1008   -1.4588    0.4619 H       1  UNL1        0.0465
    143 H         -13.3173   -0.0978   -0.4261 H       1  UNL1        0.0281
    144 H         -12.4601   -1.3150   -1.4631 H       1  UNL1        0.0281
    145 H         -12.6814    1.4832   -1.9139 H       1  UNL1        0.0288
    146 H         -11.8149    0.3304   -2.9308 H       1  UNL1        0.0288
    147 H         -10.0429    1.7344   -1.9954 H       1  UNL1        0.0597
    148 H         -11.5218    3.6270   -1.8223 H       1  UNL1        0.1487
    149 H         -12.0875    5.3736   -0.4052 H       1  UNL1        0.0459
    150 H         -12.5604    4.1672    0.8544 H       1  UNL1        0.0459
    151 H         -10.3040    5.9815    0.7993 H       1  UNL1        0.0245
    152 H          -9.6692    4.2780    0.7579 H       1  UNL1        0.0245
    153 H         -10.7420    4.7658    2.0783 H       1  UNL1        0.0245
@<TRIPOS>BOND
     1     1     2    1
     2     2     3    1
     3     3     4    1
     4     4     5    1
     5     5     6   am
     6     6     7    2
     7     6     8    1
     8     8     9    1
     9     9    10   am
    10    10    11    2
    11    10    12    1
    12    12    13    1
    13    13    14   am
    14    14    15    2
    15    14    16    1
    16    16    17    1
    17    17    18   am
    18    18    19    2
    19    18    20    1
    20    20    21    1
    21    21    22   am
    22    22    23    2
    23    22    24    1
    24    24    25    1
    25    25    26    1
    26    25    27   am
    27    27    28    1
    28    27    29    2
    29    16    30    1
    30    30    31    1
    31    30    32    1
    32    12    33    1
    33    33    34    1
    34    33    35    1
    35    35    36    1
    36     8    37    1
    37    37    38    1
    38    37    39    1
    39     4    40    1
    40    40    41    2
    41    40    42   am
    42    42    43    1
    43    43    44    1
    44    44    45    1
    45    44    46    1
    46    46    47    1
    47    43    48    1
    48    48    49    2
    49    48    50   am
    50    50    51    1
    51    51    52    1
    52    52    53    1
    53    53    54    1
    54    54    55    1
    55    55    56    2
    56    56    57    1
    57    56    58    1
    58    51    59    1
    59    59    60    2
    60    59    61   am
    61    61    62    1
    62    62    63    1
    63    63    64    1
    64    64    65    1
    65    65    66    1
    66    66    67    2
    67    66    68   am
    68    68    69    1
    69    69    70    1
    70    65    61    1
    71     1    71    1
    72     1    72    1
    73     1    73    1
    74     2    74    1
    75     2    75    1
    76     3    76    1
    77     3    77    1
    78     4    78    1
    79     5    79    1
    80     8    80    1
    81     9    81    1
    82    12    82    1
    83    13    83    1
    84    16    84    1
    85    17    85    1
    86    20    86    1
    87    20    87    1
    88    21    88    1
    89    24    89    1
    90    24    90    1
    91    26    91    1
    92    26    92    1
    93    26    93    1
    94    28    94    1
    95    28    95    1
    96    28    96    1
    97    30    97    1
    98    31    98    1
    99    31    99    1
   100    31   100    1
   101    32   101    1
   102    32   102    1
   103    32   103    1
   104    33   104    1
   105    34   105    1
   106    34   106    1
   107    34   107    1
   108    35   108    1
   109    35   109    1
   110    36   110    1
   111    36   111    1
   112    36   112    1
   113    37   113    1
   114    38   114    1
   115    38   115    1
   116    38   116    1
   117    39   117    1
   118    42   118    1
   119    43   119    1
   120    44   120    1
   121    45   121    1
   122    45   122    1
   123    45   123    1
   124    46   124    1
   125    46   125    1
   126    47   126    1
   127    47   127    1
   128    47   128    1
   129    50   129    1
   130    51   130    1
   131    52   131    1
   132    52   132    1
   133    53   133    1
   134    53   134    1
   135    54   135    1
   136    54   136    1
   137    57   137    1
   138    57   138    1
   139    58   139    1
   140    58   140    1
   141    62   141    1
   142    62   142    1
   143    63   143    1
   144    63   144    1
   145    64   145    1
   146    64   146    1
   147    65   147    1
   148    68   148    1
   149    69   149    1
   150    69   150    1
   151    70   151    1
   152    70   152    1
   153    70   153    1
