@<TRIPOS>MOLECULE
*****
 54 57 0 0 0
SMALL
GASTEIGER

@<TRIPOS>ATOM
      1 O          -0.7550   -2.8383    0.4317 O.2     1  UNL1       -0.2699
      2 C          -0.4130   -1.6901    0.8711 C.2     1  UNL1        0.2483
      3 N          -1.1603   -1.2041    1.9678 N.am    1  UNL1       -0.2808
      4 C          -2.2288   -1.9433    2.5512 C.ar    1  UNL1        0.0459
      5 C          -2.0917   -2.8379    3.5826 C.ar    1  UNL1       -0.0384
      6 C          -3.1568   -3.5322    4.1165 C.ar    1  UNL1       -0.0416
      7 C          -4.4176   -3.3405    3.6154 C.ar    1  UNL1        0.0418
      8 CL         -5.7633   -4.2267    4.3000 Cl      1  UNL1       -0.0835
      9 C          -4.5916   -2.4346    2.5630 C.ar    1  UNL1       -0.0295
     10 C          -3.5100   -1.7511    2.0449 C.ar    1  UNL1        0.0596
     11 C          -3.7450   -0.8213    0.9518 C.2     1  UNL1        0.2511
     12 O          -2.7400   -0.2007    0.4863 O.2     1  UNL1       -0.2697
     13 N          -4.9841   -0.5357    0.3508 N.am    1  UNL1       -0.2663
     14 C          -5.1335    0.3935   -0.7222 C.ar    1  UNL1        0.1252
     15 C          -6.3926    0.5986   -1.2375 C.ar    1  UNL1       -0.0201
     16 C          -6.6224    1.4892   -2.2855 C.ar    1  UNL1       -0.0387
     17 C          -5.5394    2.1791   -2.8111 C.ar    1  UNL1        0.0592
     18 CL         -5.7262    3.3216   -4.1312 Cl      1  UNL1       -0.0820
     19 C          -4.2935    1.9555   -2.2781 C.ar    1  UNL1        0.0480
     20 N          -4.1131    1.0762   -1.2538 N.ar    1  UNL1       -0.2387
     21 C           0.6989   -0.9623    0.2356 C.ar    1  UNL1        0.0370
     22 C           1.1145    0.2722    0.6593 C.ar    1  UNL1       -0.0493
     23 C           2.1697    0.9179    0.0253 C.ar    1  UNL1       -0.0566
     24 C           2.8437    0.3699   -1.0392 C.ar    1  UNL1       -0.0333
     25 C           3.9547    1.0957   -1.6684 C.3     1  UNL1        0.0240
     26 N           5.2501    0.8210   -1.1516 N.3     1  UNL1       -0.2982
     27 C           5.4757    1.1276    0.2216 C.3     1  UNL1       -0.0007
     28 C           6.9054    1.6778    0.2938 C.3     1  UNL1       -0.0390
     29 C           6.9310    2.4365   -1.0411 C.3     1  UNL1       -0.0390
     30 C           6.2527    1.4419   -1.9520 C.3     1  UNL1       -0.0007
     31 C           2.4119   -0.8750   -1.4536 C.ar    1  UNL1       -0.0566
     32 C           1.3687   -1.5316   -0.8394 C.ar    1  UNL1       -0.0493
     33 H          -0.8853   -0.2496    2.3425 H       1  UNL1        0.1552
     34 H          -1.1228   -3.0152    4.0012 H       1  UNL1        0.0637
     35 H          -3.0358   -4.2326    4.9271 H       1  UNL1        0.0633
     36 H          -5.6073   -2.3363    2.2221 H       1  UNL1        0.0640
     37 H          -5.8225   -1.0335    0.7169 H       1  UNL1        0.1566
     38 H          -7.2591    0.0721   -0.8454 H       1  UNL1        0.0652
     39 H          -7.5923    1.6623   -2.6994 H       1  UNL1        0.0634
     40 H          -3.4343    2.4986   -2.6903 H       1  UNL1        0.0845
     41 H           0.6169    0.7426    1.4905 H       1  UNL1        0.0625
     42 H           2.4705    1.8945    0.3836 H       1  UNL1        0.0621
     43 H           3.7580    2.1903   -1.5064 H       1  UNL1        0.0476
     44 H           3.9961    0.9551   -2.7701 H       1  UNL1        0.0476
     45 H           4.8406    2.0246    0.4825 H       1  UNL1        0.0427
     46 H           5.3059    0.3123    0.9235 H       1  UNL1        0.0427
     47 H           7.6189    0.8577    0.2019 H       1  UNL1        0.0278
     48 H           7.0468    2.3425    1.1457 H       1  UNL1        0.0278
     49 H           7.9611    2.6792   -1.3495 H       1  UNL1        0.0278
     50 H           6.2976    3.3466   -0.8836 H       1  UNL1        0.0278
     51 H           5.8331    1.9666   -2.8464 H       1  UNL1        0.0427
     52 H           7.0370    0.7146   -2.2675 H       1  UNL1        0.0427
     53 H           2.9247   -1.3258   -2.2868 H       1  UNL1        0.0621
     54 H           1.0528   -2.5156   -1.1928 H       1  UNL1        0.0625
@<TRIPOS>BOND
     1     1     2    2
     2     2     3   am
     3     3     4    1
     4     4     5   ar
     5     5     6   ar
     6     6     7   ar
     7     7     8    1
     8     7     9   ar
     9     9    10   ar
    10    10    11    1
    11    11    12    2
    12    11    13   am
    13    13    14    1
    14    14    15   ar
    15    15    16   ar
    16    16    17   ar
    17    17    18    1
    18    17    19   ar
    19    19    20   ar
    20     2    21    1
    21    21    22   ar
    22    22    23   ar
    23    23    24   ar
    24    24    25    1
    25    25    26    1
    26    26    27    1
    27    27    28    1
    28    28    29    1
    29    29    30    1
    30    24    31   ar
    31    31    32   ar
    32    10     4   ar
    33    20    14   ar
    34    32    21   ar
    35    30    26    1
    36     3    33    1
    37     5    34    1
    38     6    35    1
    39     9    36    1
    40    13    37    1
    41    15    38    1
    42    16    39    1
    43    19    40    1
    44    22    41    1
    45    23    42    1
    46    25    43    1
    47    25    44    1
    48    27    45    1
    49    27    46    1
    50    28    47    1
    51    28    48    1
    52    29    49    1
    53    29    50    1
    54    30    51    1
    55    30    52    1
    56    31    53    1
    57    32    54    1
