
     RDKit          3D

 83 85  0  0  0  0  0  0  0  0999 V2000
   -7.3859    2.8760   -1.1126 C   0  0  0  0  0  0  0  0  0  0  0  0
   -7.4276    1.5733   -1.8636 C   0  0  0  0  0  0  0  0  0  0  0  0
   -6.2285    1.2341   -2.6496 C   0  0  0  0  0  0  0  0  0  0  0  0
   -4.9160    1.1189   -2.0145 C   0  0  0  0  0  0  0  0  0  0  0  0
   -4.6648    0.1874   -0.9892 N   0  0  0  0  0  0  0  0  0  0  0  0
   -5.2637    0.4061    0.2808 C   0  0  0  0  0  0  0  0  0  0  0  0
   -4.6802    1.6323    0.9586 C   0  0  0  0  0  0  0  0  0  0  0  0
   -5.4262    1.7265    2.2974 C   0  0  0  0  0  0  0  0  0  0  0  0
   -4.9900    2.8876    3.1252 C   0  0  0  0  0  0  0  0  0  0  0  0
   -4.7721   -1.1739   -1.4550 C   0  0  0  0  0  0  0  0  0  0  0  0
   -4.4261   -2.2037   -0.4485 C   0  0  0  0  0  0  0  0  0  0  0  0
   -2.9986   -2.1182    0.0473 C   0  0  0  0  0  0  0  0  0  0  0  0
   -2.0817   -2.2931   -1.0377 O   0  0  0  0  0  0  0  0  0  0  0  0
   -0.7151   -2.2527   -0.8218 C   0  0  0  0  0  0  0  0  0  0  0  0
    0.0495   -2.4377   -1.9487 C   0  0  0  0  0  0  0  0  0  0  0  0
    1.4477   -2.4138   -1.8360 C   0  0  0  0  0  0  0  0  0  0  0  0
    2.0661   -2.2083   -0.6215 C   0  0  0  0  0  0  0  0  0  0  0  0
    1.1932   -2.0368    0.4296 C   0  0  0  0  0  0  0  0  0  0  0  0
   -0.1803   -2.0422    0.4285 C   0  0  0  0  0  0  0  0  0  0  0  0
    3.5079   -2.2129   -0.5075 C   0  0  0  0  0  0  0  0  0  0  0  0
    3.8764   -3.0570   -1.3656 O   0  0  0  0  0  0  0  0  0  0  0  0
    4.5586   -1.6026    0.2234 C   0  0  0  0  0  0  0  0  0  0  0  0
    5.8634   -2.0493    0.2173 C   0  0  0  0  0  0  0  0  0  0  0  0
    6.5836   -3.1417   -0.4493 C   0  0  0  0  0  0  0  0  0  0  0  0
    6.9800   -2.7646   -1.8534 C   0  0  0  0  0  0  0  0  0  0  0  0
    7.9056   -1.5390   -1.7725 C   0  0  0  0  0  0  0  0  0  0  0  0
    9.1073   -1.9531   -0.9594 C   0  0  0  0  0  0  0  0  0  0  0  0
    6.5230   -1.2342    1.0211 O   0  0  0  0  0  0  0  0  0  0  0  0
    5.7962   -0.3146    1.5419 C   0  0  0  0  0  0  0  0  0  0  0  0
    4.5249   -0.5117    1.0564 C   0  0  0  0  0  0  0  0  0  0  0  0
    3.5767    0.3819    1.4915 C   0  0  0  0  0  0  0  0  0  0  0  0
    3.8558    1.4139    2.3587 C   0  0  0  0  0  0  0  0  0  0  0  0
    2.8293    2.3304    2.7889 N   0  0  0  0  0  0  0  0  0  0  0  0
    1.7172    2.9733    1.6422 S   0  0  0  0  0  0  0  0  0  0  0  0
    2.4884    3.9260    0.3802 C   0  0  0  0  0  0  0  0  0  0  0  0
    0.7577    3.8328    2.4215 O   0  0  0  0  0  0  0  0  0  0  0  0
    0.8931    1.8866    1.0051 O   0  0  0  0  0  0  0  0  0  0  0  0
    5.1587    1.5749    2.8277 C   0  0  0  0  0  0  0  0  0  0  0  0
    6.1451    0.7032    2.4176 C   0  0  0  0  0  0  0  0  0  0  0  0
   -8.3035    3.4905   -1.2159 H   0  0  0  0  0  0  0  0  0  0  0  0
   -6.5314    3.5028   -1.3478 H   0  0  0  0  0  0  0  0  0  0  0  0
   -7.3419    2.6220   -0.0217 H   0  0  0  0  0  0  0  0  0  0  0  0
   -8.2401    1.7709   -2.6619 H   0  0  0  0  0  0  0  0  0  0  0  0
   -7.8862    0.7362   -1.3062 H   0  0  0  0  0  0  0  0  0  0  0  0
   -6.4897    0.3367   -3.2685 H   0  0  0  0  0  0  0  0  0  0  0  0
   -6.1311    2.0449   -3.4436 H   0  0  0  0  0  0  0  0  0  0  0  0
   -4.5469    2.1323   -1.7180 H   0  0  0  0  0  0  0  0  0  0  0  0
   -4.1896    0.8500   -2.8513 H   0  0  0  0  0  0  0  0  0  0  0  0
   -4.9408   -0.4426    0.9588 H   0  0  0  0  0  0  0  0  0  0  0  0
   -6.3460    0.4082    0.3508 H   0  0  0  0  0  0  0  0  0  0  0  0
   -3.6104    1.4934    1.2211 H   0  0  0  0  0  0  0  0  0  0  0  0
   -4.7646    2.5540    0.3860 H   0  0  0  0  0  0  0  0  0  0  0  0
   -6.5335    1.8354    2.1061 H   0  0  0  0  0  0  0  0  0  0  0  0
   -5.3407    0.7458    2.8175 H   0  0  0  0  0  0  0  0  0  0  0  0
   -5.1838    2.6626    4.2026 H   0  0  0  0  0  0  0  0  0  0  0  0
   -5.5852    3.7964    2.8875 H   0  0  0  0  0  0  0  0  0  0  0  0
   -3.9301    3.1290    2.9436 H   0  0  0  0  0  0  0  0  0  0  0  0
   -5.7427   -1.4405   -1.8926 H   0  0  0  0  0  0  0  0  0  0  0  0
   -4.0237   -1.2808   -2.2937 H   0  0  0  0  0  0  0  0  0  0  0  0
   -5.1662   -2.3460    0.3601 H   0  0  0  0  0  0  0  0  0  0  0  0
   -4.4626   -3.1950   -1.0048 H   0  0  0  0  0  0  0  0  0  0  0  0
   -2.7422   -1.1628    0.5303 H   0  0  0  0  0  0  0  0  0  0  0  0
   -2.7699   -2.9259    0.7700 H   0  0  0  0  0  0  0  0  0  0  0  0
   -0.3871   -2.6048   -2.9428 H   0  0  0  0  0  0  0  0  0  0  0  0
    2.0095   -2.5662   -2.7622 H   0  0  0  0  0  0  0  0  0  0  0  0
    1.6356   -1.8792    1.4148 H   0  0  0  0  0  0  0  0  0  0  0  0
   -0.7913   -1.8985    1.3040 H   0  0  0  0  0  0  0  0  0  0  0  0
    5.9645   -4.0677   -0.5330 H   0  0  0  0  0  0  0  0  0  0  0  0
    7.4505   -3.4438    0.1639 H   0  0  0  0  0  0  0  0  0  0  0  0
    7.5726   -3.6059   -2.3187 H   0  0  0  0  0  0  0  0  0  0  0  0
    6.1752   -2.4878   -2.5237 H   0  0  0  0  0  0  0  0  0  0  0  0
    7.3816   -0.6848   -1.3343 H   0  0  0  0  0  0  0  0  0  0  0  0
    8.2259   -1.2923   -2.8218 H   0  0  0  0  0  0  0  0  0  0  0  0
    9.9985   -1.4783   -1.4502 H   0  0  0  0  0  0  0  0  0  0  0  0
    9.2233   -3.0694   -1.0363 H   0  0  0  0  0  0  0  0  0  0  0  0
    9.0672   -1.5997    0.0743 H   0  0  0  0  0  0  0  0  0  0  0  0
    2.5798    0.2675    1.1182 H   0  0  0  0  0  0  0  0  0  0  0  0
    2.8941    2.5051    3.8291 H   0  0  0  0  0  0  0  0  0  0  0  0
    3.5312    4.1600    0.6319 H   0  0  0  0  0  0  0  0  0  0  0  0
    2.5241    3.3169   -0.5457 H   0  0  0  0  0  0  0  0  0  0  0  0
    1.8923    4.8279    0.1191 H   0  0  0  0  0  0  0  0  0  0  0  0
    5.4292    2.3801    3.5188 H   0  0  0  0  0  0  0  0  0  0  0  0
    7.1774    0.7987    2.7648 H   0  0  0  0  0  0  0  0  0  0  0  0
  1  2  1  0
  2  3  1  0
  3  4  1  0
  4  5  1  0
  5  6  1  0
  6  7  1  0
  7  8  1  0
  8  9  1  0
  5 10  1  0
 10 11  1  0
 11 12  1  0
 12 13  1  0
 13 14  1  0
 14 15  2  0
 15 16  1  0
 16 17  2  0
 17 18  1  0
 18 19  2  0
 17 20  1  0
 20 21  2  0
 20 22  1  0
 22 23  2  0
 23 24  1  0
 24 25  1  0
 25 26  1  0
 26 27  1  0
 23 28  1  0
 28 29  1  0
 29 30  2  0
 30 31  1  0
 31 32  2  0
 32 33  1  0
 33 34  1  0
 34 35  1  0
 34 36  2  0
 34 37  2  0
 32 38  1  0
 38 39  2  0
 19 14  1  0
 30 22  1  0
 39 29  1  0
  1 40  1  0
  1 41  1  0
  1 42  1  0
  2 43  1  0
  2 44  1  0
  3 45  1  0
  3 46  1  0
  4 47  1  0
  4 48  1  0
  6 49  1  0
  6 50  1  0
  7 51  1  0
  7 52  1  0
  8 53  1  0
  8 54  1  0
  9 55  1  0
  9 56  1  0
  9 57  1  0
 10 58  1  0
 10 59  1  0
 11 60  1  0
 11 61  1  0
 12 62  1  0
 12 63  1  0
 15 64  1  0
 16 65  1  0
 18 66  1  0
 19 67  1  0
 24 68  1  0
 24 69  1  0
 25 70  1  0
 25 71  1  0
 26 72  1  0
 26 73  1  0
 27 74  1  0
 27 75  1  0
 27 76  1  0
 31 77  1  0
 33 78  1  0
 35 79  1  0
 35 80  1  0
 35 81  1  0
 38 82  1  0
 39 83  1  0
M  END
$$$$
