@<TRIPOS>MOLECULE
*****
 54 57 0 0 0
SMALL
GASTEIGER

@<TRIPOS>ATOM
      1 C          -9.7036    2.2778    1.3967 C.3     1  UNL1        0.0788
      2 O          -9.5044    0.8808    1.4986 O.3     1  UNL1       -0.4951
      3 C          -8.3591    0.2962    0.9609 C.ar    1  UNL1        0.1201
      4 C          -7.4129    1.0387    0.3319 C.ar    1  UNL1       -0.0192
      5 C          -6.2646    0.4457   -0.2077 C.ar    1  UNL1       -0.0460
      6 C          -6.1105   -0.9185   -0.0862 C.ar    1  UNL1        0.0387
      7 C          -4.9206   -1.5303   -0.6600 C.ar    1  UNL1        0.2489
      8 N          -4.5881   -2.8331   -0.6260 N.ar    1  UNL1       -0.1068
      9 N          -3.4414   -3.0215   -1.2473 N.ar    1  UNL1       -0.1021
     10 C          -3.0225   -1.8266   -1.6927 C.ar    1  UNL1        0.3042
     11 C          -1.7971   -1.5536   -2.4407 C.2     1  UNL1        0.3035
     12 O          -1.9632   -1.1774   -3.6375 O.2     1  UNL1       -0.2647
     13 N          -0.5367   -1.6945   -1.8930 N.am    1  UNL1       -0.2865
     14 C           0.0095   -2.0799   -0.5977 C.3     1  UNL1        0.0538
     15 C           1.1244   -1.1069   -0.8854 C.3     1  UNL1        0.1314
     16 O           2.3427   -1.5482   -0.3581 O.3     1  UNL1       -0.4856
     17 C           3.3403   -0.7443    0.1386 C.ar    1  UNL1        0.1238
     18 C           3.2607    0.6302    0.1900 C.ar    1  UNL1       -0.0194
     19 C           4.2940    1.3853    0.6926 C.ar    1  UNL1       -0.0512
     20 C           5.4524    0.7719    1.1644 C.ar    1  UNL1        0.0020
     21 C           6.5767    1.6417    1.6548 C.3     1  UNL1        0.0262
     22 N           7.5129    1.8034    0.6061 N.3     1  UNL1       -0.3041
     23 C           8.6099    2.6821    0.8217 C.3     1  UNL1       -0.0127
     24 C           7.6680    0.7866   -0.3580 C.3     1  UNL1       -0.0127
     25 C           5.5602   -0.5863    1.1305 C.ar    1  UNL1        0.1312
     26 F           6.6767   -1.2322    1.5924 F       1  UNL1       -0.2050
     27 C           4.4901   -1.3273    0.6117 C.ar    1  UNL1        0.0156
     28 C           0.8568   -1.5503   -2.3185 C.3     1  UNL1        0.0538
     29 O          -3.9424   -0.9581   -1.3167 O.2     1  UNL1       -0.4123
     30 C          -7.0866   -1.6449    0.5582 C.ar    1  UNL1       -0.0460
     31 C          -8.2164   -1.0639    1.0888 C.ar    1  UNL1       -0.0192
     32 H         -10.7068    2.5503    1.7959 H       1  UNL1        0.0660
     33 H          -9.6246    2.6316    0.3436 H       1  UNL1        0.0660
     34 H          -8.9304    2.7463    2.0417 H       1  UNL1        0.0660
     35 H          -7.5186    2.1032    0.2320 H       1  UNL1        0.0654
     36 H          -5.5491    1.0904   -0.6940 H       1  UNL1        0.0626
     37 H          -0.6162   -1.8939    0.2832 H       1  UNL1        0.0502
     38 H           0.3533   -3.1570   -0.7153 H       1  UNL1        0.0502
     39 H           0.8380   -0.0659   -0.7837 H       1  UNL1        0.0765
     40 H           2.3506    1.1312   -0.1779 H       1  UNL1        0.0654
     41 H           4.2664    2.4617    0.7508 H       1  UNL1        0.0623
     42 H           7.0324    1.1539    2.5718 H       1  UNL1        0.0476
     43 H           6.1792    2.6021    2.0291 H       1  UNL1        0.0476
     44 H           8.4260    3.3688    1.6771 H       1  UNL1        0.0391
     45 H           9.5932    2.1587    0.9323 H       1  UNL1        0.0391
     46 H           8.7541    3.3671   -0.0693 H       1  UNL1        0.0391
     47 H           8.1593    1.2373   -1.2798 H       1  UNL1        0.0391
     48 H           8.3777   -0.0287   -0.0624 H       1  UNL1        0.0391
     49 H           6.6994    0.3992   -0.7292 H       1  UNL1        0.0391
     50 H           4.6490   -2.4179    0.6127 H       1  UNL1        0.0683
     51 H           1.2986   -2.5204   -2.5953 H       1  UNL1        0.0502
     52 H           0.9750   -0.7608   -3.0895 H       1  UNL1        0.0502
     53 H          -6.9723   -2.7108    0.6582 H       1  UNL1        0.0626
     54 H          -8.9393   -1.6889    1.5840 H       1  UNL1        0.0654
@<TRIPOS>BOND
     1     1     2    1
     2     2     3    1
     3     3     4   ar
     4     4     5   ar
     5     5     6   ar
     6     6     7    1
     7     7     8   ar
     8     8     9   ar
     9     9    10   ar
    10    10    11    1
    11    11    12    2
    12    11    13   am
    13    13    14    1
    14    14    15    1
    15    15    16    1
    16    16    17    1
    17    17    18   ar
    18    18    19   ar
    19    19    20   ar
    20    20    21    1
    21    21    22    1
    22    22    23    1
    23    22    24    1
    24    20    25   ar
    25    25    26    1
    26    25    27   ar
    27    15    28    1
    28    10    29   ar
    29     6    30   ar
    30    30    31   ar
    31    31     3   ar
    32    29     7   ar
    33    28    13    1
    34    27    17   ar
    35     1    32    1
    36     1    33    1
    37     1    34    1
    38     4    35    1
    39     5    36    1
    40    14    37    1
    41    14    38    1
    42    15    39    1
    43    18    40    1
    44    19    41    1
    45    21    42    1
    46    21    43    1
    47    23    44    1
    48    23    45    1
    49    23    46    1
    50    24    47    1
    51    24    48    1
    52    24    49    1
    53    27    50    1
    54    28    51    1
    55    28    52    1
    56    30    53    1
    57    31    54    1
