@<TRIPOS>MOLECULE
*****
 42 45 0 0 0
SMALL
GASTEIGER

@<TRIPOS>ATOM
      1 N           1.4936    5.3260   -0.4325 N.am    1  UNL1       -0.3253
      2 C           2.0651    4.0245   -0.4025 C.2     1  UNL1        0.2441
      3 O           3.3057    3.9594   -0.6121 O.2     1  UNL1       -0.2703
      4 C           1.2518    2.8511   -0.1441 C.ar    1  UNL1        0.0689
      5 C          -0.1130    2.9926    0.0795 C.ar    1  UNL1        0.0429
      6 N          -0.7593    1.8432    0.3065 N.ar    1  UNL1       -0.2391
      7 C          -0.2320    0.6342    0.3351 C.ar    1  UNL1        0.1273
      8 N          -1.0930   -0.4869    0.5966 N.pl3   1  UNL1       -0.3245
      9 C          -2.4913   -0.3215    0.8208 C.3     1  UNL1        0.0345
     10 C          -3.1754    0.2888   -0.3578 C.3     1  UNL1       -0.0322
     11 C          -4.6571    0.1021   -0.4007 C.3     1  UNL1       -0.0387
     12 C          -4.9768   -1.3615   -0.1920 C.3     1  UNL1       -0.0040
     13 N          -4.5212   -1.6865    1.1527 N.3     1  UNL1       -0.3142
     14 C          -3.0969   -1.6308    1.2727 C.3     1  UNL1        0.0143
     15 C           1.1498    0.4283    0.1150 C.ar    1  UNL1        0.0303
     16 C           1.8775   -0.7038    0.1010 C.ar    1  UNL1       -0.0354
     17 C           3.1771   -0.7234   -0.1233 C.ar    1  UNL1        0.0272
     18 C           4.2142   -1.7120   -0.2054 C.ar    1  UNL1        0.0259
     19 C           4.2066   -3.0455   -0.0712 C.ar    1  UNL1       -0.0464
     20 C           5.3482   -3.7310   -0.2017 C.ar    1  UNL1       -0.0541
     21 C           6.5044   -3.0596   -0.4700 C.ar    1  UNL1       -0.0237
     22 S           5.8750   -1.3359   -0.5321 S.2     1  UNL1       -0.0961
     23 S           3.5356    1.0874   -0.3661 S.2     1  UNL1       -0.0868
     24 C           1.8347    1.6087   -0.1218 C.ar    1  UNL1        0.0368
     25 H           1.8967    6.0822    0.1575 H       1  UNL1        0.1453
     26 H           0.6780    5.5350   -1.0354 H       1  UNL1        0.1453
     27 H          -0.6265    3.9244    0.0761 H       1  UNL1        0.0838
     28 H          -0.6790   -1.4478    0.6220 H       1  UNL1        0.1478
     29 H          -2.6008    0.4182    1.6661 H       1  UNL1        0.0510
     30 H          -2.7697   -0.1180   -1.3296 H       1  UNL1        0.0284
     31 H          -2.9948    1.4024   -0.3397 H       1  UNL1        0.0284
     32 H          -5.1970    0.7125    0.3515 H       1  UNL1        0.0278
     33 H          -5.0133    0.4163   -1.3975 H       1  UNL1        0.0278
     34 H          -6.0686   -1.5459   -0.2022 H       1  UNL1        0.0424
     35 H          -4.4102   -1.9541   -0.9113 H       1  UNL1        0.0424
     36 H          -4.9970   -1.0865    1.8645 H       1  UNL1        0.1220
     37 H          -2.8399   -1.7513    2.3426 H       1  UNL1        0.0442
     38 H          -2.6466   -2.4870    0.7152 H       1  UNL1        0.0442
     39 H           1.3619   -1.7043    0.2904 H       1  UNL1        0.0636
     40 H           3.2290   -3.5550    0.1499 H       1  UNL1        0.0629
     41 H           5.4088   -4.8524   -0.1005 H       1  UNL1        0.0623
     42 H           7.5455   -3.3363   -0.6237 H       1  UNL1        0.0693
@<TRIPOS>BOND
     1     1     2   am
     2     2     3    2
     3     2     4    1
     4     4     5   ar
     5     5     6   ar
     6     6     7   ar
     7     7     8    1
     8     8     9    1
     9     9    10    1
    10    10    11    1
    11    11    12    1
    12    12    13    1
    13    13    14    1
    14     7    15   ar
    15    15    16   ar
    16    16    17   ar
    17    17    18    1
    18    18    19   ar
    19    19    20   ar
    20    20    21   ar
    21    21    22   ar
    22    17    23   ar
    23    23    24   ar
    24    24     4   ar
    25    14     9    1
    26    24    15   ar
    27    22    18   ar
    28     1    25    1
    29     1    26    1
    30     5    27    1
    31     8    28    1
    32     9    29    1
    33    10    30    1
    34    10    31    1
    35    11    32    1
    36    11    33    1
    37    12    34    1
    38    12    35    1
    39    13    36    1
    40    14    37    1
    41    14    38    1
    42    16    39    1
    43    19    40    1
    44    20    41    1
    45    21    42    1
