
     RDKit          3D

 42 45  0  0  0  0  0  0  0  0999 V2000
    1.4936    5.3260   -0.4325 N   0  0  0  0  0  0  0  0  0  0  0  0
    2.0651    4.0245   -0.4025 C   0  0  0  0  0  0  0  0  0  0  0  0
    3.3057    3.9594   -0.6121 O   0  0  0  0  0  0  0  0  0  0  0  0
    1.2518    2.8511   -0.1441 C   0  0  0  0  0  0  0  0  0  0  0  0
   -0.1130    2.9926    0.0795 C   0  0  0  0  0  0  0  0  0  0  0  0
   -0.7593    1.8432    0.3065 N   0  0  0  0  0  0  0  0  0  0  0  0
   -0.2320    0.6342    0.3351 C   0  0  0  0  0  0  0  0  0  0  0  0
   -1.0930   -0.4869    0.5966 N   0  0  0  0  0  0  0  0  0  0  0  0
   -2.4913   -0.3215    0.8208 C   0  0  1  0  0  0  0  0  0  0  0  0
   -3.1754    0.2888   -0.3578 C   0  0  0  0  0  0  0  0  0  0  0  0
   -4.6571    0.1021   -0.4007 C   0  0  0  0  0  0  0  0  0  0  0  0
   -4.9768   -1.3615   -0.1920 C   0  0  0  0  0  0  0  0  0  0  0  0
   -4.5212   -1.6865    1.1527 N   0  0  0  0  0  0  0  0  0  0  0  0
   -3.0969   -1.6308    1.2727 C   0  0  0  0  0  0  0  0  0  0  0  0
    1.1498    0.4283    0.1150 C   0  0  0  0  0  0  0  0  0  0  0  0
    1.8775   -0.7038    0.1010 C   0  0  0  0  0  0  0  0  0  0  0  0
    3.1771   -0.7234   -0.1233 C   0  0  0  0  0  0  0  0  0  0  0  0
    4.2142   -1.7120   -0.2054 C   0  0  0  0  0  0  0  0  0  0  0  0
    4.2066   -3.0455   -0.0712 C   0  0  0  0  0  0  0  0  0  0  0  0
    5.3482   -3.7310   -0.2017 C   0  0  0  0  0  0  0  0  0  0  0  0
    6.5044   -3.0596   -0.4700 C   0  0  0  0  0  0  0  0  0  0  0  0
    5.8750   -1.3359   -0.5321 S   0  0  0  0  0  0  0  0  0  0  0  0
    3.5356    1.0874   -0.3661 S   0  0  0  0  0  0  0  0  0  0  0  0
    1.8347    1.6087   -0.1218 C   0  0  0  0  0  0  0  0  0  0  0  0
    1.8967    6.0822    0.1575 H   0  0  0  0  0  0  0  0  0  0  0  0
    0.6780    5.5350   -1.0354 H   0  0  0  0  0  0  0  0  0  0  0  0
   -0.6265    3.9244    0.0761 H   0  0  0  0  0  0  0  0  0  0  0  0
   -0.6790   -1.4478    0.6220 H   0  0  0  0  0  0  0  0  0  0  0  0
   -2.6008    0.4182    1.6661 H   0  0  0  0  0  0  0  0  0  0  0  0
   -2.7697   -0.1180   -1.3296 H   0  0  0  0  0  0  0  0  0  0  0  0
   -2.9948    1.4024   -0.3397 H   0  0  0  0  0  0  0  0  0  0  0  0
   -5.1970    0.7125    0.3515 H   0  0  0  0  0  0  0  0  0  0  0  0
   -5.0133    0.4163   -1.3975 H   0  0  0  0  0  0  0  0  0  0  0  0
   -6.0686   -1.5459   -0.2022 H   0  0  0  0  0  0  0  0  0  0  0  0
   -4.4102   -1.9541   -0.9113 H   0  0  0  0  0  0  0  0  0  0  0  0
   -4.9970   -1.0865    1.8645 H   0  0  0  0  0  0  0  0  0  0  0  0
   -2.8399   -1.7513    2.3426 H   0  0  0  0  0  0  0  0  0  0  0  0
   -2.6466   -2.4870    0.7152 H   0  0  0  0  0  0  0  0  0  0  0  0
    1.3619   -1.7043    0.2904 H   0  0  0  0  0  0  0  0  0  0  0  0
    3.2290   -3.5550    0.1499 H   0  0  0  0  0  0  0  0  0  0  0  0
    5.4088   -4.8524   -0.1005 H   0  0  0  0  0  0  0  0  0  0  0  0
    7.5455   -3.3363   -0.6237 H   0  0  0  0  0  0  0  0  0  0  0  0
  1  2  1  0
  2  3  2  0
  2  4  1  0
  4  5  2  0
  5  6  1  0
  6  7  2  0
  7  8  1  0
  8  9  1  0
  9 10  1  0
 10 11  1  0
 11 12  1  0
 12 13  1  0
 13 14  1  0
  7 15  1  0
 15 16  1  0
 16 17  2  0
 17 18  1  0
 18 19  2  0
 19 20  1  0
 20 21  2  0
 21 22  1  0
 17 23  1  0
 23 24  1  0
 24  4  1  0
 14  9  1  0
 24 15  2  0
 22 18  1  0
  1 25  1  0
  1 26  1  0
  5 27  1  0
  8 28  1  0
  9 29  1  1
 10 30  1  0
 10 31  1  0
 11 32  1  0
 11 33  1  0
 12 34  1  0
 12 35  1  0
 13 36  1  0
 14 37  1  0
 14 38  1  0
 16 39  1  0
 19 40  1  0
 20 41  1  0
 21 42  1  0
M  END
$$$$
