@<TRIPOS>MOLECULE
*****
 51 55 0 0 0
SMALL
GASTEIGER

@<TRIPOS>ATOM
      1 C          -6.5126    0.4448    2.0001 C.3     1  UNL1       -0.0427
      2 C          -6.1376    1.0378    0.6704 C.3     1  UNL1        0.0479
      3 C          -7.3385    1.3416   -0.1914 C.3     1  UNL1        0.0325
      4 N          -7.8825    0.0990   -0.7027 N.am    1  UNL1       -0.3082
      5 C          -6.9778   -0.7445   -1.4060 C.2     1  UNL1        0.2606
      6 O          -7.3462   -1.5262   -2.3141 O.2     1  UNL1       -0.2686
      7 C          -5.5524   -0.6651   -1.0190 C.ar    1  UNL1        0.1057
      8 C          -4.4557   -1.3411   -1.5072 C.ar    1  UNL1       -0.0239
      9 C          -3.3441   -0.8866   -0.7905 C.ar    1  UNL1        0.0024
     10 C          -2.0080   -1.1895   -0.8320 C.ar    1  UNL1       -0.0313
     11 C          -1.0956   -0.5633    0.0254 C.ar    1  UNL1        0.0344
     12 N           0.2483   -0.9277   -0.0797 N.am    1  UNL1       -0.2814
     13 C           1.3364   -0.4416    0.6656 C.2     1  UNL1        0.2512
     14 O           1.1288    0.4277    1.5462 O.2     1  UNL1       -0.2697
     15 C           2.7106   -0.9377    0.4269 C.ar    1  UNL1        0.0744
     16 C           3.0713   -1.8779   -0.4970 C.ar    1  UNL1        0.0615
     17 N           4.4195   -2.0510   -0.3979 N.ar    1  UNL1       -0.1786
     18 N           4.9127   -1.2510    0.5563 N.ar    1  UNL1       -0.2664
     19 C           6.3130   -1.1736    0.9327 C.3     1  UNL1        0.0665
     20 C           6.9476   -0.1414    0.1014 C.ar    1  UNL1       -0.0261
     21 C           6.9795    1.1571    0.5274 C.ar    1  UNL1       -0.0568
     22 C           7.5797    2.1364   -0.2577 C.ar    1  UNL1       -0.0614
     23 C           8.1326    1.7740   -1.4553 C.ar    1  UNL1       -0.0617
     24 C           8.1103    0.4815   -1.8975 C.ar    1  UNL1       -0.0614
     25 C           7.5076   -0.4765   -1.0998 C.ar    1  UNL1       -0.0568
     26 C           3.8619   -0.5673    1.0624 C.ar    1  UNL1        0.0380
     27 C          -1.6276    0.3571    0.8923 C.ar    1  UNL1       -0.0385
     28 C          -2.9682    0.6614    0.9342 C.ar    1  UNL1       -0.0358
     29 C          -3.8467    0.0423    0.0914 C.ar    1  UNL1        0.0500
     30 N          -5.1950    0.1782   -0.0473 N.ar    1  UNL1       -0.3319
     31 H          -5.6163    0.0621    2.4932 H       1  UNL1        0.0250
     32 H          -6.9105    1.2674    2.6545 H       1  UNL1        0.0250
     33 H          -7.3213   -0.3122    1.9134 H       1  UNL1        0.0250
     34 H          -5.6594    2.0362    0.8917 H       1  UNL1        0.0541
     35 H          -8.0757    1.8710    0.4296 H       1  UNL1        0.0482
     36 H          -7.0020    1.9670   -1.0442 H       1  UNL1        0.0482
     37 H          -8.8663   -0.2100   -0.5932 H       1  UNL1        0.1491
     38 H          -4.3901   -2.0866   -2.2860 H       1  UNL1        0.0646
     39 H          -1.6440   -1.9239   -1.5362 H       1  UNL1        0.0643
     40 H           0.5202   -1.6679   -0.8096 H       1  UNL1        0.1551
     41 H           2.4093   -2.3867   -1.1769 H       1  UNL1        0.0855
     42 H           6.3212   -0.8819    2.0202 H       1  UNL1        0.0558
     43 H           6.8226   -2.1600    0.7977 H       1  UNL1        0.0558
     44 H           6.5451    1.4701    1.4790 H       1  UNL1        0.0621
     45 H           7.5826    3.1566    0.1197 H       1  UNL1        0.0618
     46 H           8.5901    2.5803   -2.0312 H       1  UNL1        0.0618
     47 H           8.5559    0.2186   -2.8519 H       1  UNL1        0.0618
     48 H           7.5093   -1.5030   -1.4882 H       1  UNL1        0.0621
     49 H           3.9595    0.1569    1.8529 H       1  UNL1        0.0834
     50 H          -0.9659    0.8833    1.5906 H       1  UNL1        0.0637
     51 H          -3.3356    1.3955    1.6374 H       1  UNL1        0.0639
@<TRIPOS>BOND
     1     1     2    1
     2     2     3    1
     3     3     4    1
     4     4     5   am
     5     5     6    2
     6     5     7    1
     7     7     8   ar
     8     8     9   ar
     9     9    10   ar
    10    10    11   ar
    11    11    12    1
    12    12    13   am
    13    13    14    2
    14    13    15    1
    15    15    16   ar
    16    16    17   ar
    17    17    18   ar
    18    18    19    1
    19    19    20    1
    20    20    21   ar
    21    21    22   ar
    22    22    23   ar
    23    23    24   ar
    24    24    25   ar
    25    18    26   ar
    26    11    27   ar
    27    27    28   ar
    28    28    29   ar
    29    29    30   ar
    30    30     2    1
    31    30     7   ar
    32    29     9   ar
    33    26    15   ar
    34    25    20   ar
    35     1    31    1
    36     1    32    1
    37     1    33    1
    38     2    34    1
    39     3    35    1
    40     3    36    1
    41     4    37    1
    42     8    38    1
    43    10    39    1
    44    12    40    1
    45    16    41    1
    46    19    42    1
    47    19    43    1
    48    21    44    1
    49    22    45    1
    50    23    46    1
    51    24    47    1
    52    25    48    1
    53    26    49    1
    54    27    50    1
    55    28    51    1
