
     RDKit          3D

 51 55  0  0  0  0  0  0  0  0999 V2000
   -6.5126    0.4448    2.0001 C   0  0  0  0  0  0  0  0  0  0  0  0
   -6.1376    1.0378    0.6704 C   0  0  2  0  0  0  0  0  0  0  0  0
   -7.3385    1.3416   -0.1914 C   0  0  0  0  0  0  0  0  0  0  0  0
   -7.8825    0.0990   -0.7027 N   0  0  0  0  0  0  0  0  0  0  0  0
   -6.9778   -0.7445   -1.4060 C   0  0  0  0  0  0  0  0  0  0  0  0
   -7.3462   -1.5262   -2.3141 O   0  0  0  0  0  0  0  0  0  0  0  0
   -5.5524   -0.6651   -1.0190 C   0  0  0  0  0  0  0  0  0  0  0  0
   -4.4557   -1.3411   -1.5072 C   0  0  0  0  0  0  0  0  0  0  0  0
   -3.3441   -0.8866   -0.7905 C   0  0  0  0  0  0  0  0  0  0  0  0
   -2.0080   -1.1895   -0.8320 C   0  0  0  0  0  0  0  0  0  0  0  0
   -1.0956   -0.5633    0.0254 C   0  0  0  0  0  0  0  0  0  0  0  0
    0.2483   -0.9277   -0.0797 N   0  0  0  0  0  0  0  0  0  0  0  0
    1.3364   -0.4416    0.6656 C   0  0  0  0  0  0  0  0  0  0  0  0
    1.1288    0.4277    1.5462 O   0  0  0  0  0  0  0  0  0  0  0  0
    2.7106   -0.9377    0.4269 C   0  0  0  0  0  0  0  0  0  0  0  0
    3.0713   -1.8779   -0.4970 C   0  0  0  0  0  0  0  0  0  0  0  0
    4.4195   -2.0510   -0.3979 N   0  0  0  0  0  0  0  0  0  0  0  0
    4.9127   -1.2510    0.5563 N   0  0  0  0  0  0  0  0  0  0  0  0
    6.3130   -1.1736    0.9327 C   0  0  0  0  0  0  0  0  0  0  0  0
    6.9476   -0.1414    0.1014 C   0  0  0  0  0  0  0  0  0  0  0  0
    6.9795    1.1571    0.5274 C   0  0  0  0  0  0  0  0  0  0  0  0
    7.5797    2.1364   -0.2577 C   0  0  0  0  0  0  0  0  0  0  0  0
    8.1326    1.7740   -1.4553 C   0  0  0  0  0  0  0  0  0  0  0  0
    8.1103    0.4815   -1.8975 C   0  0  0  0  0  0  0  0  0  0  0  0
    7.5076   -0.4765   -1.0998 C   0  0  0  0  0  0  0  0  0  0  0  0
    3.8619   -0.5673    1.0624 C   0  0  0  0  0  0  0  0  0  0  0  0
   -1.6276    0.3571    0.8923 C   0  0  0  0  0  0  0  0  0  0  0  0
   -2.9682    0.6614    0.9342 C   0  0  0  0  0  0  0  0  0  0  0  0
   -3.8467    0.0423    0.0914 C   0  0  0  0  0  0  0  0  0  0  0  0
   -5.1950    0.1782   -0.0473 N   0  0  0  0  0  0  0  0  0  0  0  0
   -5.6163    0.0621    2.4932 H   0  0  0  0  0  0  0  0  0  0  0  0
   -6.9105    1.2674    2.6545 H   0  0  0  0  0  0  0  0  0  0  0  0
   -7.3213   -0.3122    1.9134 H   0  0  0  0  0  0  0  0  0  0  0  0
   -5.6594    2.0362    0.8917 H   0  0  0  0  0  0  0  0  0  0  0  0
   -8.0757    1.8710    0.4296 H   0  0  0  0  0  0  0  0  0  0  0  0
   -7.0020    1.9670   -1.0442 H   0  0  0  0  0  0  0  0  0  0  0  0
   -8.8663   -0.2100   -0.5932 H   0  0  0  0  0  0  0  0  0  0  0  0
   -4.3901   -2.0866   -2.2860 H   0  0  0  0  0  0  0  0  0  0  0  0
   -1.6440   -1.9239   -1.5362 H   0  0  0  0  0  0  0  0  0  0  0  0
    0.5202   -1.6679   -0.8096 H   0  0  0  0  0  0  0  0  0  0  0  0
    2.4093   -2.3867   -1.1769 H   0  0  0  0  0  0  0  0  0  0  0  0
    6.3212   -0.8819    2.0202 H   0  0  0  0  0  0  0  0  0  0  0  0
    6.8226   -2.1600    0.7977 H   0  0  0  0  0  0  0  0  0  0  0  0
    6.5451    1.4701    1.4790 H   0  0  0  0  0  0  0  0  0  0  0  0
    7.5826    3.1566    0.1197 H   0  0  0  0  0  0  0  0  0  0  0  0
    8.5901    2.5803   -2.0312 H   0  0  0  0  0  0  0  0  0  0  0  0
    8.5559    0.2186   -2.8519 H   0  0  0  0  0  0  0  0  0  0  0  0
    7.5093   -1.5030   -1.4882 H   0  0  0  0  0  0  0  0  0  0  0  0
    3.9595    0.1569    1.8529 H   0  0  0  0  0  0  0  0  0  0  0  0
   -0.9659    0.8833    1.5906 H   0  0  0  0  0  0  0  0  0  0  0  0
   -3.3356    1.3955    1.6374 H   0  0  0  0  0  0  0  0  0  0  0  0
  1  2  1  0
  2  3  1  0
  3  4  1  0
  4  5  1  0
  5  6  2  0
  5  7  1  0
  7  8  2  0
  8  9  1  0
  9 10  2  0
 10 11  1  0
 11 12  1  0
 12 13  1  0
 13 14  2  0
 13 15  1  0
 15 16  1  0
 16 17  2  0
 17 18  1  0
 18 19  1  0
 19 20  1  0
 20 21  2  0
 21 22  1  0
 22 23  2  0
 23 24  1  0
 24 25  2  0
 18 26  1  0
 11 27  2  0
 27 28  1  0
 28 29  2  0
 29 30  1  0
 30  2  1  0
 30  7  1  0
 29  9  1  0
 26 15  2  0
 25 20  1  0
  1 31  1  0
  1 32  1  0
  1 33  1  0
  2 34  1  1
  3 35  1  0
  3 36  1  0
  4 37  1  0
  8 38  1  0
 10 39  1  0
 12 40  1  0
 16 41  1  0
 19 42  1  0
 19 43  1  0
 21 44  1  0
 22 45  1  0
 23 46  1  0
 24 47  1  0
 25 48  1  0
 26 49  1  0
 27 50  1  0
 28 51  1  0
M  END
$$$$
