@<TRIPOS>MOLECULE
*****
 54 57 0 0 0
SMALL
GASTEIGER

@<TRIPOS>ATOM
      1 C          -0.3258   -2.0953    0.4588 C.3     1  UNL1        0.0524
      2 C           1.0869   -1.7508    0.2302 C.2     1  UNL1        0.2303
      3 O           1.8776   -2.7105    0.0029 O.2     1  UNL1       -0.2745
      4 N           1.2399   -0.3197    0.3255 N.am    1  UNL1       -0.2099
      5 C          -0.0570    0.2533    0.4169 C.2     1  UNL1        0.2321
      6 O          -0.1665    1.4715    0.0987 O.2     1  UNL1       -0.2744
      7 C          -0.9813   -0.7969    0.8885 C.3     1  UNL1        0.0691
      8 C          -2.3349   -0.7683    0.2258 C.3     1  UNL1        0.0495
      9 C          -2.9344   -2.1504    0.4131 C.3     1  UNL1       -0.0305
     10 C          -2.2708   -3.1473   -0.5141 C.3     1  UNL1       -0.0475
     11 C          -0.9062   -2.5626   -0.8622 C.3     1  UNL1       -0.0290
     12 C          -1.0605   -1.3808   -1.8009 C.3     1  UNL1       -0.0475
     13 C          -2.1643   -0.5054   -1.2445 C.3     1  UNL1       -0.0305
     14 N          -3.2126    0.2203    0.8191 N.am    1  UNL1       -0.2748
     15 C          -4.5051    0.3547    0.2993 C.2     1  UNL1        0.4012
     16 O          -5.0168   -0.2917   -0.6443 O.2     1  UNL1       -0.2265
     17 O          -5.4726    1.2250    0.7219 O.3     1  UNL1       -0.4389
     18 C          -6.7357    1.2306    0.0813 C.3     1  UNL1        0.1901
     19 C          -7.6553    2.2223    0.6565 C.2     1  UNL1        0.3429
     20 O          -8.9230    2.3090    0.0990 O.3     1  UNL1       -0.4783
     21 O          -7.3596    2.9931    1.6208 O.2     1  UNL1       -0.2472
     22 C           2.5845    0.1472    0.3057 C.ar    1  UNL1        0.0440
     23 C           3.2562    0.2785    1.5043 C.ar    1  UNL1       -0.0381
     24 C           4.5592    0.7242    1.5639 C.ar    1  UNL1       -0.0387
     25 C           5.2589    1.0621    0.4274 C.ar    1  UNL1        0.0335
     26 N           6.5925    1.5115    0.5702 N.am    1  UNL1       -0.2857
     27 C           7.5193    1.9155   -0.4197 C.2     1  UNL1        0.2141
     28 C           8.9029    2.3707   -0.1399 C.3     1  UNL1        0.0125
     29 O           7.1727    1.8969   -1.6223 O.2     1  UNL1       -0.2758
     30 C           4.5669    0.9219   -0.7492 C.ar    1  UNL1       -0.0387
     31 C           3.2640    0.4796   -0.8492 C.ar    1  UNL1       -0.0381
     32 H          -0.4497   -2.8749    1.2353 H       1  UNL1        0.0405
     33 H          -1.0798   -0.7957    1.9866 H       1  UNL1        0.0423
     34 H          -4.0119   -2.1987    0.2596 H       1  UNL1        0.0286
     35 H          -2.7595   -2.4265    1.4930 H       1  UNL1        0.0286
     36 H          -2.0543   -4.0636    0.0736 H       1  UNL1        0.0269
     37 H          -2.8712   -3.3713   -1.4038 H       1  UNL1        0.0269
     38 H          -0.2366   -3.2679   -1.3520 H       1  UNL1        0.0308
     39 H          -0.1113   -0.8098   -1.8064 H       1  UNL1        0.0269
     40 H          -1.3059   -1.7372   -2.8148 H       1  UNL1        0.0269
     41 H          -1.9133    0.5787   -1.3388 H       1  UNL1        0.0286
     42 H          -3.0555   -0.6889   -1.8524 H       1  UNL1        0.0286
     43 H          -3.0572    0.9004    1.6157 H       1  UNL1        0.1526
     44 H          -7.1699    0.1983    0.0818 H       1  UNL1        0.0817
     45 H          -6.4966    1.4224   -1.0059 H       1  UNL1        0.0817
     46 H          -9.7186    2.7032    0.5866 H       1  UNL1        0.2952
     47 H           2.7858    0.0364    2.4449 H       1  UNL1        0.0637
     48 H           5.0516    0.8118    2.5454 H       1  UNL1        0.0637
     49 H           7.0151    1.5775    1.5219 H       1  UNL1        0.1548
     50 H           9.6211    1.9193   -0.8772 H       1  UNL1        0.0323
     51 H           9.0122    3.4645   -0.0617 H       1  UNL1        0.0323
     52 H           9.2149    1.9682    0.8486 H       1  UNL1        0.0323
     53 H           5.0293    1.1595   -1.6704 H       1  UNL1        0.0637
     54 H           2.7617    0.3858   -1.7984 H       1  UNL1        0.0637
@<TRIPOS>BOND
     1     1     2    1
     2     2     3    2
     3     2     4   am
     4     4     5   am
     5     5     6    2
     6     5     7    1
     7     7     8    1
     8     8     9    1
     9     9    10    1
    10    10    11    1
    11    11    12    1
    12    12    13    1
    13     8    14    1
    14    14    15   am
    15    15    16    2
    16    15    17    1
    17    17    18    1
    18    18    19    1
    19    19    20    1
    20    19    21    2
    21     4    22    1
    22    22    23   ar
    23    23    24   ar
    24    24    25   ar
    25    25    26    1
    26    26    27   am
    27    27    28    1
    28    27    29    2
    29    25    30   ar
    30    30    31   ar
    31     7     1    1
    32    13     8    1
    33    31    22   ar
    34    11     1    1
    35     1    32    1
    36     7    33    1
    37     9    34    1
    38     9    35    1
    39    10    36    1
    40    10    37    1
    41    11    38    1
    42    12    39    1
    43    12    40    1
    44    13    41    1
    45    13    42    1
    46    14    43    1
    47    18    44    1
    48    18    45    1
    49    20    46    1
    50    23    47    1
    51    24    48    1
    52    26    49    1
    53    28    50    1
    54    28    51    1
    55    28    52    1
    56    30    53    1
    57    31    54    1
