@<TRIPOS>MOLECULE
*****
 61 63 0 0 0
SMALL
GASTEIGER

@<TRIPOS>ATOM
      1 C          -9.1977   -1.9864   -1.9558 C.3     1  UNL1        0.0788
      2 O          -8.2413   -2.2553   -0.9715 O.3     1  UNL1       -0.4948
      3 C          -7.3424   -1.2914   -0.5017 C.ar    1  UNL1        0.1230
      4 C          -7.3427   -0.0008   -0.9849 C.ar    1  UNL1       -0.0190
      5 C          -6.4372    0.9240   -0.4945 C.ar    1  UNL1       -0.0462
      6 C          -5.5084    0.6170    0.4782 C.ar    1  UNL1        0.0372
      7 C          -4.5686    1.6474    0.9628 C.2     1  UNL1        0.2443
      8 O          -4.6540    2.7975    0.4697 O.2     1  UNL1       -0.2702
      9 N          -3.5909    1.4008    1.9428 N.am    1  UNL1       -0.3072
     10 C          -2.6917    2.4284    2.3851 C.3     1  UNL1        0.0372
     11 C          -1.5791    2.6735    1.4322 C.ar    1  UNL1       -0.0296
     12 C          -1.6234    3.6669    0.5081 C.ar    1  UNL1       -0.0570
     13 C          -0.5735    3.8504   -0.3706 C.ar    1  UNL1       -0.0607
     14 C           0.5306    3.0331   -0.3238 C.ar    1  UNL1       -0.0496
     15 C           0.6097    2.0165    0.6002 C.ar    1  UNL1        0.0373
     16 C           1.7694    1.1278    0.6782 C.2     1  UNL1        0.2483
     17 O           1.7899    0.2218    1.5463 O.2     1  UNL1       -0.2699
     18 N           2.8733    1.2542   -0.1939 N.am    1  UNL1       -0.2815
     19 C           4.0098    0.3652   -0.0995 C.ar    1  UNL1        0.0337
     20 C           3.9883   -0.8061   -0.8436 C.ar    1  UNL1       -0.0402
     21 C           5.0546   -1.6808   -0.7837 C.ar    1  UNL1       -0.0556
     22 C           6.1356   -1.3830    0.0170 C.ar    1  UNL1       -0.0333
     23 C           7.2940   -2.2720    0.1134 C.3     1  UNL1        0.0235
     24 N           8.3550   -2.0117   -0.8065 N.3     1  UNL1       -0.3042
     25 C           8.0209   -2.0953   -2.1912 C.3     1  UNL1       -0.0127
     26 C           9.0845   -0.7845   -0.4969 C.3     1  UNL1       -0.0127
     27 C           6.1545   -0.2112    0.7601 C.ar    1  UNL1       -0.0556
     28 C           5.0879    0.6659    0.7016 C.ar    1  UNL1       -0.0402
     29 C          -0.4560    1.8692    1.4541 C.ar    1  UNL1       -0.0449
     30 C          -5.5046   -0.6681    0.9625 C.ar    1  UNL1       -0.0433
     31 C          -6.4207   -1.6071    0.4676 C.ar    1  UNL1       -0.0081
     32 C          -6.3899   -2.9871    1.0135 C.3     1  UNL1       -0.0362
     33 H          -8.8231   -1.3831   -2.8026 H       1  UNL1        0.0660
     34 H          -9.6463   -2.9552   -2.2700 H       1  UNL1        0.0660
     35 H         -10.0484   -1.4322   -1.4607 H       1  UNL1        0.0660
     36 H          -8.0499    0.2609   -1.7354 H       1  UNL1        0.0654
     37 H          -6.4295    1.9593   -0.8744 H       1  UNL1        0.0626
     38 H          -3.5036    0.4297    2.3767 H       1  UNL1        0.1493
     39 H          -3.2636    3.3893    2.5163 H       1  UNL1        0.0512
     40 H          -2.2772    2.1453    3.3776 H       1  UNL1        0.0512
     41 H          -2.4885    4.3395    0.4615 H       1  UNL1        0.0621
     42 H          -0.6173    4.6359   -1.0966 H       1  UNL1        0.0618
     43 H           1.3512    3.1980   -1.0304 H       1  UNL1        0.0625
     44 H           2.9207    1.9858   -0.9383 H       1  UNL1        0.1551
     45 H           3.1277   -1.0223   -1.4684 H       1  UNL1        0.0636
     46 H           4.9974   -2.5892   -1.3802 H       1  UNL1        0.0621
     47 H           7.7369   -2.2380    1.1447 H       1  UNL1        0.0475
     48 H           6.9979   -3.3507   -0.0298 H       1  UNL1        0.0475
     49 H           8.6520   -1.3208   -2.7214 H       1  UNL1        0.0391
     50 H           8.3024   -3.1059   -2.6090 H       1  UNL1        0.0391
     51 H           6.9933   -1.8668   -2.4641 H       1  UNL1        0.0391
     52 H          10.0785   -0.8074   -0.9921 H       1  UNL1        0.0391
     53 H           9.1694   -0.6504    0.5969 H       1  UNL1        0.0391
     54 H           8.4564    0.0610   -0.8629 H       1  UNL1        0.0391
     55 H           6.9988    0.0373    1.3955 H       1  UNL1        0.0621
     56 H           5.0736    1.5938    1.2739 H       1  UNL1        0.0636
     57 H          -0.3850    1.0623    2.1814 H       1  UNL1        0.0628
     58 H          -4.7932   -0.9529    1.7257 H       1  UNL1        0.0629
     59 H          -6.8940   -3.7051    0.3671 H       1  UNL1        0.0279
     60 H          -5.3330   -3.2798    1.2144 H       1  UNL1        0.0279
     61 H          -6.9393   -2.9569    1.9755 H       1  UNL1        0.0279
@<TRIPOS>BOND
     1     1     2    1
     2     2     3    1
     3     3     4   ar
     4     4     5   ar
     5     5     6   ar
     6     6     7    1
     7     7     8    2
     8     7     9   am
     9     9    10    1
    10    10    11    1
    11    11    12   ar
    12    12    13   ar
    13    13    14   ar
    14    14    15   ar
    15    15    16    1
    16    16    17    2
    17    16    18   am
    18    18    19    1
    19    19    20   ar
    20    20    21   ar
    21    21    22   ar
    22    22    23    1
    23    23    24    1
    24    24    25    1
    25    24    26    1
    26    22    27   ar
    27    27    28   ar
    28    15    29   ar
    29     6    30   ar
    30    30    31   ar
    31    31    32    1
    32    31     3   ar
    33    29    11   ar
    34    28    19   ar
    35     1    33    1
    36     1    34    1
    37     1    35    1
    38     4    36    1
    39     5    37    1
    40     9    38    1
    41    10    39    1
    42    10    40    1
    43    12    41    1
    44    13    42    1
    45    14    43    1
    46    18    44    1
    47    20    45    1
    48    21    46    1
    49    23    47    1
    50    23    48    1
    51    25    49    1
    52    25    50    1
    53    25    51    1
    54    26    52    1
    55    26    53    1
    56    26    54    1
    57    27    55    1
    58    28    56    1
    59    29    57    1
    60    30    58    1
    61    32    59    1
    62    32    60    1
    63    32    61    1
