
     RDKit          3D

 61 63  0  0  0  0  0  0  0  0999 V2000
   -9.1977   -1.9864   -1.9558 C   0  0  0  0  0  0  0  0  0  0  0  0
   -8.2413   -2.2553   -0.9715 O   0  0  0  0  0  0  0  0  0  0  0  0
   -7.3424   -1.2914   -0.5017 C   0  0  0  0  0  0  0  0  0  0  0  0
   -7.3427   -0.0008   -0.9849 C   0  0  0  0  0  0  0  0  0  0  0  0
   -6.4372    0.9240   -0.4945 C   0  0  0  0  0  0  0  0  0  0  0  0
   -5.5084    0.6170    0.4782 C   0  0  0  0  0  0  0  0  0  0  0  0
   -4.5686    1.6474    0.9628 C   0  0  0  0  0  0  0  0  0  0  0  0
   -4.6540    2.7975    0.4697 O   0  0  0  0  0  0  0  0  0  0  0  0
   -3.5909    1.4008    1.9428 N   0  0  0  0  0  0  0  0  0  0  0  0
   -2.6917    2.4284    2.3851 C   0  0  0  0  0  0  0  0  0  0  0  0
   -1.5791    2.6735    1.4322 C   0  0  0  0  0  0  0  0  0  0  0  0
   -1.6234    3.6669    0.5081 C   0  0  0  0  0  0  0  0  0  0  0  0
   -0.5735    3.8504   -0.3706 C   0  0  0  0  0  0  0  0  0  0  0  0
    0.5306    3.0331   -0.3238 C   0  0  0  0  0  0  0  0  0  0  0  0
    0.6097    2.0165    0.6002 C   0  0  0  0  0  0  0  0  0  0  0  0
    1.7694    1.1278    0.6782 C   0  0  0  0  0  0  0  0  0  0  0  0
    1.7899    0.2218    1.5463 O   0  0  0  0  0  0  0  0  0  0  0  0
    2.8733    1.2542   -0.1939 N   0  0  0  0  0  0  0  0  0  0  0  0
    4.0098    0.3652   -0.0995 C   0  0  0  0  0  0  0  0  0  0  0  0
    3.9883   -0.8061   -0.8436 C   0  0  0  0  0  0  0  0  0  0  0  0
    5.0546   -1.6808   -0.7837 C   0  0  0  0  0  0  0  0  0  0  0  0
    6.1356   -1.3830    0.0170 C   0  0  0  0  0  0  0  0  0  0  0  0
    7.2940   -2.2720    0.1134 C   0  0  0  0  0  0  0  0  0  0  0  0
    8.3550   -2.0117   -0.8065 N   0  0  0  0  0  0  0  0  0  0  0  0
    8.0209   -2.0953   -2.1912 C   0  0  0  0  0  0  0  0  0  0  0  0
    9.0845   -0.7845   -0.4969 C   0  0  0  0  0  0  0  0  0  0  0  0
    6.1545   -0.2112    0.7601 C   0  0  0  0  0  0  0  0  0  0  0  0
    5.0879    0.6659    0.7016 C   0  0  0  0  0  0  0  0  0  0  0  0
   -0.4560    1.8692    1.4541 C   0  0  0  0  0  0  0  0  0  0  0  0
   -5.5046   -0.6681    0.9625 C   0  0  0  0  0  0  0  0  0  0  0  0
   -6.4207   -1.6071    0.4676 C   0  0  0  0  0  0  0  0  0  0  0  0
   -6.3899   -2.9871    1.0135 C   0  0  0  0  0  0  0  0  0  0  0  0
   -8.8231   -1.3831   -2.8026 H   0  0  0  0  0  0  0  0  0  0  0  0
   -9.6463   -2.9552   -2.2700 H   0  0  0  0  0  0  0  0  0  0  0  0
  -10.0484   -1.4322   -1.4607 H   0  0  0  0  0  0  0  0  0  0  0  0
   -8.0499    0.2609   -1.7354 H   0  0  0  0  0  0  0  0  0  0  0  0
   -6.4295    1.9593   -0.8744 H   0  0  0  0  0  0  0  0  0  0  0  0
   -3.5036    0.4297    2.3767 H   0  0  0  0  0  0  0  0  0  0  0  0
   -3.2636    3.3893    2.5163 H   0  0  0  0  0  0  0  0  0  0  0  0
   -2.2772    2.1453    3.3776 H   0  0  0  0  0  0  0  0  0  0  0  0
   -2.4885    4.3395    0.4615 H   0  0  0  0  0  0  0  0  0  0  0  0
   -0.6173    4.6359   -1.0966 H   0  0  0  0  0  0  0  0  0  0  0  0
    1.3512    3.1980   -1.0304 H   0  0  0  0  0  0  0  0  0  0  0  0
    2.9207    1.9858   -0.9383 H   0  0  0  0  0  0  0  0  0  0  0  0
    3.1277   -1.0223   -1.4684 H   0  0  0  0  0  0  0  0  0  0  0  0
    4.9974   -2.5892   -1.3802 H   0  0  0  0  0  0  0  0  0  0  0  0
    7.7369   -2.2380    1.1447 H   0  0  0  0  0  0  0  0  0  0  0  0
    6.9979   -3.3507   -0.0298 H   0  0  0  0  0  0  0  0  0  0  0  0
    8.6520   -1.3208   -2.7214 H   0  0  0  0  0  0  0  0  0  0  0  0
    8.3024   -3.1059   -2.6090 H   0  0  0  0  0  0  0  0  0  0  0  0
    6.9933   -1.8668   -2.4641 H   0  0  0  0  0  0  0  0  0  0  0  0
   10.0785   -0.8074   -0.9921 H   0  0  0  0  0  0  0  0  0  0  0  0
    9.1694   -0.6504    0.5969 H   0  0  0  0  0  0  0  0  0  0  0  0
    8.4564    0.0610   -0.8629 H   0  0  0  0  0  0  0  0  0  0  0  0
    6.9988    0.0373    1.3955 H   0  0  0  0  0  0  0  0  0  0  0  0
    5.0736    1.5938    1.2739 H   0  0  0  0  0  0  0  0  0  0  0  0
   -0.3850    1.0623    2.1814 H   0  0  0  0  0  0  0  0  0  0  0  0
   -4.7932   -0.9529    1.7257 H   0  0  0  0  0  0  0  0  0  0  0  0
   -6.8940   -3.7051    0.3671 H   0  0  0  0  0  0  0  0  0  0  0  0
   -5.3330   -3.2798    1.2144 H   0  0  0  0  0  0  0  0  0  0  0  0
   -6.9393   -2.9569    1.9755 H   0  0  0  0  0  0  0  0  0  0  0  0
  1  2  1  0
  2  3  1  0
  3  4  2  0
  4  5  1  0
  5  6  2  0
  6  7  1  0
  7  8  2  0
  7  9  1  0
  9 10  1  0
 10 11  1  0
 11 12  2  0
 12 13  1  0
 13 14  2  0
 14 15  1  0
 15 16  1  0
 16 17  2  0
 16 18  1  0
 18 19  1  0
 19 20  2  0
 20 21  1  0
 21 22  2  0
 22 23  1  0
 23 24  1  0
 24 25  1  0
 24 26  1  0
 22 27  1  0
 27 28  2  0
 15 29  2  0
  6 30  1  0
 30 31  2  0
 31 32  1  0
 31  3  1  0
 29 11  1  0
 28 19  1  0
  1 33  1  0
  1 34  1  0
  1 35  1  0
  4 36  1  0
  5 37  1  0
  9 38  1  0
 10 39  1  0
 10 40  1  0
 12 41  1  0
 13 42  1  0
 14 43  1  0
 18 44  1  0
 20 45  1  0
 21 46  1  0
 23 47  1  0
 23 48  1  0
 25 49  1  0
 25 50  1  0
 25 51  1  0
 26 52  1  0
 26 53  1  0
 26 54  1  0
 27 55  1  0
 28 56  1  0
 29 57  1  0
 30 58  1  0
 32 59  1  0
 32 60  1  0
 32 61  1  0
M  END
$$$$
