@<TRIPOS>MOLECULE
*****
 37 38 0 0 0
SMALL
GASTEIGER

@<TRIPOS>ATOM
      1 C          -5.1019    0.1705    0.9158 C.3     1  UNL1       -0.0641
      2 C          -3.7965    0.6308    0.3609 C.3     1  UNL1       -0.0431
      3 C          -2.6825   -0.4044    0.5592 C.3     1  UNL1       -0.0013
      4 N          -1.4962    0.1842   -0.0269 N.3     1  UNL1       -0.3018
      5 C          -1.6447    0.2725   -1.4499 C.3     1  UNL1       -0.0011
      6 C          -0.2673    0.2432   -2.0880 C.3     1  UNL1       -0.0396
      7 C           0.6439    1.1052   -1.2421 C.3     1  UNL1       -0.0439
      8 C           0.8356    0.5341    0.1180 C.3     1  UNL1       -0.0029
      9 C           2.1668   -0.0402    0.3789 C.ar    1  UNL1       -0.0396
     10 C           2.7159   -1.0100   -0.4305 C.ar    1  UNL1       -0.0580
     11 C           3.9653   -1.5278   -0.1479 C.ar    1  UNL1       -0.0580
     12 C           4.6765   -1.0758    0.9507 C.ar    1  UNL1       -0.0202
     13 C           4.1582   -0.1063    1.7821 C.ar    1  UNL1        0.1171
     14 O           4.8844    0.3473    2.8938 O.3     1  UNL1       -0.5068
     15 C           2.9105    0.3939    1.4793 C.ar    1  UNL1       -0.0167
     16 C          -0.2783   -0.4977    0.3640 C.3     1  UNL1        0.0057
     17 H          -5.9066    0.7589    0.4181 H       1  UNL1        0.0230
     18 H          -5.1585    0.3734    2.0024 H       1  UNL1        0.0230
     19 H          -5.3324   -0.8941    0.7316 H       1  UNL1        0.0230
     20 H          -3.4645    1.5373    0.8836 H       1  UNL1        0.0275
     21 H          -3.8911    0.7508   -0.7374 H       1  UNL1        0.0275
     22 H          -2.5353   -0.6200    1.6408 H       1  UNL1        0.0426
     23 H          -2.9482   -1.3183   -0.0082 H       1  UNL1        0.0426
     24 H          -2.1461    1.2321   -1.7288 H       1  UNL1        0.0426
     25 H          -2.1897   -0.6081   -1.8645 H       1  UNL1        0.0426
     26 H           0.0428   -0.8129   -2.1350 H       1  UNL1        0.0278
     27 H          -0.3227    0.6272   -3.1292 H       1  UNL1        0.0278
     28 H           1.5913    1.3562   -1.7612 H       1  UNL1        0.0272
     29 H           0.1013    2.0906   -1.1424 H       1  UNL1        0.0272
     30 H           0.6304    1.3280    0.8972 H       1  UNL1        0.0361
     31 H           2.2010   -1.3953   -1.2991 H       1  UNL1        0.0620
     32 H           4.3972   -2.2982   -0.7922 H       1  UNL1        0.0619
     33 H           5.6689   -1.4801    1.1834 H       1  UNL1        0.0654
     34 H           5.5082    1.1255    2.7157 H       1  UNL1        0.2921
     35 H           2.5006    1.1615    2.1391 H       1  UNL1        0.0657
     36 H          -0.3507   -0.7132    1.4319 H       1  UNL1        0.0432
     37 H          -0.0854   -1.4207   -0.1940 H       1  UNL1        0.0432
@<TRIPOS>BOND
     1     1     2    1
     2     2     3    1
     3     3     4    1
     4     4     5    1
     5     5     6    1
     6     6     7    1
     7     7     8    1
     8     8     9    1
     9     9    10   ar
    10    10    11   ar
    11    11    12   ar
    12    12    13   ar
    13    13    14    1
    14    13    15   ar
    15     8    16    1
    16    16     4    1
    17    15     9   ar
    18     1    17    1
    19     1    18    1
    20     1    19    1
    21     2    20    1
    22     2    21    1
    23     3    22    1
    24     3    23    1
    25     5    24    1
    26     5    25    1
    27     6    26    1
    28     6    27    1
    29     7    28    1
    30     7    29    1
    31     8    30    1
    32    10    31    1
    33    11    32    1
    34    12    33    1
    35    14    34    1
    36    15    35    1
    37    16    36    1
    38    16    37    1
