
     RDKit          3D

 37 38  0  0  0  0  0  0  0  0999 V2000
   -5.1019    0.1705    0.9158 C   0  0  0  0  0  0  0  0  0  0  0  0
   -3.7965    0.6308    0.3609 C   0  0  0  0  0  0  0  0  0  0  0  0
   -2.6825   -0.4044    0.5592 C   0  0  0  0  0  0  0  0  0  0  0  0
   -1.4962    0.1842   -0.0269 N   0  0  0  0  0  0  0  0  0  0  0  0
   -1.6447    0.2725   -1.4499 C   0  0  0  0  0  0  0  0  0  0  0  0
   -0.2673    0.2432   -2.0880 C   0  0  0  0  0  0  0  0  0  0  0  0
    0.6439    1.1052   -1.2421 C   0  0  0  0  0  0  0  0  0  0  0  0
    0.8356    0.5341    0.1180 C   0  0  2  0  0  0  0  0  0  0  0  0
    2.1668   -0.0402    0.3789 C   0  0  0  0  0  0  0  0  0  0  0  0
    2.7159   -1.0100   -0.4305 C   0  0  0  0  0  0  0  0  0  0  0  0
    3.9653   -1.5278   -0.1479 C   0  0  0  0  0  0  0  0  0  0  0  0
    4.6765   -1.0758    0.9507 C   0  0  0  0  0  0  0  0  0  0  0  0
    4.1582   -0.1063    1.7821 C   0  0  0  0  0  0  0  0  0  0  0  0
    4.8844    0.3473    2.8938 O   0  0  0  0  0  0  0  0  0  0  0  0
    2.9105    0.3939    1.4793 C   0  0  0  0  0  0  0  0  0  0  0  0
   -0.2783   -0.4977    0.3640 C   0  0  0  0  0  0  0  0  0  0  0  0
   -5.9066    0.7589    0.4181 H   0  0  0  0  0  0  0  0  0  0  0  0
   -5.1585    0.3734    2.0024 H   0  0  0  0  0  0  0  0  0  0  0  0
   -5.3324   -0.8941    0.7316 H   0  0  0  0  0  0  0  0  0  0  0  0
   -3.4645    1.5373    0.8836 H   0  0  0  0  0  0  0  0  0  0  0  0
   -3.8911    0.7508   -0.7374 H   0  0  0  0  0  0  0  0  0  0  0  0
   -2.5353   -0.6200    1.6408 H   0  0  0  0  0  0  0  0  0  0  0  0
   -2.9482   -1.3183   -0.0082 H   0  0  0  0  0  0  0  0  0  0  0  0
   -2.1461    1.2321   -1.7288 H   0  0  0  0  0  0  0  0  0  0  0  0
   -2.1897   -0.6081   -1.8645 H   0  0  0  0  0  0  0  0  0  0  0  0
    0.0428   -0.8129   -2.1350 H   0  0  0  0  0  0  0  0  0  0  0  0
   -0.3227    0.6272   -3.1292 H   0  0  0  0  0  0  0  0  0  0  0  0
    1.5913    1.3562   -1.7612 H   0  0  0  0  0  0  0  0  0  0  0  0
    0.1013    2.0906   -1.1424 H   0  0  0  0  0  0  0  0  0  0  0  0
    0.6304    1.3280    0.8972 H   0  0  0  0  0  0  0  0  0  0  0  0
    2.2010   -1.3953   -1.2991 H   0  0  0  0  0  0  0  0  0  0  0  0
    4.3972   -2.2982   -0.7922 H   0  0  0  0  0  0  0  0  0  0  0  0
    5.6689   -1.4801    1.1834 H   0  0  0  0  0  0  0  0  0  0  0  0
    5.5082    1.1255    2.7157 H   0  0  0  0  0  0  0  0  0  0  0  0
    2.5006    1.1615    2.1391 H   0  0  0  0  0  0  0  0  0  0  0  0
   -0.3507   -0.7132    1.4319 H   0  0  0  0  0  0  0  0  0  0  0  0
   -0.0854   -1.4207   -0.1940 H   0  0  0  0  0  0  0  0  0  0  0  0
  1  2  1  0
  2  3  1  0
  3  4  1  0
  4  5  1  0
  5  6  1  0
  6  7  1  0
  7  8  1  0
  8  9  1  0
  9 10  2  0
 10 11  1  0
 11 12  2  0
 12 13  1  0
 13 14  1  0
 13 15  2  0
  8 16  1  0
 16  4  1  0
 15  9  1  0
  1 17  1  0
  1 18  1  0
  1 19  1  0
  2 20  1  0
  2 21  1  0
  3 22  1  0
  3 23  1  0
  5 24  1  0
  5 25  1  0
  6 26  1  0
  6 27  1  0
  7 28  1  0
  7 29  1  0
  8 30  1  1
 10 31  1  0
 11 32  1  0
 12 33  1  0
 14 34  1  0
 15 35  1  0
 16 36  1  0
 16 37  1  0
M  END
$$$$
