@<TRIPOS>MOLECULE
*****
 66 70 0 0 0
SMALL
GASTEIGER

@<TRIPOS>ATOM
      1 C          -5.1857   -1.7265   -0.8484 C.3     1  UNL1       -0.0275
      2 C          -4.2736   -0.9516    0.0773 C.3     1  UNL1        0.1021
      3 O          -3.9743    0.3158   -0.4088 O.3     1  UNL1       -0.4879
      4 C          -2.7676    0.8372   -0.7585 C.ar    1  UNL1        0.1350
      5 C          -1.5467    0.2029   -0.7044 C.ar    1  UNL1       -0.0113
      6 C          -0.3619    0.8072   -1.0806 C.ar    1  UNL1       -0.0094
      7 C           0.8711    0.0363   -0.9809 C.ar    1  UNL1        0.0198
      8 C           1.0568   -1.3166   -1.1359 C.ar    1  UNL1        0.0571
      9 N           2.3332   -1.6001   -0.9624 N.ar    1  UNL1       -0.1787
     10 N           3.0038   -0.4983   -0.6994 N.ar    1  UNL1       -0.2650
     11 C           4.4009   -0.4069   -0.4542 C.3     1  UNL1        0.0836
     12 C           4.7098    0.3921    0.8197 C.3     1  UNL1        0.0009
     13 C           6.1122   -0.1292    1.1045 C.3     1  UNL1        0.0668
     14 C           7.0818    0.8655    0.5055 C.3     1  UNL1       -0.0360
     15 C           6.3778   -0.1848    2.5948 C.3     1  UNL1       -0.0360
     16 O           6.2239   -1.3683    0.5491 O.3     1  UNL1       -0.3659
     17 C           5.0596   -1.7098   -0.0933 C.3     1  UNL1        0.0869
     18 C           4.2328   -2.5422    0.8495 C.3     1  UNL1       -0.0340
     19 C           5.4317   -2.5121   -1.3206 C.3     1  UNL1       -0.0340
     20 C           2.1472    0.5317   -0.7005 C.ar    1  UNL1        0.0336
     21 C          -0.4028    2.0960   -1.5276 C.ar    1  UNL1       -0.0258
     22 C          -1.5975    2.7777   -1.6018 C.ar    1  UNL1        0.0998
     23 N          -1.9272    4.0106   -1.9897 N.ar    1  UNL1       -0.1689
     24 N          -3.2287    4.1972   -1.8757 N.ar    1  UNL1       -0.2408
     25 C          -3.9348    5.4199   -2.2084 C.3     1  UNL1        0.0331
     26 C          -3.7791    3.0744   -1.4049 C.ar    1  UNL1        0.2228
     27 F          -5.1016    2.9089   -1.1643 F       1  UNL1       -0.1834
     28 C          -2.7560    2.1558   -1.2232 C.ar    1  UNL1        0.0975
     29 C          -4.8708   -0.8067    1.4586 C.3     1  UNL1        0.0195
     30 C          -6.1818   -0.0875    1.4654 C.3     1  UNL1        0.0182
     31 N          -7.1995   -1.1079    1.3408 N.am    1  UNL1       -0.3149
     32 C          -6.6221   -2.3165    1.8169 C.2     1  UNL1        0.2135
     33 O          -7.2812   -3.3762    1.9652 O.2     1  UNL1       -0.2758
     34 C          -5.1889   -2.1347    2.0963 C.3     1  UNL1        0.0315
     35 H          -4.5776   -2.0767   -1.7344 H       1  UNL1        0.0265
     36 H          -5.9670   -1.0772   -1.2665 H       1  UNL1        0.0265
     37 H          -5.5854   -2.6296   -0.3911 H       1  UNL1        0.0265
     38 H          -3.3449   -1.5436    0.1721 H       1  UNL1        0.0733
     39 H          -1.5291   -0.8164   -0.3489 H       1  UNL1        0.0660
     40 H           0.2729   -2.0153   -1.3625 H       1  UNL1        0.0854
     41 H           4.9749    0.0460   -1.2886 H       1  UNL1        0.0574
     42 H           4.0092    0.0652    1.6155 H       1  UNL1        0.0314
     43 H           4.7144    1.4689    0.6459 H       1  UNL1        0.0314
     44 H           6.8251    1.8880    0.8825 H       1  UNL1        0.0257
     45 H           7.0778    0.8646   -0.5917 H       1  UNL1        0.0257
     46 H           8.1241    0.6757    0.8955 H       1  UNL1        0.0257
     47 H           5.8163    0.6147    3.1309 H       1  UNL1        0.0257
     48 H           6.1884   -1.1798    3.0225 H       1  UNL1        0.0257
     49 H           7.4559    0.0282    2.7422 H       1  UNL1        0.0257
     50 H           4.7907   -2.8476    1.7488 H       1  UNL1        0.0258
     51 H           3.9130   -3.4518    0.3089 H       1  UNL1        0.0258
     52 H           3.3115   -2.0352    1.1968 H       1  UNL1        0.0258
     53 H           4.5915   -2.6990   -1.9885 H       1  UNL1        0.0258
     54 H           6.2015   -1.9410   -1.8709 H       1  UNL1        0.0258
     55 H           5.8355   -3.4792   -0.9603 H       1  UNL1        0.0258
     56 H           2.3526    1.5829   -0.5221 H       1  UNL1        0.0832
     57 H           0.5021    2.6036   -1.8308 H       1  UNL1        0.0646
     58 H          -3.2669    6.0873   -2.7899 H       1  UNL1        0.0474
     59 H          -4.8077    5.1986   -2.8381 H       1  UNL1        0.0474
     60 H          -4.2071    5.9154   -1.2702 H       1  UNL1        0.0474
     61 H          -4.1806   -0.2509    2.1300 H       1  UNL1        0.0356
     62 H          -6.3267    0.3755    2.4809 H       1  UNL1        0.0466
     63 H          -6.2651    0.7219    0.7427 H       1  UNL1        0.0466
     64 H          -8.1628   -0.9722    0.9731 H       1  UNL1        0.1487
     65 H          -4.5634   -2.9425    1.6625 H       1  UNL1        0.0363
     66 H          -5.0336   -2.0315    3.2037 H       1  UNL1        0.0363
@<TRIPOS>BOND
     1     1     2    1
     2     2     3    1
     3     3     4    1
     4     4     5   ar
     5     5     6   ar
     6     6     7    1
     7     7     8   ar
     8     8     9   ar
     9     9    10   ar
    10    10    11    1
    11    11    12    1
    12    12    13    1
    13    13    14    1
    14    13    15    1
    15    13    16    1
    16    16    17    1
    17    17    18    1
    18    17    19    1
    19    10    20   ar
    20     6    21   ar
    21    21    22   ar
    22    22    23   ar
    23    23    24   ar
    24    24    25    1
    25    24    26   ar
    26    26    27    1
    27    26    28   ar
    28     2    29    1
    29    29    30    1
    30    30    31    1
    31    31    32   am
    32    32    33    2
    33    32    34    1
    34    28     4   ar
    35    34    29    1
    36    20     7   ar
    37    28    22   ar
    38    17    11    1
    39     1    35    1
    40     1    36    1
    41     1    37    1
    42     2    38    1
    43     5    39    1
    44     8    40    1
    45    11    41    1
    46    12    42    1
    47    12    43    1
    48    14    44    1
    49    14    45    1
    50    14    46    1
    51    15    47    1
    52    15    48    1
    53    15    49    1
    54    18    50    1
    55    18    51    1
    56    18    52    1
    57    19    53    1
    58    19    54    1
    59    19    55    1
    60    20    56    1
    61    21    57    1
    62    25    58    1
    63    25    59    1
    64    25    60    1
    65    29    61    1
    66    30    62    1
    67    30    63    1
    68    31    64    1
    69    34    65    1
    70    34    66    1
