@<TRIPOS>MOLECULE
*****
 66 70 0 0 0
SMALL
GASTEIGER

@<TRIPOS>ATOM
      1 C           8.5539   -3.1484   -0.5434 C.3     1  UNL1       -0.0188
      2 C           8.9126   -1.7160   -0.7115 C.ar    1  UNL1        0.0811
      3 N          10.1087   -1.1521   -0.8881 N.ar    1  UNL1       -0.1748
      4 N          10.0186    0.1462   -0.9960 N.ar    1  UNL1       -0.2724
      5 C          11.0858    1.0930   -1.1940 C.3     1  UNL1        0.0303
      6 C           8.7179    0.4638   -0.8881 C.ar    1  UNL1        0.0467
      7 C           7.9793   -0.6696   -0.7081 C.ar    1  UNL1        0.0744
      8 N           6.5820   -0.8226   -0.5486 N.pl3   1  UNL1       -0.2809
      9 C           5.7048    0.2968   -0.5477 C.ar    1  UNL1        0.2201
     10 N           6.1320    1.5577   -0.6926 N.ar    1  UNL1       -0.2226
     11 C           5.2933    2.5978   -0.6878 C.ar    1  UNL1        0.0332
     12 C           3.9111    2.3753   -0.5259 C.ar    1  UNL1       -0.0173
     13 C           3.4464    1.1083   -0.3751 C.ar    1  UNL1        0.0780
     14 C           2.0416    0.7505   -0.2511 C.ar    1  UNL1        0.0256
     15 C           1.5558   -0.5285   -0.5654 C.ar    1  UNL1        0.0120
     16 N           0.2378   -0.5848   -0.3197 N.ar    1  UNL1       -0.3586
     17 C          -0.1827    0.5954    0.1455 C.ar    1  UNL1        0.0686
     18 C          -1.4525    1.0081    0.5505 C.ar    1  UNL1        0.0576
     19 N          -2.4919    0.0615    0.4438 N.am    1  UNL1       -0.2825
     20 C          -3.8467    0.2463    0.8083 C.2     1  UNL1        0.2342
     21 O          -4.1970    1.3353    1.2740 O.2     1  UNL1       -0.2738
     22 C          -4.8009   -0.8865    0.6141 C.3     1  UNL1        0.0848
     23 C          -4.3369   -2.1196    1.3268 C.3     1  UNL1       -0.0409
     24 N          -6.1540   -0.5696    0.9607 N.3     1  UNL1       -0.2893
     25 C          -7.0468   -1.6755    0.8340 C.3     1  UNL1        0.0124
     26 C          -8.4825   -1.3596    0.6407 C.3     1  UNL1        0.0114
     27 N          -8.5843   -0.3978   -0.4474 N.3     1  UNL1       -0.3029
     28 C         -10.0038   -0.1369   -0.6260 C.3     1  UNL1       -0.0127
     29 C          -8.0035    0.8283    0.0699 C.3     1  UNL1        0.0114
     30 C          -6.6098    0.6985    0.5624 C.3     1  UNL1        0.0124
     31 C          -1.5630    2.2951    1.0087 C.ar    1  UNL1       -0.0384
     32 C          -0.4437    3.1416    1.0616 C.ar    1  UNL1       -0.0593
     33 C           0.7964    2.7102    0.6561 C.ar    1  UNL1       -0.0518
     34 C           0.9320    1.4201    0.1890 C.ar    1  UNL1        0.0107
     35 N           4.3885    0.1263   -0.3962 N.ar    1  UNL1       -0.2142
     36 H           8.5876   -3.6174   -1.5539 H       1  UNL1        0.0294
     37 H           7.5547   -3.2337   -0.0749 H       1  UNL1        0.0294
     38 H           9.2886   -3.6476    0.1312 H       1  UNL1        0.0294
     39 H          11.9808    0.7178   -0.6635 H       1  UNL1        0.0473
     40 H          10.7670    2.0955   -0.8612 H       1  UNL1        0.0473
     41 H          11.3608    1.1296   -2.2794 H       1  UNL1        0.0473
     42 H           8.3714    1.4789   -0.9439 H       1  UNL1        0.0845
     43 H           6.1533   -1.7902   -0.4242 H       1  UNL1        0.1551
     44 H           5.6524    3.5970   -0.8047 H       1  UNL1        0.0831
     45 H           3.2640    3.2259   -0.5573 H       1  UNL1        0.0654
     46 H           2.2037   -1.3068   -0.9469 H       1  UNL1        0.0814
     47 H          -0.3691   -1.4331   -0.4720 H       1  UNL1        0.1654
     48 H          -2.2961   -0.9192    0.0517 H       1  UNL1        0.1549
     49 H          -4.7878   -1.1009   -0.4849 H       1  UNL1        0.0556
     50 H          -3.3808   -2.4585    0.8353 H       1  UNL1        0.0249
     51 H          -5.0612   -2.9355    1.1234 H       1  UNL1        0.0249
     52 H          -4.1247   -1.9925    2.3871 H       1  UNL1        0.0249
     53 H          -6.9444   -2.3492    1.7069 H       1  UNL1        0.0439
     54 H          -6.7019   -2.2792   -0.0525 H       1  UNL1        0.0439
     55 H          -9.0213   -1.0523    1.5430 H       1  UNL1        0.0439
     56 H          -8.9770   -2.2956    0.2452 H       1  UNL1        0.0439
     57 H         -10.5214   -1.1104   -0.8358 H       1  UNL1        0.0391
     58 H         -10.1725    0.5830   -1.4261 H       1  UNL1        0.0391
     59 H         -10.3715    0.2076    0.3769 H       1  UNL1        0.0391
     60 H          -8.7076    1.2423    0.8430 H       1  UNL1        0.0439
     61 H          -8.0350    1.5667   -0.7561 H       1  UNL1        0.0439
     62 H          -6.4913    1.4490    1.4010 H       1  UNL1        0.0439
     63 H          -5.9186    1.0753   -0.2459 H       1  UNL1        0.0439
     64 H          -2.5194    2.6577    1.3301 H       1  UNL1        0.0637
     65 H          -0.5886    4.1300    1.4267 H       1  UNL1        0.0618
     66 H           1.6069    3.4073    0.7482 H       1  UNL1        0.0624
@<TRIPOS>BOND
     1     1     2    1
     2     2     3   ar
     3     3     4   ar
     4     4     5    1
     5     4     6   ar
     6     6     7   ar
     7     7     8    1
     8     8     9    1
     9     9    10   ar
    10    10    11   ar
    11    11    12   ar
    12    12    13   ar
    13    13    14    1
    14    14    15   ar
    15    15    16   ar
    16    16    17   ar
    17    17    18   ar
    18    18    19    1
    19    19    20   am
    20    20    21    2
    21    20    22    1
    22    22    23    1
    23    22    24    1
    24    24    25    1
    25    25    26    1
    26    26    27    1
    27    27    28    1
    28    27    29    1
    29    29    30    1
    30    18    31   ar
    31    31    32   ar
    32    32    33   ar
    33    33    34   ar
    34    13    35   ar
    35     7     2   ar
    36    35     9   ar
    37    34    14   ar
    38    34    17   ar
    39    30    24    1
    40     1    36    1
    41     1    37    1
    42     1    38    1
    43     5    39    1
    44     5    40    1
    45     5    41    1
    46     6    42    1
    47     8    43    1
    48    11    44    1
    49    12    45    1
    50    15    46    1
    51    16    47    1
    52    19    48    1
    53    22    49    1
    54    23    50    1
    55    23    51    1
    56    23    52    1
    57    25    53    1
    58    25    54    1
    59    26    55    1
    60    26    56    1
    61    28    57    1
    62    28    58    1
    63    28    59    1
    64    29    60    1
    65    29    61    1
    66    30    62    1
    67    30    63    1
    68    31    64    1
    69    32    65    1
    70    33    66    1
