@<TRIPOS>MOLECULE
*****
 18 18 0 0 0
SMALL
GASTEIGER

@<TRIPOS>ATOM
      1 O           2.9903   -1.4102    0.8214 O.2     1  UNL1       -0.2451
      2 C           2.4600   -0.3001    0.5196 C.2     1  UNL1        0.3370
      3 O           3.3092    0.7928    0.4490 O.3     1  UNL1       -0.4771
      4 C           1.0347   -0.1914    0.2631 C.ar    1  UNL1        0.0660
      5 C           0.2055   -1.2836    0.3368 C.ar    1  UNL1       -0.0023
      6 C          -1.1509   -1.1246    0.0821 C.ar    1  UNL1        0.1628
      7 O          -2.0145   -2.2144    0.1497 O.3     1  UNL1       -0.5032
      8 C          -1.6856    0.1042   -0.2433 C.ar    1  UNL1        0.2006
      9 O          -3.0265    0.2723   -0.4972 O.3     1  UNL1       -0.5009
     10 C          -0.8332    1.1864   -0.3112 C.ar    1  UNL1        0.1628
     11 O          -1.3483    2.4369   -0.6375 O.3     1  UNL1       -0.5032
     12 C           0.5320    1.0459   -0.0586 C.ar    1  UNL1       -0.0023
     13 H           4.2830    0.6895    0.1999 H       1  UNL1        0.2954
     14 H           0.5920   -2.2813    0.5931 H       1  UNL1        0.0663
     15 H          -2.0989   -2.8836   -0.6180 H       1  UNL1        0.2923
     16 H          -3.6618    0.2242    0.3073 H       1  UNL1        0.2924
     17 H          -0.7541    3.0124   -1.2331 H       1  UNL1        0.2923
     18 H           1.1673    1.9246   -0.1232 H       1  UNL1        0.0663
@<TRIPOS>BOND
     1     1     2    2
     2     2     3    1
     3     2     4    1
     4     4     5   ar
     5     5     6   ar
     6     6     7    1
     7     6     8   ar
     8     8     9    1
     9     8    10   ar
    10    10    11    1
    11    10    12   ar
    12    12     4   ar
    13     3    13    1
    14     5    14    1
    15     7    15    1
    16     9    16    1
    17    11    17    1
    18    12    18    1
