
     RDKit          3D

 18 18  0  0  0  0  0  0  0  0999 V2000
    2.9903   -1.4102    0.8214 O   0  0  0  0  0  0  0  0  0  0  0  0
    2.4600   -0.3001    0.5196 C   0  0  0  0  0  0  0  0  0  0  0  0
    3.3092    0.7928    0.4490 O   0  0  0  0  0  0  0  0  0  0  0  0
    1.0347   -0.1914    0.2631 C   0  0  0  0  0  0  0  0  0  0  0  0
    0.2055   -1.2836    0.3368 C   0  0  0  0  0  0  0  0  0  0  0  0
   -1.1509   -1.1246    0.0821 C   0  0  0  0  0  0  0  0  0  0  0  0
   -2.0145   -2.2144    0.1497 O   0  0  0  0  0  0  0  0  0  0  0  0
   -1.6856    0.1042   -0.2433 C   0  0  0  0  0  0  0  0  0  0  0  0
   -3.0265    0.2723   -0.4972 O   0  0  0  0  0  0  0  0  0  0  0  0
   -0.8332    1.1864   -0.3112 C   0  0  0  0  0  0  0  0  0  0  0  0
   -1.3483    2.4369   -0.6375 O   0  0  0  0  0  0  0  0  0  0  0  0
    0.5320    1.0459   -0.0586 C   0  0  0  0  0  0  0  0  0  0  0  0
    4.2830    0.6895    0.1999 H   0  0  0  0  0  0  0  0  0  0  0  0
    0.5920   -2.2813    0.5931 H   0  0  0  0  0  0  0  0  0  0  0  0
   -2.0989   -2.8836   -0.6180 H   0  0  0  0  0  0  0  0  0  0  0  0
   -3.6618    0.2242    0.3073 H   0  0  0  0  0  0  0  0  0  0  0  0
   -0.7541    3.0124   -1.2331 H   0  0  0  0  0  0  0  0  0  0  0  0
    1.1673    1.9246   -0.1232 H   0  0  0  0  0  0  0  0  0  0  0  0
  1  2  2  0
  2  3  1  0
  2  4  1  0
  4  5  2  0
  5  6  1  0
  6  7  1  0
  6  8  2  0
  8  9  1  0
  8 10  1  0
 10 11  1  0
 10 12  2  0
 12  4  1  0
  3 13  1  0
  5 14  1  0
  7 15  1  0
  9 16  1  0
 11 17  1  0
 12 18  1  0
M  END
$$$$
