@<TRIPOS>MOLECULE
*****
 42 44 0 0 0
SMALL
GASTEIGER

@<TRIPOS>ATOM
      1 C           0.0957   -0.2175    1.5331 C.3     1  UNL1       -0.0220
      2 C           0.2120   -1.1971    0.4232 C.ar    1  UNL1        0.0477
      3 C          -0.7384   -1.5334   -0.4849 C.ar    1  UNL1        0.1463
      4 C          -2.0735   -1.0280   -0.6880 C.2     1  UNL1        0.2694
      5 O          -2.8320   -1.6593   -1.5163 O.2     1  UNL1       -0.2681
      6 N          -2.6320    0.0899   -0.0730 N.am    1  UNL1       -0.2636
      7 C          -3.9932    0.4881   -0.3638 C.ar    1  UNL1        0.1471
      8 C          -4.6248    1.5738    0.1946 C.ar    1  UNL1       -0.0021
      9 C          -5.9187    1.6478   -0.3161 C.ar    1  UNL1        0.0270
     10 N          -6.0256    0.6086   -1.1628 N.ar    1  UNL1       -0.2727
     11 C          -7.2419    0.3230   -1.9161 C.3     1  UNL1        0.0302
     12 N          -4.8820   -0.0729   -1.1855 N.ar    1  UNL1       -0.1562
     13 N          -0.1407   -2.5011   -1.2632 N.ar    1  UNL1       -0.2308
     14 C           1.1034   -2.7306   -0.8431 C.ar    1  UNL1        0.0973
     15 N           1.3497   -1.9314    0.2058 N.ar    1  UNL1       -0.3292
     16 C           2.5963   -1.8662    0.9390 C.3     1  UNL1        0.0494
     17 C           3.5341   -0.8827    0.3050 C.ar    1  UNL1       -0.0272
     18 C           4.3847   -1.2953   -0.7248 C.ar    1  UNL1       -0.0568
     19 C           5.2510   -0.3949   -1.3083 C.ar    1  UNL1       -0.0609
     20 C           5.3052    0.9239   -0.9001 C.ar    1  UNL1       -0.0501
     21 C           4.4721    1.3362    0.1115 C.ar    1  UNL1        0.0551
     22 C           4.4985    2.7624    0.5864 C.3     1  UNL1        0.4174
     23 F           5.2152    2.8575    1.7582 F       1  UNL1       -0.1659
     24 F           3.1611    3.1381    0.7701 F       1  UNL1       -0.1659
     25 F           5.0781    3.5833   -0.3412 F       1  UNL1       -0.1659
     26 C           3.6037    0.4295    0.6951 C.ar    1  UNL1       -0.0452
     27 H           0.1378    0.8208    1.1725 H       1  UNL1        0.0293
     28 H           0.9956   -0.3217    2.2128 H       1  UNL1        0.0293
     29 H          -0.8093   -0.3822    2.1362 H       1  UNL1        0.0293
     30 H          -2.0816    0.6572    0.5878 H       1  UNL1        0.1566
     31 H          -4.2010    2.2540    0.9041 H       1  UNL1        0.0668
     32 H          -6.6782    2.3945   -0.0747 H       1  UNL1        0.0827
     33 H          -7.8936   -0.4067   -1.3959 H       1  UNL1        0.0473
     34 H          -7.8344    1.2503   -2.0478 H       1  UNL1        0.0473
     35 H          -6.9998   -0.1069   -2.9083 H       1  UNL1        0.0473
     36 H           1.8407   -3.4340   -1.2431 H       1  UNL1        0.1029
     37 H           2.4690   -1.6779    2.0204 H       1  UNL1        0.0542
     38 H           3.0888   -2.8704    0.8583 H       1  UNL1        0.0542
     39 H           4.3393   -2.3214   -1.0391 H       1  UNL1        0.0621
     40 H           5.9116   -0.7174   -2.1088 H       1  UNL1        0.0618
     41 H           6.0024    1.6278   -1.3771 H       1  UNL1        0.0623
     42 H           2.9545    0.7824    1.4981 H       1  UNL1        0.0626
@<TRIPOS>BOND
     1     1     2    1
     2     2     3   ar
     3     3     4    1
     4     4     5    2
     5     4     6   am
     6     6     7    1
     7     7     8   ar
     8     8     9   ar
     9     9    10   ar
    10    10    11    1
    11    10    12   ar
    12     3    13   ar
    13    13    14   ar
    14    14    15   ar
    15    15    16    1
    16    16    17    1
    17    17    18   ar
    18    18    19   ar
    19    19    20   ar
    20    20    21   ar
    21    21    22    1
    22    22    23    1
    23    22    24    1
    24    22    25    1
    25    21    26   ar
    26    15     2   ar
    27    26    17   ar
    28    12     7   ar
    29     1    27    1
    30     1    28    1
    31     1    29    1
    32     6    30    1
    33     8    31    1
    34     9    32    1
    35    11    33    1
    36    11    34    1
    37    11    35    1
    38    14    36    1
    39    16    37    1
    40    16    38    1
    41    18    39    1
    42    19    40    1
    43    20    41    1
    44    26    42    1
