
     RDKit          3D

 42 44  0  0  0  0  0  0  0  0999 V2000
    0.0957   -0.2175    1.5331 C   0  0  0  0  0  0  0  0  0  0  0  0
    0.2120   -1.1971    0.4232 C   0  0  0  0  0  0  0  0  0  0  0  0
   -0.7384   -1.5334   -0.4849 C   0  0  0  0  0  0  0  0  0  0  0  0
   -2.0735   -1.0280   -0.6880 C   0  0  0  0  0  0  0  0  0  0  0  0
   -2.8320   -1.6593   -1.5163 O   0  0  0  0  0  0  0  0  0  0  0  0
   -2.6320    0.0899   -0.0730 N   0  0  0  0  0  0  0  0  0  0  0  0
   -3.9932    0.4881   -0.3638 C   0  0  0  0  0  0  0  0  0  0  0  0
   -4.6248    1.5738    0.1946 C   0  0  0  0  0  0  0  0  0  0  0  0
   -5.9187    1.6478   -0.3161 C   0  0  0  0  0  0  0  0  0  0  0  0
   -6.0256    0.6086   -1.1628 N   0  0  0  0  0  0  0  0  0  0  0  0
   -7.2419    0.3230   -1.9161 C   0  0  0  0  0  0  0  0  0  0  0  0
   -4.8820   -0.0729   -1.1855 N   0  0  0  0  0  0  0  0  0  0  0  0
   -0.1407   -2.5011   -1.2632 N   0  0  0  0  0  0  0  0  0  0  0  0
    1.1034   -2.7306   -0.8431 C   0  0  0  0  0  0  0  0  0  0  0  0
    1.3497   -1.9314    0.2058 N   0  0  0  0  0  0  0  0  0  0  0  0
    2.5963   -1.8662    0.9390 C   0  0  0  0  0  0  0  0  0  0  0  0
    3.5341   -0.8827    0.3050 C   0  0  0  0  0  0  0  0  0  0  0  0
    4.3847   -1.2953   -0.7248 C   0  0  0  0  0  0  0  0  0  0  0  0
    5.2510   -0.3949   -1.3083 C   0  0  0  0  0  0  0  0  0  0  0  0
    5.3052    0.9239   -0.9001 C   0  0  0  0  0  0  0  0  0  0  0  0
    4.4721    1.3362    0.1115 C   0  0  0  0  0  0  0  0  0  0  0  0
    4.4985    2.7624    0.5864 C   0  0  0  0  0  0  0  0  0  0  0  0
    5.2152    2.8575    1.7582 F   0  0  0  0  0  0  0  0  0  0  0  0
    3.1611    3.1381    0.7701 F   0  0  0  0  0  0  0  0  0  0  0  0
    5.0781    3.5833   -0.3412 F   0  0  0  0  0  0  0  0  0  0  0  0
    3.6037    0.4295    0.6951 C   0  0  0  0  0  0  0  0  0  0  0  0
    0.1378    0.8208    1.1725 H   0  0  0  0  0  0  0  0  0  0  0  0
    0.9956   -0.3217    2.2128 H   0  0  0  0  0  0  0  0  0  0  0  0
   -0.8093   -0.3822    2.1362 H   0  0  0  0  0  0  0  0  0  0  0  0
   -2.0816    0.6572    0.5878 H   0  0  0  0  0  0  0  0  0  0  0  0
   -4.2010    2.2540    0.9041 H   0  0  0  0  0  0  0  0  0  0  0  0
   -6.6782    2.3945   -0.0747 H   0  0  0  0  0  0  0  0  0  0  0  0
   -7.8936   -0.4067   -1.3959 H   0  0  0  0  0  0  0  0  0  0  0  0
   -7.8344    1.2503   -2.0478 H   0  0  0  0  0  0  0  0  0  0  0  0
   -6.9998   -0.1069   -2.9083 H   0  0  0  0  0  0  0  0  0  0  0  0
    1.8407   -3.4340   -1.2431 H   0  0  0  0  0  0  0  0  0  0  0  0
    2.4690   -1.6779    2.0204 H   0  0  0  0  0  0  0  0  0  0  0  0
    3.0888   -2.8704    0.8583 H   0  0  0  0  0  0  0  0  0  0  0  0
    4.3393   -2.3214   -1.0391 H   0  0  0  0  0  0  0  0  0  0  0  0
    5.9116   -0.7174   -2.1088 H   0  0  0  0  0  0  0  0  0  0  0  0
    6.0024    1.6278   -1.3771 H   0  0  0  0  0  0  0  0  0  0  0  0
    2.9545    0.7824    1.4981 H   0  0  0  0  0  0  0  0  0  0  0  0
  1  2  1  0
  2  3  2  0
  3  4  1  0
  4  5  2  0
  4  6  1  0
  6  7  1  0
  7  8  1  0
  8  9  2  0
  9 10  1  0
 10 11  1  0
 10 12  1  0
  3 13  1  0
 13 14  2  0
 14 15  1  0
 15 16  1  0
 16 17  1  0
 17 18  2  0
 18 19  1  0
 19 20  2  0
 20 21  1  0
 21 22  1  0
 22 23  1  0
 22 24  1  0
 22 25  1  0
 21 26  2  0
 15  2  1  0
 26 17  1  0
 12  7  2  0
  1 27  1  0
  1 28  1  0
  1 29  1  0
  6 30  1  0
  8 31  1  0
  9 32  1  0
 11 33  1  0
 11 34  1  0
 11 35  1  0
 14 36  1  0
 16 37  1  0
 16 38  1  0
 18 39  1  0
 19 40  1  0
 20 41  1  0
 26 42  1  0
M  END
$$$$
