@<TRIPOS>MOLECULE
*****
 37 39 0 0 0
SMALL
GASTEIGER

@<TRIPOS>ATOM
      1 O           1.4757    0.9059   -1.5534 O.2     1  UNL1       -0.2699
      2 C           2.0882    0.2459   -0.6766 C.2     1  UNL1        0.2483
      3 N           1.4119   -0.8172   -0.0409 N.am    1  UNL1       -0.2785
      4 C           0.0666   -1.0900   -0.4248 C.ar    1  UNL1        0.0762
      5 C          -1.0034   -0.4942    0.2027 C.ar    1  UNL1       -0.0292
      6 C          -2.3191   -0.7784   -0.1913 C.ar    1  UNL1       -0.0159
      7 C          -3.4188   -0.1226    0.5036 C.ar    1  UNL1       -0.0178
      8 C          -3.2225    1.1494    0.9984 C.ar    1  UNL1       -0.0540
      9 C          -4.2154    1.8378    1.6692 C.ar    1  UNL1       -0.0612
     10 C          -5.4548    1.2676    1.8698 C.ar    1  UNL1       -0.0617
     11 C          -5.6646   -0.0069    1.3790 C.ar    1  UNL1       -0.0612
     12 C          -4.6563   -0.6976    0.7014 C.ar    1  UNL1       -0.0540
     13 C          -2.5390   -1.6682   -1.2227 C.ar    1  UNL1       -0.0505
     14 C          -1.4788   -2.2732   -1.8614 C.ar    1  UNL1       -0.0178
     15 C          -0.1913   -1.9717   -1.4490 C.ar    1  UNL1        0.1380
     16 O           0.8837   -2.5685   -2.0774 O.3     1  UNL1       -0.5049
     17 C           3.4633    0.5847   -0.3380 C.ar    1  UNL1        0.0370
     18 C           4.1115    1.6350   -0.9847 C.ar    1  UNL1       -0.0496
     19 C           5.4079    1.9374   -0.6498 C.ar    1  UNL1       -0.0610
     20 C           6.1205    1.2486    0.3085 C.ar    1  UNL1       -0.0617
     21 C           5.4955    0.2116    0.9542 C.ar    1  UNL1       -0.0610
     22 C           4.1857   -0.0858    0.6085 C.ar    1  UNL1       -0.0496
     23 H           1.8645   -1.4219    0.7112 H       1  UNL1        0.1552
     24 H          -0.7964    0.1991    1.0073 H       1  UNL1        0.0643
     25 H          -2.2619    1.6127    0.8523 H       1  UNL1        0.0624
     26 H          -4.0691    2.8397    2.0618 H       1  UNL1        0.0618
     27 H          -6.2572    1.7871    2.3954 H       1  UNL1        0.0618
     28 H          -6.6269   -0.4670    1.5282 H       1  UNL1        0.0618
     29 H          -4.8250   -1.6836    0.3236 H       1  UNL1        0.0624
     30 H          -3.5623   -1.8971   -1.5382 H       1  UNL1        0.0625
     31 H          -1.6089   -2.9734   -2.6714 H       1  UNL1        0.0655
     32 H           1.2205   -2.1034   -2.9253 H       1  UNL1        0.2922
     33 H           3.5640    2.1898   -1.7441 H       1  UNL1        0.0625
     34 H           5.9332    2.7530   -1.1414 H       1  UNL1        0.0618
     35 H           7.1595    1.5178    0.5520 H       1  UNL1        0.0618
     36 H           5.9962   -0.3621    1.7094 H       1  UNL1        0.0618
     37 H           3.7233   -0.9270    1.1536 H       1  UNL1        0.0625
@<TRIPOS>BOND
     1     1     2    2
     2     2     3   am
     3     3     4    1
     4     4     5   ar
     5     5     6   ar
     6     6     7    1
     7     7     8   ar
     8     8     9   ar
     9     9    10   ar
    10    10    11   ar
    11    11    12   ar
    12     6    13   ar
    13    13    14   ar
    14    14    15   ar
    15    15    16    1
    16     2    17    1
    17    17    18   ar
    18    18    19   ar
    19    19    20   ar
    20    20    21   ar
    21    21    22   ar
    22    15     4   ar
    23    22    17   ar
    24    12     7   ar
    25     3    23    1
    26     5    24    1
    27     8    25    1
    28     9    26    1
    29    10    27    1
    30    11    28    1
    31    12    29    1
    32    13    30    1
    33    14    31    1
    34    16    32    1
    35    18    33    1
    36    19    34    1
    37    20    35    1
    38    21    36    1
    39    22    37    1
