@<TRIPOS>MOLECULE
*****
 48 49 0 0 0
SMALL
GASTEIGER

@<TRIPOS>ATOM
      1 C           7.5265    0.0665    0.5685 C.3     1  UNL1        0.0371
      2 O           6.8656   -0.6229   -0.4104 O.3     1  UNL1       -0.3738
      3 C           5.5587   -0.9557   -0.1564 C.3     1  UNL1        0.1235
      4 C           4.6942    0.2124   -0.0122 C.2     1  UNL1        0.2413
      5 O           5.1638    1.3621   -0.1897 O.2     1  UNL1       -0.2731
      6 N           3.3117    0.1235    0.3273 N.am    1  UNL1       -0.2996
      7 C           2.6243   -1.1187    0.5627 C.3     1  UNL1        0.0153
      8 C           1.4495   -1.2210   -0.3155 C.3     1  UNL1       -0.0302
      9 C           0.7542    0.0108   -0.7848 C.3     1  UNL1       -0.0125
     10 C          -0.7259   -0.0274   -0.7935 C.ar    1  UNL1       -0.0325
     11 C          -1.4388   -0.3560   -1.9680 C.ar    1  UNL1       -0.0570
     12 C          -2.8070   -0.4064   -2.0402 C.ar    1  UNL1       -0.0479
     13 C          -3.5560   -0.1251   -0.9178 C.ar    1  UNL1        0.0536
     14 C          -5.0332   -0.1789   -0.9944 C.2     1  UNL1        0.3066
     15 O          -5.5824   -0.4818   -2.0900 O.2     1  UNL1       -0.2516
     16 N          -5.8126    0.0973    0.1142 N.am    1  UNL1       -0.1709
     17 C          -7.2561    0.0545    0.0760 C.2     1  UNL1        0.3751
     18 N          -7.9217   -0.2283   -0.9340 N.pl3   1  UNL1       -0.1313
     19 N          -7.9818    0.3622    1.2991 N.pl3   1  UNL1       -0.2906
     20 C          -2.8778    0.1924    0.2189 C.ar    1  UNL1       -0.0363
     21 C          -1.4691    0.2519    0.3228 C.ar    1  UNL1        0.0590
     22 C          -0.8696    0.6032    1.5882 C.3     1  UNL1        0.4177
     23 F           0.0140   -0.3286    2.1350 F       1  UNL1       -0.1659
     24 F          -0.5354    1.8954    1.8347 F       1  UNL1       -0.1659
     25 F          -1.9165    0.4441    2.5716 F       1  UNL1       -0.1659
     26 C           1.3931    1.3301   -0.5581 C.3     1  UNL1       -0.0302
     27 C           2.5084    1.3183    0.4553 C.3     1  UNL1        0.0153
     28 H           8.5803    0.2709    0.2280 H       1  UNL1        0.0524
     29 H           7.6158   -0.5875    1.4730 H       1  UNL1        0.0524
     30 H           7.0719    1.0028    0.9214 H       1  UNL1        0.0524
     31 H           5.1961   -1.6675   -0.9355 H       1  UNL1        0.0656
     32 H           5.5732   -1.4775    0.8470 H       1  UNL1        0.0656
     33 H           3.3550   -1.9575    0.3198 H       1  UNL1        0.0465
     34 H           2.4234   -1.2929    1.6431 H       1  UNL1        0.0465
     35 H           1.7961   -1.9011   -1.1721 H       1  UNL1        0.0286
     36 H           0.6390   -1.9086    0.1067 H       1  UNL1        0.0286
     37 H           0.9853   -0.0993   -1.9301 H       1  UNL1        0.0350
     38 H          -0.8161   -0.5784   -2.8485 H       1  UNL1        0.0621
     39 H          -3.3290   -0.6581   -2.9422 H       1  UNL1        0.0626
     40 H          -5.3838    0.3531    1.0426 H       1  UNL1        0.2545
     41 H          -7.7014   -0.4708   -1.8677 H       1  UNL1        0.3060
     42 H          -8.8115   -0.2250    1.5067 H       1  UNL1        0.2545
     43 H          -7.6315    1.1407    1.8842 H       1  UNL1        0.2545
     44 H          -3.4331    0.4211    1.1154 H       1  UNL1        0.0631
     45 H           0.6424    2.1039   -0.4021 H       1  UNL1        0.0286
     46 H           1.9400    1.7512   -1.4772 H       1  UNL1        0.0286
     47 H           2.0537    1.2979    1.4609 H       1  UNL1        0.0465
     48 H           3.1539    2.2087    0.4021 H       1  UNL1        0.0465
@<TRIPOS>BOND
     1     1     2    1
     2     2     3    1
     3     3     4    1
     4     4     5    2
     5     4     6   am
     6     6     7    1
     7     7     8    1
     8     8     9    1
     9     9    10    1
    10    10    11   ar
    11    11    12   ar
    12    12    13   ar
    13    13    14    1
    14    14    15    2
    15    14    16   am
    16    16    17    1
    17    17    18    2
    18    17    19    1
    19    13    20   ar
    20    20    21   ar
    21    21    22    1
    22    22    23    1
    23    22    24    1
    24    22    25    1
    25     9    26    1
    26    26    27    1
    27    27     6    1
    28    21    10   ar
    29     1    28    1
    30     1    29    1
    31     1    30    1
    32     3    31    1
    33     3    32    1
    34     7    33    1
    35     7    34    1
    36     8    35    1
    37     8    36    1
    38     9    37    1
    39    11    38    1
    40    12    39    1
    41    16    40    1
    42    18    41    1
    43    19    42    1
    44    19    43    1
    45    20    44    1
    46    26    45    1
    47    26    46    1
    48    27    47    1
    49    27    48    1
