
     RDKit          3D

 48 50  0  0  0  0  0  0  0  0999 V2000
    4.7373    0.1379    2.5875 C   0  0  0  0  0  0  0  0  0  0  0  0
    4.9228    1.5242    2.2545 N   0  0  0  0  0  0  0  0  0  0  0  0
    5.1334    1.7950    0.5962 S   0  0  0  0  0  0  0  0  0  0  0  0
    5.3925    3.2781    0.3568 O   0  0  0  0  0  0  0  0  0  0  0  0
    6.3351    1.0267    0.1146 O   0  0  0  0  0  0  0  0  0  0  0  0
    3.7835    1.3355   -0.4385 C   0  0  0  0  0  0  0  0  0  0  0  0
    3.3812   -0.0776   -0.4205 C   0  0  0  0  0  0  0  0  0  0  0  0
    2.2505   -0.4096   -1.3286 C   0  0  0  0  0  0  0  0  0  0  0  0
    0.9341   -0.3320   -0.8672 C   0  0  0  0  0  0  0  0  0  0  0  0
   -0.1663   -0.6203   -1.6369 C   0  0  0  0  0  0  0  0  0  0  0  0
    0.0510   -1.0100   -2.9463 C   0  0  0  0  0  0  0  0  0  0  0  0
   -1.1326   -1.2471   -3.5356 N   0  0  0  0  0  0  0  0  0  0  0  0
   -2.0984   -1.0206   -2.6423 C   0  0  0  0  0  0  0  0  0  0  0  0
   -1.5188   -0.6233   -1.4339 C   0  0  0  0  0  0  0  0  0  0  0  0
   -2.1501   -0.2644   -0.1601 C   0  0  0  0  0  0  0  0  0  0  0  0
   -2.3779   -1.3638    0.8087 C   0  0  0  0  0  0  0  0  0  0  0  0
   -3.5190   -1.0026    1.7388 C   0  0  0  0  0  0  0  0  0  0  0  0
   -3.7561    0.3978    1.8411 N   0  0  0  0  0  0  0  0  0  0  0  0
   -4.9301    0.5753    2.6787 C   0  0  0  0  0  0  0  0  0  0  0  0
   -3.9869    1.1028    0.6250 C   0  0  0  0  0  0  0  0  0  0  0  0
   -3.5260    0.2793   -0.5335 C   0  0  0  0  0  0  0  0  0  0  0  0
    1.3620   -1.0947   -3.4299 C   0  0  0  0  0  0  0  0  0  0  0  0
    2.4518   -0.7982   -2.6315 C   0  0  0  0  0  0  0  0  0  0  0  0
    3.6877   -0.1105    2.8325 H   0  0  0  0  0  0  0  0  0  0  0  0
    5.0882   -0.5060    1.7738 H   0  0  0  0  0  0  0  0  0  0  0  0
    5.3468   -0.1437    3.4892 H   0  0  0  0  0  0  0  0  0  0  0  0
    4.2820    2.1741    2.7288 H   0  0  0  0  0  0  0  0  0  0  0  0
    2.8995    1.9360   -0.0625 H   0  0  0  0  0  0  0  0  0  0  0  0
    3.9970    1.7545   -1.4389 H   0  0  0  0  0  0  0  0  0  0  0  0
    4.2335   -0.7199   -0.7173 H   0  0  0  0  0  0  0  0  0  0  0  0
    3.0499   -0.4395    0.5830 H   0  0  0  0  0  0  0  0  0  0  0  0
    0.7131   -0.0330    0.1457 H   0  0  0  0  0  0  0  0  0  0  0  0
   -1.2641   -1.5594   -4.5363 H   0  0  0  0  0  0  0  0  0  0  0  0
   -3.1718   -1.1046   -2.7480 H   0  0  0  0  0  0  0  0  0  0  0  0
   -1.6001    0.5632    0.2993 H   0  0  0  0  0  0  0  0  0  0  0  0
   -2.6554   -2.3171    0.3403 H   0  0  0  0  0  0  0  0  0  0  0  0
   -1.4769   -1.4719    1.4797 H   0  0  0  0  0  0  0  0  0  0  0  0
   -4.4601   -1.5063    1.4372 H   0  0  0  0  0  0  0  0  0  0  0  0
   -3.3171   -1.3569    2.7802 H   0  0  0  0  0  0  0  0  0  0  0  0
   -5.4873    1.4814    2.3646 H   0  0  0  0  0  0  0  0  0  0  0  0
   -4.6803    0.5477    3.7588 H   0  0  0  0  0  0  0  0  0  0  0  0
   -5.6077   -0.2773    2.4675 H   0  0  0  0  0  0  0  0  0  0  0  0
   -3.3570    2.0394    0.6015 H   0  0  0  0  0  0  0  0  0  0  0  0
   -5.0227    1.4658    0.4712 H   0  0  0  0  0  0  0  0  0  0  0  0
   -4.2340   -0.5814   -0.6868 H   0  0  0  0  0  0  0  0  0  0  0  0
   -3.5131    0.8505   -1.4703 H   0  0  0  0  0  0  0  0  0  0  0  0
    1.5303   -1.3965   -4.4438 H   0  0  0  0  0  0  0  0  0  0  0  0
    3.4466   -0.8770   -3.0463 H   0  0  0  0  0  0  0  0  0  0  0  0
  1  2  1  0
  2  3  1  0
  3  4  2  0
  3  5  2  0
  3  6  1  0
  6  7  1  0
  7  8  1  0
  8  9  2  0
  9 10  1  0
 10 11  2  0
 11 12  1  0
 12 13  1  0
 13 14  2  0
 14 15  1  0
 15 16  1  0
 16 17  1  0
 17 18  1  0
 18 19  1  0
 18 20  1  0
 20 21  1  0
 11 22  1  0
 22 23  2  0
 23  8  1  0
 14 10  1  0
 21 15  1  0
  1 24  1  0
  1 25  1  0
  1 26  1  0
  2 27  1  0
  6 28  1  0
  6 29  1  0
  7 30  1  0
  7 31  1  0
  9 32  1  0
 12 33  1  0
 13 34  1  0
 15 35  1  0
 16 36  1  0
 16 37  1  0
 17 38  1  0
 17 39  1  0
 19 40  1  0
 19 41  1  0
 19 42  1  0
 20 43  1  0
 20 44  1  0
 21 45  1  0
 21 46  1  0
 22 47  1  0
 23 48  1  0
M  END
$$$$
