@<TRIPOS>MOLECULE
*****
 48 50 0 0 0
SMALL
GASTEIGER

@<TRIPOS>ATOM
      1 C           4.7373    0.1379    2.5875 C.3     1  UNL1        0.0055
      2 N           4.9228    1.5242    2.2545 N.3     1  UNL1       -0.1976
      3 S           5.1334    1.7950    0.5962 S.O2    1  UNL1        0.0294
      4 O           5.3925    3.2781    0.3568 O.2     1  UNL1       -0.1582
      5 O           6.3351    1.0267    0.1146 O.2     1  UNL1       -0.1582
      6 C           3.7835    1.3355   -0.4385 C.3     1  UNL1        0.0857
      7 C           3.3812   -0.0776   -0.4205 C.3     1  UNL1       -0.0068
      8 C           2.2505   -0.4096   -1.3286 C.ar    1  UNL1       -0.0451
      9 C           0.9341   -0.3320   -0.8672 C.ar    1  UNL1       -0.0491
     10 C          -0.1663   -0.6203   -1.6369 C.ar    1  UNL1        0.0033
     11 C           0.0510   -1.0100   -2.9463 C.ar    1  UNL1        0.0468
     12 N          -1.1326   -1.2471   -3.5356 N.ar    1  UNL1       -0.3604
     13 C          -2.0984   -1.0206   -2.6423 C.ar    1  UNL1        0.0062
     14 C          -1.5188   -0.6233   -1.4339 C.ar    1  UNL1       -0.0192
     15 C          -2.1501   -0.2644   -0.1601 C.3     1  UNL1       -0.0116
     16 C          -2.3779   -1.3638    0.8087 C.3     1  UNL1       -0.0333
     17 C          -3.5190   -1.0026    1.7388 C.3     1  UNL1       -0.0009
     18 N          -3.7561    0.3978    1.8411 N.3     1  UNL1       -0.3053
     19 C          -4.9301    0.5753    2.6787 C.3     1  UNL1       -0.0128
     20 C          -3.9869    1.1028    0.6250 C.3     1  UNL1       -0.0009
     21 C          -3.5260    0.2793   -0.5335 C.3     1  UNL1       -0.0333
     22 C           1.3620   -1.0947   -3.4299 C.ar    1  UNL1       -0.0375
     23 C           2.4518   -0.7982   -2.6315 C.ar    1  UNL1       -0.0565
     24 H           3.6877   -0.1105    2.8325 H       1  UNL1        0.0405
     25 H           5.0882   -0.5060    1.7738 H       1  UNL1        0.0405
     26 H           5.3468   -0.1437    3.4892 H       1  UNL1        0.0405
     27 H           4.2820    2.1741    2.7288 H       1  UNL1        0.1473
     28 H           2.8995    1.9360   -0.0625 H       1  UNL1        0.0519
     29 H           3.9970    1.7545   -1.4389 H       1  UNL1        0.0519
     30 H           4.2335   -0.7199   -0.7173 H       1  UNL1        0.0329
     31 H           3.0499   -0.4395    0.5830 H       1  UNL1        0.0329
     32 H           0.7131   -0.0330    0.1457 H       1  UNL1        0.0627
     33 H          -1.2641   -1.5594   -4.5363 H       1  UNL1        0.1653
     34 H          -3.1718   -1.1046   -2.7480 H       1  UNL1        0.0810
     35 H          -1.6001    0.5632    0.2993 H       1  UNL1        0.0350
     36 H          -2.6554   -2.3171    0.3403 H       1  UNL1        0.0283
     37 H          -1.4769   -1.4719    1.4797 H       1  UNL1        0.0283
     38 H          -4.4601   -1.5063    1.4372 H       1  UNL1        0.0427
     39 H          -3.3171   -1.3569    2.7802 H       1  UNL1        0.0427
     40 H          -5.4873    1.4814    2.3646 H       1  UNL1        0.0391
     41 H          -4.6803    0.5477    3.7588 H       1  UNL1        0.0391
     42 H          -5.6077   -0.2773    2.4675 H       1  UNL1        0.0391
     43 H          -3.3570    2.0394    0.6015 H       1  UNL1        0.0427
     44 H          -5.0227    1.4658    0.4712 H       1  UNL1        0.0427
     45 H          -4.2340   -0.5814   -0.6868 H       1  UNL1        0.0283
     46 H          -3.5131    0.8505   -1.4703 H       1  UNL1        0.0283
     47 H           1.5303   -1.3965   -4.4438 H       1  UNL1        0.0638
     48 H           3.4466   -0.8770   -3.0463 H       1  UNL1        0.0621
@<TRIPOS>BOND
     1     1     2    1
     2     2     3    1
     3     3     4    2
     4     3     5    2
     5     3     6    1
     6     6     7    1
     7     7     8    1
     8     8     9   ar
     9     9    10   ar
    10    10    11   ar
    11    11    12   ar
    12    12    13   ar
    13    13    14   ar
    14    14    15    1
    15    15    16    1
    16    16    17    1
    17    17    18    1
    18    18    19    1
    19    18    20    1
    20    20    21    1
    21    11    22   ar
    22    22    23   ar
    23    23     8   ar
    24    14    10   ar
    25    21    15    1
    26     1    24    1
    27     1    25    1
    28     1    26    1
    29     2    27    1
    30     6    28    1
    31     6    29    1
    32     7    30    1
    33     7    31    1
    34     9    32    1
    35    12    33    1
    36    13    34    1
    37    15    35    1
    38    16    36    1
    39    16    37    1
    40    17    38    1
    41    17    39    1
    42    19    40    1
    43    19    41    1
    44    19    42    1
    45    20    43    1
    46    20    44    1
    47    21    45    1
    48    21    46    1
    49    22    47    1
    50    23    48    1
