@<TRIPOS>MOLECULE
*****
 58 60 0 0 0
SMALL
GASTEIGER

@<TRIPOS>ATOM
      1 N           6.5845   -0.0314    0.1600 N.am    1  UNL1       -0.2995
      2 C           7.9363    0.3137   -0.1983 C.3     1  UNL1        0.0102
      3 C           8.3497   -0.4457   -1.4232 C.3     1  UNL1       -0.0495
      4 C           5.5158    0.2011   -0.7502 C.2     1  UNL1        0.3023
      5 O           5.8605    0.7163   -1.8503 O.2     1  UNL1       -0.2526
      6 N           4.1691   -0.1262   -0.4320 N.am    1  UNL1       -0.2832
      7 C           3.8937   -0.7068    0.8458 C.3     1  UNL1        0.0289
      8 C           2.4808   -1.0927    1.0722 C.3     1  UNL1        0.0148
      9 N           1.5102   -0.5519    0.1755 N.3     1  UNL1       -0.2994
     10 C           0.2831   -0.3945    0.8865 C.3     1  UNL1       -0.0010
     11 C          -0.8644    0.1619    0.1174 C.3     1  UNL1       -0.0394
     12 C          -2.0371    0.2230    1.1099 C.3     1  UNL1       -0.0410
     13 C          -3.2690    0.7776    0.4344 C.3     1  UNL1        0.0093
     14 C          -3.6823   -0.0699   -0.7132 C.ar    1  UNL1       -0.0398
     15 C          -4.3333    0.5480   -1.7818 C.ar    1  UNL1       -0.0553
     16 C          -4.7566   -0.1545   -2.8942 C.ar    1  UNL1       -0.0262
     17 C          -4.5365   -1.5186   -2.9700 C.ar    1  UNL1        0.1234
     18 F          -4.9470   -2.2192   -4.0563 F       1  UNL1       -0.2055
     19 C          -3.8931   -2.1513   -1.9223 C.ar    1  UNL1       -0.0262
     20 C          -3.4805   -1.4290   -0.8236 C.ar    1  UNL1       -0.0553
     21 C          -4.3593    0.8304    1.4360 C.ar    1  UNL1       -0.0398
     22 C          -5.2786    1.8681    1.2441 C.ar    1  UNL1       -0.0553
     23 C          -6.3574    2.0905    2.0591 C.ar    1  UNL1       -0.0262
     24 C          -6.5734    1.2636    3.1331 C.ar    1  UNL1        0.1234
     25 F          -7.6015    1.3972    3.9917 F       1  UNL1       -0.2055
     26 C          -5.6761    0.2345    3.3373 C.ar    1  UNL1       -0.0262
     27 C          -4.5908    0.0120    2.5161 C.ar    1  UNL1       -0.0553
     28 C           1.9155    0.5776   -0.5892 C.3     1  UNL1        0.0148
     29 C           3.1379    0.1403   -1.4089 C.3     1  UNL1        0.0289
     30 H           6.3473   -0.4639    1.1013 H       1  UNL1        0.1502
     31 H           7.9637    1.4176   -0.3458 H       1  UNL1        0.0460
     32 H           8.5893    0.0964    0.6706 H       1  UNL1        0.0460
     33 H           9.3268   -0.9576   -1.2038 H       1  UNL1        0.0245
     34 H           8.5613    0.2377   -2.2757 H       1  UNL1        0.0245
     35 H           7.5801   -1.2121   -1.6966 H       1  UNL1        0.0245
     36 H           4.1524    0.0654    1.6265 H       1  UNL1        0.0478
     37 H           4.6192   -1.5451    1.0350 H       1  UNL1        0.0478
     38 H           2.4236   -2.2133    0.9586 H       1  UNL1        0.0442
     39 H           2.1802   -0.9078    2.1337 H       1  UNL1        0.0442
     40 H           0.4721    0.2863    1.7460 H       1  UNL1        0.0427
     41 H          -0.0058   -1.3728    1.3028 H       1  UNL1        0.0427
     42 H          -0.6699    1.2205   -0.1533 H       1  UNL1        0.0278
     43 H          -1.2176   -0.4460   -0.7150 H       1  UNL1        0.0278
     44 H          -2.1865   -0.7874    1.4995 H       1  UNL1        0.0275
     45 H          -1.7323    0.9350    1.9007 H       1  UNL1        0.0275
     46 H          -3.0384    1.7902    0.0297 H       1  UNL1        0.0397
     47 H          -4.5252    1.6272   -1.7574 H       1  UNL1        0.0621
     48 H          -5.2548    0.3902   -3.6850 H       1  UNL1        0.0646
     49 H          -3.7069   -3.2164   -1.9525 H       1  UNL1        0.0646
     50 H          -2.9772   -1.9185   -0.0018 H       1  UNL1        0.0621
     51 H          -5.1838    2.5758    0.4123 H       1  UNL1        0.0621
     52 H          -7.0541    2.8978    1.8919 H       1  UNL1        0.0646
     53 H          -5.7339   -0.4935    4.1543 H       1  UNL1        0.0646
     54 H          -3.8638   -0.7780    2.6351 H       1  UNL1        0.0621
     55 H           2.1377    1.4857   -0.0187 H       1  UNL1        0.0442
     56 H           1.1421    0.7870   -1.3400 H       1  UNL1        0.0442
     57 H           3.4290    0.8807   -2.1598 H       1  UNL1        0.0478
     58 H           2.8255   -0.8455   -1.8620 H       1  UNL1        0.0478
@<TRIPOS>BOND
     1     1     2    1
     2     2     3    1
     3     1     4   am
     4     4     5    2
     5     4     6   am
     6     6     7    1
     7     7     8    1
     8     8     9    1
     9     9    10    1
    10    10    11    1
    11    11    12    1
    12    12    13    1
    13    13    14    1
    14    14    15   ar
    15    15    16   ar
    16    16    17   ar
    17    17    18    1
    18    17    19   ar
    19    19    20   ar
    20    13    21    1
    21    21    22   ar
    22    22    23   ar
    23    23    24   ar
    24    24    25    1
    25    24    26   ar
    26    26    27   ar
    27     9    28    1
    28    28    29    1
    29    29     6    1
    30    20    14   ar
    31    27    21   ar
    32     1    30    1
    33     2    31    1
    34     2    32    1
    35     3    33    1
    36     3    34    1
    37     3    35    1
    38     7    36    1
    39     7    37    1
    40     8    38    1
    41     8    39    1
    42    10    40    1
    43    10    41    1
    44    11    42    1
    45    11    43    1
    46    12    44    1
    47    12    45    1
    48    13    46    1
    49    15    47    1
    50    16    48    1
    51    19    49    1
    52    20    50    1
    53    22    51    1
    54    23    52    1
    55    26    53    1
    56    27    54    1
    57    28    55    1
    58    28    56    1
    59    29    57    1
    60    29    58    1
