
     RDKit          3D

 58 60  0  0  0  0  0  0  0  0999 V2000
    6.5845   -0.0314    0.1600 N   0  0  0  0  0  0  0  0  0  0  0  0
    7.9363    0.3137   -0.1983 C   0  0  0  0  0  0  0  0  0  0  0  0
    8.3497   -0.4457   -1.4232 C   0  0  0  0  0  0  0  0  0  0  0  0
    5.5158    0.2011   -0.7502 C   0  0  0  0  0  0  0  0  0  0  0  0
    5.8605    0.7163   -1.8503 O   0  0  0  0  0  0  0  0  0  0  0  0
    4.1691   -0.1262   -0.4320 N   0  0  0  0  0  0  0  0  0  0  0  0
    3.8937   -0.7068    0.8458 C   0  0  0  0  0  0  0  0  0  0  0  0
    2.4808   -1.0927    1.0722 C   0  0  0  0  0  0  0  0  0  0  0  0
    1.5102   -0.5519    0.1755 N   0  0  0  0  0  0  0  0  0  0  0  0
    0.2831   -0.3945    0.8865 C   0  0  0  0  0  0  0  0  0  0  0  0
   -0.8644    0.1619    0.1174 C   0  0  0  0  0  0  0  0  0  0  0  0
   -2.0371    0.2230    1.1099 C   0  0  0  0  0  0  0  0  0  0  0  0
   -3.2690    0.7776    0.4344 C   0  0  0  0  0  0  0  0  0  0  0  0
   -3.6823   -0.0699   -0.7132 C   0  0  0  0  0  0  0  0  0  0  0  0
   -4.3333    0.5480   -1.7818 C   0  0  0  0  0  0  0  0  0  0  0  0
   -4.7566   -0.1545   -2.8942 C   0  0  0  0  0  0  0  0  0  0  0  0
   -4.5365   -1.5186   -2.9700 C   0  0  0  0  0  0  0  0  0  0  0  0
   -4.9470   -2.2192   -4.0563 F   0  0  0  0  0  0  0  0  0  0  0  0
   -3.8931   -2.1513   -1.9223 C   0  0  0  0  0  0  0  0  0  0  0  0
   -3.4805   -1.4290   -0.8236 C   0  0  0  0  0  0  0  0  0  0  0  0
   -4.3593    0.8304    1.4360 C   0  0  0  0  0  0  0  0  0  0  0  0
   -5.2786    1.8681    1.2441 C   0  0  0  0  0  0  0  0  0  0  0  0
   -6.3574    2.0905    2.0591 C   0  0  0  0  0  0  0  0  0  0  0  0
   -6.5734    1.2636    3.1331 C   0  0  0  0  0  0  0  0  0  0  0  0
   -7.6015    1.3972    3.9917 F   0  0  0  0  0  0  0  0  0  0  0  0
   -5.6761    0.2345    3.3373 C   0  0  0  0  0  0  0  0  0  0  0  0
   -4.5908    0.0120    2.5161 C   0  0  0  0  0  0  0  0  0  0  0  0
    1.9155    0.5776   -0.5892 C   0  0  0  0  0  0  0  0  0  0  0  0
    3.1379    0.1403   -1.4089 C   0  0  0  0  0  0  0  0  0  0  0  0
    6.3473   -0.4639    1.1013 H   0  0  0  0  0  0  0  0  0  0  0  0
    7.9637    1.4176   -0.3458 H   0  0  0  0  0  0  0  0  0  0  0  0
    8.5893    0.0964    0.6706 H   0  0  0  0  0  0  0  0  0  0  0  0
    9.3268   -0.9576   -1.2038 H   0  0  0  0  0  0  0  0  0  0  0  0
    8.5613    0.2377   -2.2757 H   0  0  0  0  0  0  0  0  0  0  0  0
    7.5801   -1.2121   -1.6966 H   0  0  0  0  0  0  0  0  0  0  0  0
    4.1524    0.0654    1.6265 H   0  0  0  0  0  0  0  0  0  0  0  0
    4.6192   -1.5451    1.0350 H   0  0  0  0  0  0  0  0  0  0  0  0
    2.4236   -2.2133    0.9586 H   0  0  0  0  0  0  0  0  0  0  0  0
    2.1802   -0.9078    2.1337 H   0  0  0  0  0  0  0  0  0  0  0  0
    0.4721    0.2863    1.7460 H   0  0  0  0  0  0  0  0  0  0  0  0
   -0.0058   -1.3728    1.3028 H   0  0  0  0  0  0  0  0  0  0  0  0
   -0.6699    1.2205   -0.1533 H   0  0  0  0  0  0  0  0  0  0  0  0
   -1.2176   -0.4460   -0.7150 H   0  0  0  0  0  0  0  0  0  0  0  0
   -2.1865   -0.7874    1.4995 H   0  0  0  0  0  0  0  0  0  0  0  0
   -1.7323    0.9350    1.9007 H   0  0  0  0  0  0  0  0  0  0  0  0
   -3.0384    1.7902    0.0297 H   0  0  0  0  0  0  0  0  0  0  0  0
   -4.5252    1.6272   -1.7574 H   0  0  0  0  0  0  0  0  0  0  0  0
   -5.2548    0.3902   -3.6850 H   0  0  0  0  0  0  0  0  0  0  0  0
   -3.7069   -3.2164   -1.9525 H   0  0  0  0  0  0  0  0  0  0  0  0
   -2.9772   -1.9185   -0.0018 H   0  0  0  0  0  0  0  0  0  0  0  0
   -5.1838    2.5758    0.4123 H   0  0  0  0  0  0  0  0  0  0  0  0
   -7.0541    2.8978    1.8919 H   0  0  0  0  0  0  0  0  0  0  0  0
   -5.7339   -0.4935    4.1543 H   0  0  0  0  0  0  0  0  0  0  0  0
   -3.8638   -0.7780    2.6351 H   0  0  0  0  0  0  0  0  0  0  0  0
    2.1377    1.4857   -0.0187 H   0  0  0  0  0  0  0  0  0  0  0  0
    1.1421    0.7870   -1.3400 H   0  0  0  0  0  0  0  0  0  0  0  0
    3.4290    0.8807   -2.1598 H   0  0  0  0  0  0  0  0  0  0  0  0
    2.8255   -0.8455   -1.8620 H   0  0  0  0  0  0  0  0  0  0  0  0
  1  2  1  0
  2  3  1  0
  1  4  1  0
  4  5  2  0
  4  6  1  0
  6  7  1  0
  7  8  1  0
  8  9  1  0
  9 10  1  0
 10 11  1  0
 11 12  1  0
 12 13  1  0
 13 14  1  0
 14 15  2  0
 15 16  1  0
 16 17  2  0
 17 18  1  0
 17 19  1  0
 19 20  2  0
 13 21  1  0
 21 22  2  0
 22 23  1  0
 23 24  2  0
 24 25  1  0
 24 26  1  0
 26 27  2  0
  9 28  1  0
 28 29  1  0
 29  6  1  0
 20 14  1  0
 27 21  1  0
  1 30  1  0
  2 31  1  0
  2 32  1  0
  3 33  1  0
  3 34  1  0
  3 35  1  0
  7 36  1  0
  7 37  1  0
  8 38  1  0
  8 39  1  0
 10 40  1  0
 10 41  1  0
 11 42  1  0
 11 43  1  0
 12 44  1  0
 12 45  1  0
 13 46  1  0
 15 47  1  0
 16 48  1  0
 19 49  1  0
 20 50  1  0
 22 51  1  0
 23 52  1  0
 26 53  1  0
 27 54  1  0
 28 55  1  0
 28 56  1  0
 29 57  1  0
 29 58  1  0
M  END
$$$$
