
     RDKit          3D

 65 69  0  0  0  0  0  0  0  0999 V2000
   -3.5798   -0.2238   -2.8957 C   0  0  0  0  0  0  0  0  0  0  0  0
   -3.9763   -0.2391   -1.4969 C   0  0  0  0  0  0  0  0  0  0  0  0
   -3.5450    0.8151   -0.6058 C   0  0  0  0  0  0  0  0  0  0  0  0
   -2.7661    1.8511   -1.0940 N   0  0  0  0  0  0  0  0  0  0  0  0
   -2.5757    2.9845   -0.2176 C   0  0  0  0  0  0  0  0  0  0  0  0
   -3.4370    4.0564   -0.5627 C   0  0  0  0  0  0  0  0  0  0  0  0
   -4.2839    4.0022   -1.6659 C   0  0  0  0  0  0  0  0  0  0  0  0
   -5.0312    3.9340   -2.6300 N   0  0  0  0  0  0  0  0  0  0  0  0
   -3.3083    5.2036    0.2352 C   0  0  0  0  0  0  0  0  0  0  0  0
   -2.4282    5.2224    1.2210 N   0  0  0  0  0  0  0  0  0  0  0  0
   -1.6135    4.2238    1.5551 C   0  0  0  0  0  0  0  0  0  0  0  0
   -1.6737    3.0113    0.7923 C   0  0  0  0  0  0  0  0  0  0  0  0
   -0.8070    1.9423    1.1075 C   0  0  0  0  0  0  0  0  0  0  0  0
   -0.4706    0.8067    0.5410 C   0  0  0  0  0  0  0  0  0  0  0  0
    0.5120   -0.0629    1.2715 C   0  0  0  0  0  0  0  0  0  0  0  0
    0.8379    0.1880    2.5534 C   0  0  0  0  0  0  0  0  0  0  0  0
    1.7666   -0.5375    3.2700 C   0  0  0  0  0  0  0  0  0  0  0  0
    2.3636   -1.5751    2.5602 C   0  0  0  0  0  0  0  0  0  0  0  0
    2.0767   -1.8724    1.2588 C   0  0  0  0  0  0  0  0  0  0  0  0
    3.0381   -3.1604    0.5385 S   0  0  0  0  0  6  0  0  0  0  0  0
    2.2030   -3.8289   -0.5318 O   0  0  0  0  0  0  0  0  0  0  0  0
    3.4884   -4.0951    1.5667 O   0  0  0  0  0  0  0  0  0  0  0  0
    4.4024   -2.3476   -0.2753 N   0  0  0  0  0  0  0  0  0  0  0  0
    3.9222   -1.5663   -1.4046 C   0  0  0  0  0  0  0  0  0  0  0  0
    4.8923   -0.4817   -1.7577 C   0  0  0  0  0  0  0  0  0  0  0  0
    5.9633   -0.2365   -0.8969 N   0  0  0  0  0  0  0  0  0  0  0  0
    7.2685   -0.4396   -1.4355 C   0  0  0  0  0  0  0  0  0  0  0  0
    5.8741   -0.4578    0.4883 C   0  0  0  0  0  0  0  0  0  0  0  0
    4.7306   -1.3316    0.7988 C   0  0  0  0  0  0  0  0  0  0  0  0
    1.1392   -1.1329    0.5740 C   0  0  0  0  0  0  0  0  0  0  0  0
   -3.9879    0.7227    0.7027 C   0  0  0  0  0  0  0  0  0  0  0  0
   -4.8064   -0.3178    1.1661 C   0  0  0  0  0  0  0  0  0  0  0  0
   -5.1697   -1.2517    0.2958 C   0  0  0  0  0  0  0  0  0  0  0  0
   -5.9412   -2.3845    0.4274 N   0  0  0  0  0  0  0  0  0  0  0  0
   -6.0082   -3.0265   -0.7662 C   0  0  0  0  0  0  0  0  0  0  0  0
   -5.3115   -2.3678   -1.6972 C   0  0  0  0  0  0  0  0  0  0  0  0
   -4.7763   -1.2432   -1.0339 C   0  0  0  0  0  0  0  0  0  0  0  0
   -3.0549    0.6781   -3.1632 H   0  0  0  0  0  0  0  0  0  0  0  0
   -3.0527   -1.1838   -3.1556 H   0  0  0  0  0  0  0  0  0  0  0  0
   -4.5608   -0.1495   -3.4923 H   0  0  0  0  0  0  0  0  0  0  0  0
   -2.3026    1.8434   -2.0025 H   0  0  0  0  0  0  0  0  0  0  0  0
   -3.9790    6.0401   -0.0059 H   0  0  0  0  0  0  0  0  0  0  0  0
   -0.9324    4.2887    2.3343 H   0  0  0  0  0  0  0  0  0  0  0  0
   -0.2198    2.1113    2.0645 H   0  0  0  0  0  0  0  0  0  0  0  0
   -0.8720    0.5835   -0.4067 H   0  0  0  0  0  0  0  0  0  0  0  0
    0.3401    0.9955    3.1509 H   0  0  0  0  0  0  0  0  0  0  0  0
    1.9919   -0.2971    4.2888 H   0  0  0  0  0  0  0  0  0  0  0  0
    3.0704   -2.1799    3.1123 H   0  0  0  0  0  0  0  0  0  0  0  0
    2.9057   -1.2451   -1.4017 H   0  0  0  0  0  0  0  0  0  0  0  0
    4.0293   -2.3299   -2.2995 H   0  0  0  0  0  0  0  0  0  0  0  0
    5.2914   -0.6957   -2.7993 H   0  0  0  0  0  0  0  0  0  0  0  0
    4.2948    0.4752   -1.8525 H   0  0  0  0  0  0  0  0  0  0  0  0
    7.9405   -1.0153   -0.7435 H   0  0  0  0  0  0  0  0  0  0  0  0
    7.7850    0.5433   -1.5559 H   0  0  0  0  0  0  0  0  0  0  0  0
    7.2689   -0.9473   -2.4094 H   0  0  0  0  0  0  0  0  0  0  0  0
    5.6814    0.5171    1.0263 H   0  0  0  0  0  0  0  0  0  0  0  0
    6.7879   -0.8548    0.9603 H   0  0  0  0  0  0  0  0  0  0  0  0
    3.7550   -0.7332    0.8353 H   0  0  0  0  0  0  0  0  0  0  0  0
    4.8116   -1.9117    1.7108 H   0  0  0  0  0  0  0  0  0  0  0  0
    0.8606   -1.3119   -0.4160 H   0  0  0  0  0  0  0  0  0  0  0  0
   -3.6469    1.5106    1.3932 H   0  0  0  0  0  0  0  0  0  0  0  0
   -5.1010   -0.3226    2.1820 H   0  0  0  0  0  0  0  0  0  0  0  0
   -6.3930   -2.6950    1.2926 H   0  0  0  0  0  0  0  0  0  0  0  0
   -6.5589   -3.9692   -0.9274 H   0  0  0  0  0  0  0  0  0  0  0  0
   -5.1215   -2.5280   -2.7420 H   0  0  0  0  0  0  0  0  0  0  0  0
  1  2  1  0
  2  3  2  0
  3  4  1  0
  4  5  1  0
  5  6  2  0
  6  7  1  0
  7  8  3  0
  6  9  1  0
  9 10  2  0
 10 11  1  0
 11 12  2  0
 12 13  1  0
 13 14  2  0
 14 15  1  0
 15 16  2  0
 16 17  1  0
 17 18  2  0
 18 19  1  0
 19 20  1  0
 20 21  2  0
 20 22  2  0
 20 23  1  0
 23 24  1  0
 24 25  1  0
 25 26  1  0
 26 27  1  0
 26 28  1  0
 28 29  1  0
 19 30  2  0
  3 31  1  0
 31 32  2  0
 32 33  1  0
 33 34  1  0
 34 35  1  0
 35 36  2  0
 36 37  1  0
 37  2  1  0
 12  5  1  0
 30 15  1  0
 37 33  2  0
 29 23  1  0
  1 38  1  0
  1 39  1  0
  1 40  1  0
  4 41  1  0
  9 42  1  0
 11 43  1  0
 13 44  1  0
 14 45  1  0
 16 46  1  0
 17 47  1  0
 18 48  1  0
 24 49  1  0
 24 50  1  0
 25 51  1  0
 25 52  1  0
 27 53  1  0
 27 54  1  0
 27 55  1  0
 28 56  1  0
 28 57  1  0
 29 58  1  0
 29 59  1  0
 30 60  1  0
 31 61  1  0
 32 62  1  0
 34 63  1  0
 35 64  1  0
 36 65  1  0
M  END
$$$$
