@<TRIPOS>MOLECULE
*****
 65 69 0 0 0
SMALL
GASTEIGER

@<TRIPOS>ATOM
      1 C          -3.5798   -0.2238   -2.8957 C.3     1  UNL1       -0.0373
      2 C          -3.9763   -0.2391   -1.4969 C.ar    1  UNL1       -0.0202
      3 C          -3.5450    0.8151   -0.6058 C.ar    1  UNL1        0.0350
      4 N          -2.7661    1.8511   -1.0940 N.pl3   1  UNL1       -0.3127
      5 C          -2.5757    2.9845   -0.2176 C.ar    1  UNL1        0.0591
      6 C          -3.4370    4.0564   -0.5627 C.ar    1  UNL1        0.0914
      7 C          -4.2839    4.0022   -1.6659 C.1     1  UNL1        0.1026
      8 N          -5.0312    3.9340   -2.6300 N.1     1  UNL1       -0.1908
      9 C          -3.3083    5.2036    0.2352 C.ar    1  UNL1        0.0467
     10 N          -2.4282    5.2224    1.2210 N.ar    1  UNL1       -0.2613
     11 C          -1.6135    4.2238    1.5551 C.ar    1  UNL1        0.0365
     12 C          -1.6737    3.0113    0.7923 C.ar    1  UNL1        0.0155
     13 C          -0.8070    1.9423    1.1075 C.2     1  UNL1       -0.0508
     14 C          -0.4706    0.8067    0.5410 C.2     1  UNL1       -0.0539
     15 C           0.5120   -0.0629    1.2715 C.ar    1  UNL1       -0.0232
     16 C           0.8379    0.1880    2.5534 C.ar    1  UNL1       -0.0545
     17 C           1.7666   -0.5375    3.2700 C.ar    1  UNL1       -0.0594
     18 C           2.3636   -1.5751    2.5602 C.ar    1  UNL1       -0.0353
     19 C           2.0767   -1.8724    1.2588 C.ar    1  UNL1        0.1060
     20 S           3.0381   -3.1604    0.5385 S.O2    1  UNL1        0.0609
     21 O           2.2030   -3.8289   -0.5318 O.2     1  UNL1       -0.1528
     22 O           3.4884   -4.0951    1.5667 O.2     1  UNL1       -0.1528
     23 N           4.4024   -2.3476   -0.2753 N.3     1  UNL1       -0.1741
     24 C           3.9222   -1.5663   -1.4046 C.3     1  UNL1        0.0333
     25 C           4.8923   -0.4817   -1.7577 C.3     1  UNL1        0.0131
     26 N           5.9633   -0.2365   -0.8969 N.3     1  UNL1       -0.3028
     27 C           7.2685   -0.4396   -1.4355 C.3     1  UNL1       -0.0127
     28 C           5.8741   -0.4578    0.4883 C.3     1  UNL1        0.0131
     29 C           4.7306   -1.3316    0.7988 C.3     1  UNL1        0.0333
     30 C           1.1392   -1.1329    0.5740 C.ar    1  UNL1       -0.0282
     31 C          -3.9879    0.7227    0.7027 C.ar    1  UNL1       -0.0383
     32 C          -4.8064   -0.3178    1.1661 C.ar    1  UNL1       -0.0360
     33 C          -5.1697   -1.2517    0.2958 C.ar    1  UNL1        0.0468
     34 N          -5.9412   -2.3845    0.4274 N.ar    1  UNL1       -0.3606
     35 C          -6.0082   -3.0265   -0.7662 C.ar    1  UNL1        0.0027
     36 C          -5.3115   -2.3678   -1.6972 C.ar    1  UNL1       -0.0364
     37 C          -4.7763   -1.2432   -1.0339 C.ar    1  UNL1        0.0043
     38 H          -3.0549    0.6781   -3.1632 H       1  UNL1        0.0278
     39 H          -3.0527   -1.1838   -3.1556 H       1  UNL1        0.0278
     40 H          -4.5608   -0.1495   -3.4923 H       1  UNL1        0.0278
     41 H          -2.3026    1.8434   -2.0025 H       1  UNL1        0.1522
     42 H          -3.9790    6.0401   -0.0059 H       1  UNL1        0.0843
     43 H          -0.9324    4.2887    2.3343 H       1  UNL1        0.0836
     44 H          -0.2198    2.1113    2.0645 H       1  UNL1        0.0625
     45 H          -0.8720    0.5835   -0.4067 H       1  UNL1        0.0624
     46 H           0.3401    0.9955    3.1509 H       1  UNL1        0.0623
     47 H           1.9919   -0.2971    4.2888 H       1  UNL1        0.0618
     48 H           3.0704   -2.1799    3.1123 H       1  UNL1        0.0637
     49 H           2.9057   -1.2451   -1.4017 H       1  UNL1        0.0456
     50 H           4.0293   -2.3299   -2.2995 H       1  UNL1        0.0456
     51 H           5.2914   -0.6957   -2.7993 H       1  UNL1        0.0439
     52 H           4.2948    0.4752   -1.8525 H       1  UNL1        0.0439
     53 H           7.9405   -1.0153   -0.7435 H       1  UNL1        0.0391
     54 H           7.7850    0.5433   -1.5559 H       1  UNL1        0.0391
     55 H           7.2689   -0.9473   -2.4094 H       1  UNL1        0.0391
     56 H           5.6814    0.5171    1.0263 H       1  UNL1        0.0439
     57 H           6.7879   -0.8548    0.9603 H       1  UNL1        0.0439
     58 H           3.7550   -0.7332    0.8353 H       1  UNL1        0.0456
     59 H           4.8116   -1.9117    1.7108 H       1  UNL1        0.0456
     60 H           0.8606   -1.3119   -0.4160 H       1  UNL1        0.0643
     61 H          -3.6469    1.5106    1.3932 H       1  UNL1        0.0637
     62 H          -5.1010   -0.3226    2.1820 H       1  UNL1        0.0639
     63 H          -6.3930   -2.6950    1.2926 H       1  UNL1        0.1653
     64 H          -6.5589   -3.9692   -0.9274 H       1  UNL1        0.0807
     65 H          -5.1215   -2.5280   -2.7420 H       1  UNL1        0.0639
@<TRIPOS>BOND
     1     1     2    1
     2     2     3   ar
     3     3     4    1
     4     4     5    1
     5     5     6   ar
     6     6     7    1
     7     7     8    3
     8     6     9   ar
     9     9    10   ar
    10    10    11   ar
    11    11    12   ar
    12    12    13    1
    13    13    14    2
    14    14    15    1
    15    15    16   ar
    16    16    17   ar
    17    17    18   ar
    18    18    19   ar
    19    19    20    1
    20    20    21    2
    21    20    22    2
    22    20    23    1
    23    23    24    1
    24    24    25    1
    25    25    26    1
    26    26    27    1
    27    26    28    1
    28    28    29    1
    29    19    30   ar
    30     3    31   ar
    31    31    32   ar
    32    32    33   ar
    33    33    34   ar
    34    34    35   ar
    35    35    36   ar
    36    36    37   ar
    37    37     2   ar
    38    12     5   ar
    39    30    15   ar
    40    37    33   ar
    41    29    23    1
    42     1    38    1
    43     1    39    1
    44     1    40    1
    45     4    41    1
    46     9    42    1
    47    11    43    1
    48    13    44    1
    49    14    45    1
    50    16    46    1
    51    17    47    1
    52    18    48    1
    53    24    49    1
    54    24    50    1
    55    25    51    1
    56    25    52    1
    57    27    53    1
    58    27    54    1
    59    27    55    1
    60    28    56    1
    61    28    57    1
    62    29    58    1
    63    29    59    1
    64    30    60    1
    65    31    61    1
    66    32    62    1
    67    34    63    1
    68    35    64    1
    69    36    65    1
