
     RDKit          3D

 57 61  0  0  0  0  0  0  0  0999 V2000
   -3.7781    0.3759   -0.1673 O   0  0  0  0  0  0  0  0  0  0  0  0
   -4.0624   -0.7353   -0.6676 C   0  0  0  0  0  0  0  0  0  0  0  0
   -3.0647   -1.4565   -1.3728 N   0  0  0  0  0  0  0  0  0  0  0  0
   -1.7556   -0.9316   -1.5147 C   0  0  0  0  0  0  0  0  0  0  0  0
   -1.4890   -0.1415   -2.6121 C   0  0  0  0  0  0  0  0  0  0  0  0
   -0.2212    0.3846   -2.7772 C   0  0  0  0  0  0  0  0  0  0  0  0
    0.7738    0.1109   -1.8331 C   0  0  0  0  0  0  0  0  0  0  0  0
    0.5180   -0.6773   -0.7331 C   0  0  0  0  0  0  0  0  0  0  0  0
    1.6087   -0.9156    0.2056 C   0  0  0  0  0  0  0  0  0  0  0  0
    1.4768   -1.6863    1.3422 C   0  0  0  0  0  0  0  0  0  0  0  0
    2.5001   -1.8948    2.1992 N   0  0  0  0  0  0  0  0  0  0  0  0
    2.6148   -2.5985    3.3590 C   0  0  0  0  0  0  0  0  0  0  0  0
    3.9018   -2.4775    3.8374 C   0  0  0  0  0  0  0  0  0  0  0  0
    4.5511   -1.6990    2.9569 N   0  0  0  0  0  0  0  0  0  0  0  0
    3.7044   -1.3473    1.9676 C   0  0  0  0  0  0  0  0  0  0  0  0
    3.8768   -0.5708    0.8429 C   0  0  0  0  0  0  0  0  0  0  0  0
    5.1466    0.0101    0.5934 N   0  0  0  0  0  0  0  0  0  0  0  0
    5.3871    0.8373   -0.5756 C   0  0  0  0  0  0  0  0  0  0  0  0
    6.7713    1.3301   -0.6276 C   0  0  0  0  0  0  0  0  0  0  0  0
    7.0464    2.5381   -0.0155 C   0  0  0  0  0  0  0  0  0  0  0  0
    8.3220    3.0437   -0.0346 C   0  0  0  0  0  0  0  0  0  0  0  0
    9.3045    2.3598   -0.6509 N   0  0  0  0  0  0  0  0  0  0  0  0
    9.0654    1.1930   -1.2484 C   0  0  0  0  0  0  0  0  0  0  0  0
    7.8052    0.6777   -1.2384 C   0  0  0  0  0  0  0  0  0  0  0  0
    2.8302   -0.3808    0.0029 N   0  0  0  0  0  0  0  0  0  0  0  0
   -0.7479   -1.1829   -0.5990 C   0  0  0  0  0  0  0  0  0  0  0  0
   -5.3883   -1.2190   -0.4983 N   0  0  0  0  0  0  0  0  0  0  0  0
   -6.3970   -0.5063    0.2059 C   0  0  0  0  0  0  0  0  0  0  0  0
   -6.5758   -0.6872    1.5632 C   0  0  0  0  0  0  0  0  0  0  0  0
   -7.5668    0.0246    2.2087 C   0  0  0  0  0  0  0  0  0  0  0  0
   -8.3843    0.9108    1.5410 C   0  0  0  0  0  0  0  0  0  0  0  0
   -8.2092    1.0956    0.1813 C   0  0  0  0  0  0  0  0  0  0  0  0
   -9.0493    2.0342   -0.6165 C   0  0  0  0  0  0  0  0  0  0  0  0
   -9.4549    1.3316   -1.7452 F   0  0  0  0  0  0  0  0  0  0  0  0
  -10.1062    2.5022    0.1013 F   0  0  0  0  0  0  0  0  0  0  0  0
   -8.2329    3.0615   -1.0918 F   0  0  0  0  0  0  0  0  0  0  0  0
   -7.2141    0.3796   -0.4620 C   0  0  0  0  0  0  0  0  0  0  0  0
   -3.3247   -2.3776   -1.7795 H   0  0  0  0  0  0  0  0  0  0  0  0
   -2.2325    0.0910   -3.3614 H   0  0  0  0  0  0  0  0  0  0  0  0
   -0.0314    0.9975   -3.6374 H   0  0  0  0  0  0  0  0  0  0  0  0
    1.7355    0.5507   -2.0221 H   0  0  0  0  0  0  0  0  0  0  0  0
    0.5176   -2.1313    1.5406 H   0  0  0  0  0  0  0  0  0  0  0  0
    1.8175   -3.1507    3.8089 H   0  0  0  0  0  0  0  0  0  0  0  0
    4.3440   -2.9039    4.7336 H   0  0  0  0  0  0  0  0  0  0  0  0
    5.9159   -0.1670    1.2693 H   0  0  0  0  0  0  0  0  0  0  0  0
    5.2046    0.2176   -1.4733 H   0  0  0  0  0  0  0  0  0  0  0  0
    4.6981    1.7148   -0.6126 H   0  0  0  0  0  0  0  0  0  0  0  0
    6.2892    3.1234    0.4921 H   0  0  0  0  0  0  0  0  0  0  0  0
    8.6116    3.9842    0.4241 H   0  0  0  0  0  0  0  0  0  0  0  0
    9.8627    0.6551   -1.7390 H   0  0  0  0  0  0  0  0  0  0  0  0
    7.5952   -0.2663   -1.7179 H   0  0  0  0  0  0  0  0  0  0  0  0
   -0.9864   -1.7988    0.2406 H   0  0  0  0  0  0  0  0  0  0  0  0
   -5.6108   -2.1464   -0.9206 H   0  0  0  0  0  0  0  0  0  0  0  0
   -5.9581   -1.3730    2.1325 H   0  0  0  0  0  0  0  0  0  0  0  0
   -7.7285   -0.0974    3.2696 H   0  0  0  0  0  0  0  0  0  0  0  0
   -9.1646    1.4756    2.0314 H   0  0  0  0  0  0  0  0  0  0  0  0
   -7.0623    0.5097   -1.5204 H   0  0  0  0  0  0  0  0  0  0  0  0
  1  2  2  0
  2  3  1  0
  3  4  1  0
  4  5  2  0
  5  6  1  0
  6  7  2  0
  7  8  1  0
  8  9  1  0
  9 10  2  0
 10 11  1  0
 11 12  1  0
 12 13  2  0
 13 14  1  0
 14 15  2  0
 15 16  1  0
 16 17  1  0
 17 18  1  0
 18 19  1  0
 19 20  2  0
 20 21  1  0
 21 22  2  0
 22 23  1  0
 23 24  2  0
 16 25  2  0
  8 26  2  0
  2 27  1  0
 27 28  1  0
 28 29  2  0
 29 30  1  0
 30 31  2  0
 31 32  1  0
 32 33  1  0
 33 34  1  0
 33 35  1  0
 33 36  1  0
 32 37  2  0
 26  4  1  0
 37 28  1  0
 25  9  1  0
 15 11  1  0
 24 19  1  0
  3 38  1  0
  5 39  1  0
  6 40  1  0
  7 41  1  0
 10 42  1  0
 12 43  1  0
 13 44  1  0
 17 45  1  0
 18 46  1  0
 18 47  1  0
 20 48  1  0
 21 49  1  0
 23 50  1  0
 24 51  1  0
 26 52  1  0
 27 53  1  0
 29 54  1  0
 30 55  1  0
 31 56  1  0
 37 57  1  0
M  END
$$$$
