@<TRIPOS>MOLECULE
*****
 57 61 0 0 0
SMALL
GASTEIGER

@<TRIPOS>ATOM
      1 O          -3.7781    0.3759   -0.1673 O.2     1  UNL1       -0.2522
      2 C          -4.0624   -0.7353   -0.6676 C.2     1  UNL1        0.3081
      3 N          -3.0647   -1.4565   -1.3728 N.am    1  UNL1       -0.2692
      4 C          -1.7556   -0.9316   -1.5147 C.ar    1  UNL1        0.0354
      5 C          -1.4890   -0.1415   -2.6121 C.ar    1  UNL1       -0.0404
      6 C          -0.2212    0.3846   -2.7772 C.ar    1  UNL1       -0.0594
      7 C           0.7738    0.1109   -1.8331 C.ar    1  UNL1       -0.0524
      8 C           0.5180   -0.6773   -0.7331 C.ar    1  UNL1        0.0036
      9 C           1.6087   -0.9156    0.2056 C.ar    1  UNL1        0.0897
     10 C           1.4768   -1.6863    1.3422 C.ar    1  UNL1        0.0373
     11 N           2.5001   -1.8948    2.1992 N.ar    1  UNL1       -0.3018
     12 C           2.6148   -2.5985    3.3590 C.ar    1  UNL1        0.0294
     13 C           3.9018   -2.4775    3.8374 C.ar    1  UNL1        0.0465
     14 N           4.5511   -1.6990    2.9569 N.ar    1  UNL1       -0.2330
     15 C           3.7044   -1.3473    1.9676 C.ar    1  UNL1        0.1780
     16 C           3.8768   -0.5708    0.8429 C.ar    1  UNL1        0.1629
     17 N           5.1466    0.0101    0.5934 N.pl3   1  UNL1       -0.3220
     18 C           5.3871    0.8373   -0.5756 C.3     1  UNL1        0.0359
     19 C           6.7713    1.3301   -0.6276 C.ar    1  UNL1       -0.0275
     20 C           7.0464    2.5381   -0.0155 C.ar    1  UNL1       -0.0389
     21 C           8.3220    3.0437   -0.0346 C.ar    1  UNL1        0.0279
     22 N           9.3045    2.3598   -0.6509 N.ar    1  UNL1       -0.2632
     23 C           9.0654    1.1930   -1.2484 C.ar    1  UNL1        0.0279
     24 C           7.8052    0.6777   -1.2384 C.ar    1  UNL1       -0.0389
     25 N           2.8302   -0.3808    0.0029 N.ar    1  UNL1       -0.2270
     26 C          -0.7479   -1.1829   -0.5990 C.ar    1  UNL1       -0.0312
     27 N          -5.3883   -1.2190   -0.4983 N.am    1  UNL1       -0.2692
     28 C          -6.3970   -0.5063    0.2059 C.ar    1  UNL1        0.0353
     29 C          -6.5758   -0.6872    1.5632 C.ar    1  UNL1       -0.0404
     30 C          -7.5668    0.0246    2.2087 C.ar    1  UNL1       -0.0595
     31 C          -8.3843    0.9108    1.5410 C.ar    1  UNL1       -0.0500
     32 C          -8.2092    1.0956    0.1813 C.ar    1  UNL1        0.0566
     33 C          -9.0493    2.0342   -0.6165 C.3     1  UNL1        0.4175
     34 F          -9.4549    1.3316   -1.7452 F       1  UNL1       -0.1659
     35 F         -10.1062    2.5022    0.1013 F       1  UNL1       -0.1659
     36 F          -8.2329    3.0615   -1.0918 F       1  UNL1       -0.1659
     37 C          -7.2141    0.3796   -0.4620 C.ar    1  UNL1       -0.0288
     38 H          -3.3247   -2.3776   -1.7795 H       1  UNL1        0.1564
     39 H          -2.2325    0.0910   -3.3614 H       1  UNL1        0.0636
     40 H          -0.0314    0.9975   -3.6374 H       1  UNL1        0.0618
     41 H           1.7355    0.5507   -2.0221 H       1  UNL1        0.0624
     42 H           0.5176   -2.1313    1.5406 H       1  UNL1        0.0835
     43 H           1.8175   -3.1507    3.8089 H       1  UNL1        0.0829
     44 H           4.3440   -2.9039    4.7336 H       1  UNL1        0.0845
     45 H           5.9159   -0.1670    1.2693 H       1  UNL1        0.1479
     46 H           5.2046    0.2176   -1.4733 H       1  UNL1        0.0511
     47 H           4.6981    1.7148   -0.6126 H       1  UNL1        0.0511
     48 H           6.2892    3.1234    0.4921 H       1  UNL1        0.0636
     49 H           8.6116    3.9842    0.4241 H       1  UNL1        0.0829
     50 H           9.8627    0.6551   -1.7390 H       1  UNL1        0.0829
     51 H           7.5952   -0.2663   -1.7179 H       1  UNL1        0.0636
     52 H          -0.9864   -1.7988    0.2406 H       1  UNL1        0.0643
     53 H          -5.6108   -2.1464   -0.9206 H       1  UNL1        0.1564
     54 H          -5.9581   -1.3730    2.1325 H       1  UNL1        0.0636
     55 H          -7.7285   -0.0974    3.2696 H       1  UNL1        0.0618
     56 H          -9.1646    1.4756    2.0314 H       1  UNL1        0.0623
     57 H          -7.0623    0.5097   -1.5204 H       1  UNL1        0.0642
@<TRIPOS>BOND
     1     1     2    2
     2     2     3   am
     3     3     4    1
     4     4     5   ar
     5     5     6   ar
     6     6     7   ar
     7     7     8   ar
     8     8     9    1
     9     9    10   ar
    10    10    11   ar
    11    11    12   ar
    12    12    13   ar
    13    13    14   ar
    14    14    15   ar
    15    15    16   ar
    16    16    17    1
    17    17    18    1
    18    18    19    1
    19    19    20   ar
    20    20    21   ar
    21    21    22   ar
    22    22    23   ar
    23    23    24   ar
    24    16    25   ar
    25     8    26   ar
    26     2    27   am
    27    27    28    1
    28    28    29   ar
    29    29    30   ar
    30    30    31   ar
    31    31    32   ar
    32    32    33    1
    33    33    34    1
    34    33    35    1
    35    33    36    1
    36    32    37   ar
    37    26     4   ar
    38    37    28   ar
    39    25     9   ar
    40    15    11   ar
    41    24    19   ar
    42     3    38    1
    43     5    39    1
    44     6    40    1
    45     7    41    1
    46    10    42    1
    47    12    43    1
    48    13    44    1
    49    17    45    1
    50    18    46    1
    51    18    47    1
    52    20    48    1
    53    21    49    1
    54    23    50    1
    55    24    51    1
    56    26    52    1
    57    27    53    1
    58    29    54    1
    59    30    55    1
    60    31    56    1
    61    37    57    1
