@<TRIPOS>MOLECULE
*****
 52 57 0 0 0
SMALL
GASTEIGER

@<TRIPOS>ATOM
      1 C           3.6774    0.6067    3.1962 C.3     1  UNL1       -0.0361
      2 C           3.2766    0.2588    1.8100 C.ar    1  UNL1       -0.0041
      3 C           1.9392    0.1066    1.5073 C.ar    1  UNL1       -0.0324
      4 C           1.5388   -0.2179    0.2219 C.ar    1  UNL1        0.0545
      5 N           0.2094   -0.3947   -0.1884 N.am    1  UNL1       -0.2529
      6 C          -0.5116   -1.6214   -0.1382 C.2     1  UNL1        0.2553
      7 O          -0.1027   -2.7226    0.3124 O.2     1  UNL1       -0.2695
      8 C          -1.8408   -1.4326   -0.6998 C.ar    1  UNL1        0.0834
      9 C          -3.0326   -2.0134   -1.0398 C.ar    1  UNL1        0.0785
     10 C          -3.5236   -3.3968   -0.8610 C.3     1  UNL1        0.0039
     11 C          -4.4520   -3.5449    0.3419 C.3     1  UNL1       -0.0441
     12 C          -3.0883   -4.2659    0.2281 C.3     1  UNL1       -0.0441
     13 N          -3.7948   -1.0510   -1.6119 N.ar    1  UNL1       -0.1751
     14 N          -3.1162    0.0994   -1.6352 N.ar    1  UNL1       -0.2682
     15 C          -3.6373    1.3416   -2.2021 C.3     1  UNL1        0.0306
     16 C          -1.9132   -0.0898   -1.0837 C.ar    1  UNL1        0.0765
     17 C          -0.6662    0.5901   -0.7287 C.3     1  UNL1        0.0988
     18 C          -0.8873    1.7449    0.1370 C.ar    1  UNL1       -0.0207
     19 C           0.1770    2.6046    0.4275 C.ar    1  UNL1       -0.0550
     20 C           0.0019    3.6863    1.2624 C.ar    1  UNL1       -0.0431
     21 C          -1.2130    3.9725    1.8453 C.ar    1  UNL1        0.0410
     22 CL         -1.4453    5.3451    2.9075 Cl      1  UNL1       -0.0835
     23 C          -2.2699    3.1356    1.5690 C.ar    1  UNL1       -0.0431
     24 C          -2.0919    2.0394    0.7233 C.ar    1  UNL1       -0.0550
     25 C           2.5536   -0.3778   -0.7285 C.ar    1  UNL1        0.0344
     26 N           3.8403   -0.2360   -0.4568 N.ar    1  UNL1       -0.2823
     27 C           4.9396   -0.3538   -1.2488 C.ar    1  UNL1        0.1688
     28 C           4.9599   -0.6918   -2.7023 C.3     1  UNL1        0.1499
     29 F           4.8914    0.4292   -3.4965 F       1  UNL1       -0.2407
     30 N           5.9814   -0.1002   -0.4344 N.ar    1  UNL1       -0.1310
     31 N           5.5493    0.1601    0.7937 N.ar    1  UNL1       -0.1291
     32 C           4.2056    0.0790    0.7971 C.ar    1  UNL1        0.1642
     33 H           4.6761    1.0965    3.1689 H       1  UNL1        0.0279
     34 H           3.7944   -0.3115    3.8039 H       1  UNL1        0.0279
     35 H           2.9474    1.3253    3.6246 H       1  UNL1        0.0279
     36 H           1.1535    0.2296    2.2398 H       1  UNL1        0.0640
     37 H          -3.9619   -3.9022   -1.7704 H       1  UNL1        0.0365
     38 H          -5.3378   -4.1805    0.2769 H       1  UNL1        0.0272
     39 H          -4.4525   -2.7273    1.1071 H       1  UNL1        0.0272
     40 H          -3.1741   -5.3791    0.0474 H       1  UNL1        0.0272
     41 H          -2.3465   -4.0394    0.9934 H       1  UNL1        0.0272
     42 H          -4.4306    1.7804   -1.5461 H       1  UNL1        0.0473
     43 H          -4.0197    1.1699   -3.2207 H       1  UNL1        0.0473
     44 H          -2.8234    2.0966   -2.2231 H       1  UNL1        0.0473
     45 H          -0.2450    0.9995   -1.7048 H       1  UNL1        0.0620
     46 H           1.1435    2.3910   -0.0339 H       1  UNL1        0.0621
     47 H           0.8190    4.3615    1.4967 H       1  UNL1        0.0632
     48 H          -3.2599    3.3155    2.0054 H       1  UNL1        0.0632
     49 H          -2.9439    1.3866    0.5337 H       1  UNL1        0.0621
     50 H           2.2715   -0.6331   -1.7487 H       1  UNL1        0.0833
     51 H           4.1328   -1.4200   -2.9472 H       1  UNL1        0.0697
     52 H           5.9026   -1.2487   -2.9272 H       1  UNL1        0.0697
@<TRIPOS>BOND
     1     1     2    1
     2     2     3   ar
     3     3     4   ar
     4     4     5    1
     5     5     6   am
     6     6     7    2
     7     6     8    1
     8     8     9   ar
     9     9    10    1
    10    10    11    1
    11    11    12    1
    12     9    13   ar
    13    13    14   ar
    14    14    15    1
    15    14    16   ar
    16    16    17    1
    17    17    18    1
    18    18    19   ar
    19    19    20   ar
    20    20    21   ar
    21    21    22    1
    22    21    23   ar
    23    23    24   ar
    24     4    25   ar
    25    25    26   ar
    26    26    27   ar
    27    27    28    1
    28    28    29    1
    29    27    30   ar
    30    30    31   ar
    31    31    32   ar
    32    32     2   ar
    33    17     5    1
    34    24    18   ar
    35    32    26   ar
    36    16     8   ar
    37    12    10    1
    38     1    33    1
    39     1    34    1
    40     1    35    1
    41     3    36    1
    42    10    37    1
    43    11    38    1
    44    11    39    1
    45    12    40    1
    46    12    41    1
    47    15    42    1
    48    15    43    1
    49    15    44    1
    50    17    45    1
    51    19    46    1
    52    20    47    1
    53    23    48    1
    54    24    49    1
    55    25    50    1
    56    28    51    1
    57    28    52    1
