
     RDKit          3D

 52 57  0  0  0  0  0  0  0  0999 V2000
    3.6774    0.6067    3.1962 C   0  0  0  0  0  0  0  0  0  0  0  0
    3.2766    0.2588    1.8100 C   0  0  0  0  0  0  0  0  0  0  0  0
    1.9392    0.1066    1.5073 C   0  0  0  0  0  0  0  0  0  0  0  0
    1.5388   -0.2179    0.2219 C   0  0  0  0  0  0  0  0  0  0  0  0
    0.2094   -0.3947   -0.1884 N   0  0  0  0  0  0  0  0  0  0  0  0
   -0.5116   -1.6214   -0.1382 C   0  0  0  0  0  0  0  0  0  0  0  0
   -0.1027   -2.7226    0.3124 O   0  0  0  0  0  0  0  0  0  0  0  0
   -1.8408   -1.4326   -0.6998 C   0  0  0  0  0  0  0  0  0  0  0  0
   -3.0326   -2.0134   -1.0398 C   0  0  0  0  0  0  0  0  0  0  0  0
   -3.5236   -3.3968   -0.8610 C   0  0  0  0  0  0  0  0  0  0  0  0
   -4.4520   -3.5449    0.3419 C   0  0  0  0  0  0  0  0  0  0  0  0
   -3.0883   -4.2659    0.2281 C   0  0  0  0  0  0  0  0  0  0  0  0
   -3.7948   -1.0510   -1.6119 N   0  0  0  0  0  0  0  0  0  0  0  0
   -3.1162    0.0994   -1.6352 N   0  0  0  0  0  0  0  0  0  0  0  0
   -3.6373    1.3416   -2.2021 C   0  0  0  0  0  0  0  0  0  0  0  0
   -1.9132   -0.0898   -1.0837 C   0  0  0  0  0  0  0  0  0  0  0  0
   -0.6662    0.5901   -0.7287 C   0  0  0  0  0  0  0  0  0  0  0  0
   -0.8873    1.7449    0.1370 C   0  0  0  0  0  0  0  0  0  0  0  0
    0.1770    2.6046    0.4275 C   0  0  0  0  0  0  0  0  0  0  0  0
    0.0019    3.6863    1.2624 C   0  0  0  0  0  0  0  0  0  0  0  0
   -1.2130    3.9725    1.8453 C   0  0  0  0  0  0  0  0  0  0  0  0
   -1.4453    5.3451    2.9075 Cl  0  0  0  0  0  0  0  0  0  0  0  0
   -2.2699    3.1356    1.5690 C   0  0  0  0  0  0  0  0  0  0  0  0
   -2.0919    2.0394    0.7233 C   0  0  0  0  0  0  0  0  0  0  0  0
    2.5536   -0.3778   -0.7285 C   0  0  0  0  0  0  0  0  0  0  0  0
    3.8403   -0.2360   -0.4568 N   0  0  0  0  0  0  0  0  0  0  0  0
    4.9396   -0.3538   -1.2488 C   0  0  0  0  0  0  0  0  0  0  0  0
    4.9599   -0.6918   -2.7023 C   0  0  0  0  0  0  0  0  0  0  0  0
    4.8914    0.4292   -3.4965 F   0  0  0  0  0  0  0  0  0  0  0  0
    5.9814   -0.1002   -0.4344 N   0  0  0  0  0  0  0  0  0  0  0  0
    5.5493    0.1601    0.7937 N   0  0  0  0  0  0  0  0  0  0  0  0
    4.2056    0.0790    0.7971 C   0  0  0  0  0  0  0  0  0  0  0  0
    4.6761    1.0965    3.1689 H   0  0  0  0  0  0  0  0  0  0  0  0
    3.7944   -0.3115    3.8039 H   0  0  0  0  0  0  0  0  0  0  0  0
    2.9474    1.3253    3.6246 H   0  0  0  0  0  0  0  0  0  0  0  0
    1.1535    0.2296    2.2398 H   0  0  0  0  0  0  0  0  0  0  0  0
   -3.9619   -3.9022   -1.7704 H   0  0  0  0  0  0  0  0  0  0  0  0
   -5.3378   -4.1805    0.2769 H   0  0  0  0  0  0  0  0  0  0  0  0
   -4.4525   -2.7273    1.1071 H   0  0  0  0  0  0  0  0  0  0  0  0
   -3.1741   -5.3791    0.0474 H   0  0  0  0  0  0  0  0  0  0  0  0
   -2.3465   -4.0394    0.9934 H   0  0  0  0  0  0  0  0  0  0  0  0
   -4.4306    1.7804   -1.5461 H   0  0  0  0  0  0  0  0  0  0  0  0
   -4.0197    1.1699   -3.2207 H   0  0  0  0  0  0  0  0  0  0  0  0
   -2.8234    2.0966   -2.2231 H   0  0  0  0  0  0  0  0  0  0  0  0
   -0.2450    0.9995   -1.7048 H   0  0  0  0  0  0  0  0  0  0  0  0
    1.1435    2.3910   -0.0339 H   0  0  0  0  0  0  0  0  0  0  0  0
    0.8190    4.3615    1.4967 H   0  0  0  0  0  0  0  0  0  0  0  0
   -3.2599    3.3155    2.0054 H   0  0  0  0  0  0  0  0  0  0  0  0
   -2.9439    1.3866    0.5337 H   0  0  0  0  0  0  0  0  0  0  0  0
    2.2715   -0.6331   -1.7487 H   0  0  0  0  0  0  0  0  0  0  0  0
    4.1328   -1.4200   -2.9472 H   0  0  0  0  0  0  0  0  0  0  0  0
    5.9026   -1.2487   -2.9272 H   0  0  0  0  0  0  0  0  0  0  0  0
  1  2  1  0
  2  3  2  0
  3  4  1  0
  4  5  1  0
  5  6  1  0
  6  7  2  0
  6  8  1  0
  8  9  1  0
  9 10  1  0
 10 11  1  0
 11 12  1  0
  9 13  2  0
 13 14  1  0
 14 15  1  0
 14 16  1  0
 16 17  1  0
 17 18  1  0
 18 19  2  0
 19 20  1  0
 20 21  2  0
 21 22  1  0
 21 23  1  0
 23 24  2  0
  4 25  2  0
 25 26  1  0
 26 27  1  0
 27 28  1  0
 28 29  1  0
 27 30  2  0
 30 31  1  0
 31 32  2  0
 32  2  1  0
 17  5  1  0
 24 18  1  0
 32 26  1  0
 16  8  2  0
 12 10  1  0
  1 33  1  0
  1 34  1  0
  1 35  1  0
  3 36  1  0
 10 37  1  0
 11 38  1  0
 11 39  1  0
 12 40  1  0
 12 41  1  0
 15 42  1  0
 15 43  1  0
 15 44  1  0
 17 45  1  0
 19 46  1  0
 20 47  1  0
 23 48  1  0
 24 49  1  0
 25 50  1  0
 28 51  1  0
 28 52  1  0
M  END
$$$$
