@<TRIPOS>MOLECULE
*****
 58 61 0 0 0
SMALL
GASTEIGER

@<TRIPOS>ATOM
      1 C           7.1013   -0.2501    0.3481 C.3     1  UNL1        0.0945
      2 C           5.9446   -1.1557    0.5710 C.3     1  UNL1       -0.0069
      3 C           4.6416   -0.4947    0.6349 C.ar    1  UNL1       -0.0456
      4 C           4.1923    0.0227    1.8558 C.ar    1  UNL1       -0.0551
      5 C           2.9280    0.6388    1.8800 C.ar    1  UNL1       -0.0197
      6 C           2.1214    0.7489    0.7462 C.ar    1  UNL1        0.1207
      7 O           1.0199    1.3753    1.1245 O.3     1  UNL1       -0.4880
      8 C          -0.1767    1.8242    0.6647 C.3     1  UNL1        0.1288
      9 C          -1.1715    0.8271    0.1513 C.3     1  UNL1        0.1418
     10 C          -0.6951    0.0935   -1.0741 C.3     1  UNL1       -0.0217
     11 C          -1.3992   -0.1846    1.2308 C.3     1  UNL1       -0.0058
     12 C          -2.7477   -0.0690    1.8958 C.3     1  UNL1       -0.0201
     13 C          -3.8453   -0.0469    0.8840 C.ar    1  UNL1        0.0011
     14 C          -5.0084   -0.7755    1.0102 C.ar    1  UNL1       -0.0021
     15 C          -5.1998   -1.6283    2.1979 C.3     1  UNL1       -0.0359
     16 C          -5.9516   -0.6623   -0.0081 C.ar    1  UNL1        0.1234
     17 O          -7.1362   -1.3818    0.0846 O.3     1  UNL1       -0.5062
     18 C          -5.7299    0.1503   -1.1048 C.ar    1  UNL1       -0.0024
     19 C          -6.7259    0.2860   -2.2058 C.3     1  UNL1       -0.0359
     20 C          -4.5362    0.8610   -1.1755 C.ar    1  UNL1       -0.0021
     21 C          -4.3284    1.7323   -2.3766 C.3     1  UNL1       -0.0359
     22 C          -3.5559    0.7930   -0.1959 C.ar    1  UNL1        0.1282
     23 O          -2.3816    1.4892   -0.2604 O.3     1  UNL1       -0.4820
     24 C           2.6655    0.2065   -0.3919 C.ar    1  UNL1       -0.0197
     25 C           3.8831   -0.4110   -0.5110 C.ar    1  UNL1       -0.0551
     26 S           8.6663   -1.2192    0.2923 S.3     1  UNL1       -0.0542
     27 C           9.4783   -0.2226   -0.9549 C.2     1  UNL1        0.2789
     28 O          10.6865   -0.4628   -1.1924 O.2     1  UNL1       -0.2625
     29 N           8.4782    0.6785   -1.4180 N.am    1  UNL1       -0.2463
     30 C           7.1596    0.3953   -0.9817 C.2     1  UNL1        0.2336
     31 O           6.3158    0.7766   -1.8659 O.2     1  UNL1       -0.2741
     32 H           7.2629    0.4754    1.1738 H       1  UNL1        0.0515
     33 H           5.9122   -1.9229   -0.2302 H       1  UNL1        0.0329
     34 H           6.0970   -1.7216    1.5265 H       1  UNL1        0.0329
     35 H           4.8708   -0.0971    2.6988 H       1  UNL1        0.0621
     36 H           2.7517    0.9788    2.9147 H       1  UNL1        0.0654
     37 H          -0.0442    2.6293   -0.1372 H       1  UNL1        0.0737
     38 H          -0.6889    2.3714    1.5089 H       1  UNL1        0.0737
     39 H          -0.0444   -0.7789   -0.8101 H       1  UNL1        0.0269
     40 H          -0.2579    0.7432   -1.8529 H       1  UNL1        0.0269
     41 H          -1.6092   -0.3646   -1.5384 H       1  UNL1        0.0269
     42 H          -0.6405   -0.1094    2.0574 H       1  UNL1        0.0308
     43 H          -1.3325   -1.2232    0.8479 H       1  UNL1        0.0308
     44 H          -2.8888   -0.8661    2.6279 H       1  UNL1        0.0316
     45 H          -2.7926    0.9008    2.4327 H       1  UNL1        0.0316
     46 H          -6.2289   -2.0241    2.1735 H       1  UNL1        0.0279
     47 H          -4.5071   -2.5024    2.0845 H       1  UNL1        0.0279
     48 H          -4.9062   -1.1465    3.1404 H       1  UNL1        0.0279
     49 H          -7.0633   -2.3701   -0.1833 H       1  UNL1        0.2922
     50 H          -7.5650   -0.3925   -2.0135 H       1  UNL1        0.0279
     51 H          -6.2517    0.1013   -3.1862 H       1  UNL1        0.0279
     52 H          -7.1250    1.3286   -2.2070 H       1  UNL1        0.0279
     53 H          -5.2897    2.0536   -2.8101 H       1  UNL1        0.0279
     54 H          -3.6478    2.5693   -2.1496 H       1  UNL1        0.0279
     55 H          -3.8277    1.1182   -3.1636 H       1  UNL1        0.0279
     56 H           2.0511    0.3115   -1.2439 H       1  UNL1        0.0654
     57 H           4.1503   -0.7898   -1.4862 H       1  UNL1        0.0621
     58 H           8.9225    1.4293   -2.0300 H       1  UNL1        0.1583
@<TRIPOS>BOND
     1     1     2    1
     2     2     3    1
     3     3     4   ar
     4     4     5   ar
     5     5     6   ar
     6     6     7    1
     7     7     8    1
     8     9     8    1
     9     9    10    1
    10     9    11    1
    11    11    12    1
    12    12    13    1
    13    13    14   ar
    14    14    15    1
    15    14    16   ar
    16    16    17    1
    17    16    18   ar
    18    18    19    1
    19    18    20   ar
    20    20    21    1
    21    20    22   ar
    22    22    23    1
    23     6    24   ar
    24    24    25   ar
    25     1    26    1
    26    26    27    1
    27    27    28    2
    28    27    29   am
    29    29    30   am
    30    30    31    2
    31    30     1    1
    32    25     3   ar
    33    23     9    1
    34    22    13   ar
    35     1    32    1
    36     2    33    1
    37     2    34    1
    38     4    35    1
    39     5    36    1
    40     8    37    1
    41     8    38    1
    42    10    39    1
    43    10    40    1
    44    10    41    1
    45    11    42    1
    46    11    43    1
    47    12    44    1
    48    12    45    1
    49    15    46    1
    50    15    47    1
    51    15    48    1
    52    17    49    1
    53    19    50    1
    54    19    51    1
    55    19    52    1
    56    21    53    1
    57    21    54    1
    58    21    55    1
    59    24    56    1
    60    25    57    1
    61    29    58    1
