
     RDKit          3D

 58 61  0  0  0  0  0  0  0  0999 V2000
    7.1013   -0.2501    0.3481 C   0  0  1  0  0  0  0  0  0  0  0  0
    5.9446   -1.1557    0.5710 C   0  0  0  0  0  0  0  0  0  0  0  0
    4.6416   -0.4947    0.6349 C   0  0  0  0  0  0  0  0  0  0  0  0
    4.1923    0.0227    1.8558 C   0  0  0  0  0  0  0  0  0  0  0  0
    2.9280    0.6388    1.8800 C   0  0  0  0  0  0  0  0  0  0  0  0
    2.1214    0.7489    0.7462 C   0  0  0  0  0  0  0  0  0  0  0  0
    1.0199    1.3753    1.1245 O   0  0  0  0  0  0  0  0  0  0  0  0
   -0.1767    1.8242    0.6647 C   0  0  0  0  0  0  0  0  0  0  0  0
   -1.1715    0.8271    0.1513 C   0  0  1  0  0  0  0  0  0  0  0  0
   -0.6951    0.0935   -1.0741 C   0  0  0  0  0  0  0  0  0  0  0  0
   -1.3992   -0.1846    1.2308 C   0  0  0  0  0  0  0  0  0  0  0  0
   -2.7477   -0.0690    1.8958 C   0  0  0  0  0  0  0  0  0  0  0  0
   -3.8453   -0.0469    0.8840 C   0  0  0  0  0  0  0  0  0  0  0  0
   -5.0084   -0.7755    1.0102 C   0  0  0  0  0  0  0  0  0  0  0  0
   -5.1998   -1.6283    2.1979 C   0  0  0  0  0  0  0  0  0  0  0  0
   -5.9516   -0.6623   -0.0081 C   0  0  0  0  0  0  0  0  0  0  0  0
   -7.1362   -1.3818    0.0846 O   0  0  0  0  0  0  0  0  0  0  0  0
   -5.7299    0.1503   -1.1048 C   0  0  0  0  0  0  0  0  0  0  0  0
   -6.7259    0.2860   -2.2058 C   0  0  0  0  0  0  0  0  0  0  0  0
   -4.5362    0.8610   -1.1755 C   0  0  0  0  0  0  0  0  0  0  0  0
   -4.3284    1.7323   -2.3766 C   0  0  0  0  0  0  0  0  0  0  0  0
   -3.5559    0.7930   -0.1959 C   0  0  0  0  0  0  0  0  0  0  0  0
   -2.3816    1.4892   -0.2604 O   0  0  0  0  0  0  0  0  0  0  0  0
    2.6655    0.2065   -0.3919 C   0  0  0  0  0  0  0  0  0  0  0  0
    3.8831   -0.4110   -0.5110 C   0  0  0  0  0  0  0  0  0  0  0  0
    8.6663   -1.2192    0.2923 S   0  0  0  0  0  0  0  0  0  0  0  0
    9.4783   -0.2226   -0.9549 C   0  0  0  0  0  0  0  0  0  0  0  0
   10.6865   -0.4628   -1.1924 O   0  0  0  0  0  0  0  0  0  0  0  0
    8.4782    0.6785   -1.4180 N   0  0  0  0  0  0  0  0  0  0  0  0
    7.1596    0.3953   -0.9817 C   0  0  0  0  0  0  0  0  0  0  0  0
    6.3158    0.7766   -1.8659 O   0  0  0  0  0  0  0  0  0  0  0  0
    7.2629    0.4754    1.1738 H   0  0  0  0  0  0  0  0  0  0  0  0
    5.9122   -1.9229   -0.2302 H   0  0  0  0  0  0  0  0  0  0  0  0
    6.0970   -1.7216    1.5265 H   0  0  0  0  0  0  0  0  0  0  0  0
    4.8708   -0.0971    2.6988 H   0  0  0  0  0  0  0  0  0  0  0  0
    2.7517    0.9788    2.9147 H   0  0  0  0  0  0  0  0  0  0  0  0
   -0.0442    2.6293   -0.1372 H   0  0  0  0  0  0  0  0  0  0  0  0
   -0.6889    2.3714    1.5089 H   0  0  0  0  0  0  0  0  0  0  0  0
   -0.0444   -0.7789   -0.8101 H   0  0  0  0  0  0  0  0  0  0  0  0
   -0.2579    0.7432   -1.8529 H   0  0  0  0  0  0  0  0  0  0  0  0
   -1.6092   -0.3646   -1.5384 H   0  0  0  0  0  0  0  0  0  0  0  0
   -0.6405   -0.1094    2.0574 H   0  0  0  0  0  0  0  0  0  0  0  0
   -1.3325   -1.2232    0.8479 H   0  0  0  0  0  0  0  0  0  0  0  0
   -2.8888   -0.8661    2.6279 H   0  0  0  0  0  0  0  0  0  0  0  0
   -2.7926    0.9008    2.4327 H   0  0  0  0  0  0  0  0  0  0  0  0
   -6.2289   -2.0241    2.1735 H   0  0  0  0  0  0  0  0  0  0  0  0
   -4.5071   -2.5024    2.0845 H   0  0  0  0  0  0  0  0  0  0  0  0
   -4.9062   -1.1465    3.1404 H   0  0  0  0  0  0  0  0  0  0  0  0
   -7.0633   -2.3701   -0.1833 H   0  0  0  0  0  0  0  0  0  0  0  0
   -7.5650   -0.3925   -2.0135 H   0  0  0  0  0  0  0  0  0  0  0  0
   -6.2517    0.1013   -3.1862 H   0  0  0  0  0  0  0  0  0  0  0  0
   -7.1250    1.3286   -2.2070 H   0  0  0  0  0  0  0  0  0  0  0  0
   -5.2897    2.0536   -2.8101 H   0  0  0  0  0  0  0  0  0  0  0  0
   -3.6478    2.5693   -2.1496 H   0  0  0  0  0  0  0  0  0  0  0  0
   -3.8277    1.1182   -3.1636 H   0  0  0  0  0  0  0  0  0  0  0  0
    2.0511    0.3115   -1.2439 H   0  0  0  0  0  0  0  0  0  0  0  0
    4.1503   -0.7898   -1.4862 H   0  0  0  0  0  0  0  0  0  0  0  0
    8.9225    1.4293   -2.0300 H   0  0  0  0  0  0  0  0  0  0  0  0
  1  2  1  0
  2  3  1  0
  3  4  2  0
  4  5  1  0
  5  6  2  0
  6  7  1  0
  7  8  1  0
  9  8  1  1
  9 10  1  0
  9 11  1  0
 11 12  1  0
 12 13  1  0
 13 14  2  0
 14 15  1  0
 14 16  1  0
 16 17  1  0
 16 18  2  0
 18 19  1  0
 18 20  1  0
 20 21  1  0
 20 22  2  0
 22 23  1  0
  6 24  1  0
 24 25  2  0
  1 26  1  0
 26 27  1  0
 27 28  2  0
 27 29  1  0
 29 30  1  0
 30 31  2  0
 30  1  1  0
 25  3  1  0
 23  9  1  0
 22 13  1  0
  1 32  1  1
  2 33  1  0
  2 34  1  0
  4 35  1  0
  5 36  1  0
  8 37  1  0
  8 38  1  0
 10 39  1  0
 10 40  1  0
 10 41  1  0
 11 42  1  0
 11 43  1  0
 12 44  1  0
 12 45  1  0
 15 46  1  0
 15 47  1  0
 15 48  1  0
 17 49  1  0
 19 50  1  0
 19 51  1  0
 19 52  1  0
 21 53  1  0
 21 54  1  0
 21 55  1  0
 24 56  1  0
 25 57  1  0
 29 58  1  0
M  END
$$$$
