
     RDKit          3D

 45 47  0  0  0  0  0  0  0  0999 V2000
   -6.9688    1.5921   -0.2192 C   0  0  0  0  0  0  0  0  0  0  0  0
   -5.4624    1.7106   -0.3283 C   0  0  0  0  0  0  0  0  0  0  0  0
   -4.8895    0.3461   -0.0093 C   0  0  0  0  0  0  0  0  0  0  0  0
   -3.4051    0.3609   -0.0908 C   0  0  0  0  0  0  0  0  0  0  0  0
   -2.6972    1.4819   -0.4151 C   0  0  0  0  0  0  0  0  0  0  0  0
   -1.3100    1.4363   -0.4760 C   0  0  0  0  0  0  0  0  0  0  0  0
   -0.4900    2.9230   -0.8998 Cl  0  0  0  0  0  0  0  0  0  0  0  0
   -0.6035    0.2798   -0.2167 C   0  0  0  0  0  0  0  0  0  0  0  0
    0.6782   -0.0175   -0.2076 O   0  0  0  0  0  0  0  0  0  0  0  0
    0.8416   -1.3001    0.1125 C   0  0  0  0  0  0  0  0  0  0  0  0
    2.1621   -1.9715    0.2154 C   0  0  0  0  0  0  0  0  0  0  0  0
    3.2701   -1.0587   -0.0768 C   0  0  0  0  0  0  0  0  0  0  0  0
    3.8819   -0.3120    0.9170 C   0  0  0  0  0  0  0  0  0  0  0  0
    4.9257    0.5458    0.6318 C   0  0  0  0  0  0  0  0  0  0  0  0
    5.4032    0.6952   -0.6545 C   0  0  0  0  0  0  0  0  0  0  0  0
    6.4548    1.5524   -0.9747 O   0  0  0  0  0  0  0  0  0  0  0  0
    7.0667    2.3075    0.0583 C   0  0  0  0  0  0  0  0  0  0  0  0
    4.7938   -0.0484   -1.6429 C   0  0  0  0  0  0  0  0  0  0  0  0
    3.7520   -0.9051   -1.3612 C   0  0  0  0  0  0  0  0  0  0  0  0
   -0.3943   -1.8588    0.3203 C   0  0  0  0  0  0  0  0  0  0  0  0
   -0.7111   -3.2530    0.6941 C   0  0  0  0  0  0  0  0  0  0  0  0
   -1.3297   -0.8705    0.1161 C   0  0  0  0  0  0  0  0  0  0  0  0
   -2.7153   -0.8031    0.1713 C   0  0  0  0  0  0  0  0  0  0  0  0
   -3.4071   -1.9471    0.5006 O   0  0  0  0  0  0  0  0  0  0  0  0
   -7.4624    2.5682   -0.1652 H   0  0  0  0  0  0  0  0  0  0  0  0
   -7.2173    0.9161    0.6176 H   0  0  0  0  0  0  0  0  0  0  0  0
   -7.3116    1.0639   -1.1500 H   0  0  0  0  0  0  0  0  0  0  0  0
   -5.0427    2.4825    0.3262 H   0  0  0  0  0  0  0  0  0  0  0  0
   -5.1947    1.9602   -1.3664 H   0  0  0  0  0  0  0  0  0  0  0  0
   -5.2412    0.0017    0.9747 H   0  0  0  0  0  0  0  0  0  0  0  0
   -5.2361   -0.3925   -0.7614 H   0  0  0  0  0  0  0  0  0  0  0  0
   -3.2381    2.3943   -0.6205 H   0  0  0  0  0  0  0  0  0  0  0  0
    2.2238   -2.4349    1.2265 H   0  0  0  0  0  0  0  0  0  0  0  0
    2.2132   -2.8201   -0.5050 H   0  0  0  0  0  0  0  0  0  0  0  0
    3.5260   -0.4142    1.9189 H   0  0  0  0  0  0  0  0  0  0  0  0
    5.3845    1.1201    1.4447 H   0  0  0  0  0  0  0  0  0  0  0  0
    6.3553    3.0845    0.3997 H   0  0  0  0  0  0  0  0  0  0  0  0
    8.0233    2.7481   -0.3062 H   0  0  0  0  0  0  0  0  0  0  0  0
    7.2917    1.5958    0.8976 H   0  0  0  0  0  0  0  0  0  0  0  0
    5.1805    0.0802   -2.6483 H   0  0  0  0  0  0  0  0  0  0  0  0
    3.2937   -1.4780   -2.1698 H   0  0  0  0  0  0  0  0  0  0  0  0
   -1.6944   -3.5915    0.3040 H   0  0  0  0  0  0  0  0  0  0  0  0
    0.0387   -3.9771    0.3054 H   0  0  0  0  0  0  0  0  0  0  0  0
   -0.7969   -3.2843    1.8007 H   0  0  0  0  0  0  0  0  0  0  0  0
   -3.9410   -2.5092   -0.1192 H   0  0  0  0  0  0  0  0  0  0  0  0
  1  2  1  0
  2  3  1  0
  3  4  1  0
  4  5  2  0
  5  6  1  0
  6  7  1  0
  6  8  2  0
  8  9  1  0
  9 10  1  0
 10 11  1  0
 11 12  1  0
 12 13  2  0
 13 14  1  0
 14 15  2  0
 15 16  1  0
 16 17  1  0
 15 18  1  0
 18 19  2  0
 10 20  2  0
 20 21  1  0
 20 22  1  0
 22 23  2  0
 23 24  1  0
 23  4  1  0
 22  8  1  0
 19 12  1  0
  1 25  1  0
  1 26  1  0
  1 27  1  0
  2 28  1  0
  2 29  1  0
  3 30  1  0
  3 31  1  0
  5 32  1  0
 11 33  1  0
 11 34  1  0
 13 35  1  0
 14 36  1  0
 17 37  1  0
 17 38  1  0
 17 39  1  0
 18 40  1  0
 19 41  1  0
 21 42  1  0
 21 43  1  0
 21 44  1  0
 24 45  1  0
M  END
$$$$
