@<TRIPOS>MOLECULE
*****
 45 47 0 0 0
SMALL
GASTEIGER

@<TRIPOS>ATOM
      1 C          -6.9688    1.5921   -0.2192 C.3     1  UNL1       -0.0650
      2 C          -5.4624    1.7106   -0.3283 C.3     1  UNL1       -0.0518
      3 C          -4.8895    0.3461   -0.0093 C.3     1  UNL1       -0.0244
      4 C          -3.4051    0.3609   -0.0908 C.ar    1  UNL1       -0.0037
      5 C          -2.6972    1.4819   -0.4151 C.ar    1  UNL1       -0.0331
      6 C          -1.3100    1.4363   -0.4760 C.ar    1  UNL1        0.0842
      7 CL         -0.4900    2.9230   -0.8998 Cl      1  UNL1       -0.0797
      8 C          -0.6035    0.2798   -0.2167 C.ar    1  UNL1        0.1572
      9 O           0.6782   -0.0175   -0.2076 O.2     1  UNL1       -0.4575
     10 C           0.8416   -1.3001    0.1125 C.ar    1  UNL1        0.1137
     11 C           2.1621   -1.9715    0.2154 C.3     1  UNL1        0.0310
     12 C           3.2701   -1.0587   -0.0768 C.ar    1  UNL1       -0.0399
     13 C           3.8819   -0.3120    0.9170 C.ar    1  UNL1       -0.0547
     14 C           4.9257    0.5458    0.6318 C.ar    1  UNL1       -0.0197
     15 C           5.4032    0.6952   -0.6545 C.ar    1  UNL1        0.1201
     16 O           6.4548    1.5524   -0.9747 O.3     1  UNL1       -0.4951
     17 C           7.0667    2.3075    0.0583 C.3     1  UNL1        0.0788
     18 C           4.7938   -0.0484   -1.6429 C.ar    1  UNL1       -0.0197
     19 C           3.7520   -0.9051   -1.3612 C.ar    1  UNL1       -0.0547
     20 C          -0.3943   -1.8588    0.3203 C.ar    1  UNL1        0.0021
     21 C          -0.7111   -3.2530    0.6941 C.3     1  UNL1       -0.0357
     22 C          -1.3297   -0.8705    0.1161 C.ar    1  UNL1        0.0664
     23 C          -2.7153   -0.8031    0.1713 C.ar    1  UNL1        0.1311
     24 O          -3.4071   -1.9471    0.5006 O.3     1  UNL1       -0.5058
     25 H          -7.4624    2.5682   -0.1652 H       1  UNL1        0.0230
     26 H          -7.2173    0.9161    0.6176 H       1  UNL1        0.0230
     27 H          -7.3116    1.0639   -1.1500 H       1  UNL1        0.0230
     28 H          -5.0427    2.4825    0.3262 H       1  UNL1        0.0266
     29 H          -5.1947    1.9602   -1.3664 H       1  UNL1        0.0266
     30 H          -5.2412    0.0017    0.9747 H       1  UNL1        0.0314
     31 H          -5.2361   -0.3925   -0.7614 H       1  UNL1        0.0314
     32 H          -3.2381    2.3943   -0.6205 H       1  UNL1        0.0637
     33 H           2.2238   -2.4349    1.2265 H       1  UNL1        0.0392
     34 H           2.2132   -2.8201   -0.5050 H       1  UNL1        0.0392
     35 H           3.5260   -0.4142    1.9189 H       1  UNL1        0.0622
     36 H           5.3845    1.1201    1.4447 H       1  UNL1        0.0654
     37 H           6.3553    3.0845    0.3997 H       1  UNL1        0.0660
     38 H           8.0233    2.7481   -0.3062 H       1  UNL1        0.0660
     39 H           7.2917    1.5958    0.8976 H       1  UNL1        0.0660
     40 H           5.1805    0.0802   -2.6483 H       1  UNL1        0.0654
     41 H           3.2937   -1.4780   -2.1698 H       1  UNL1        0.0622
     42 H          -1.6944   -3.5915    0.3040 H       1  UNL1        0.0279
     43 H           0.0387   -3.9771    0.3054 H       1  UNL1        0.0279
     44 H          -0.7969   -3.2843    1.8007 H       1  UNL1        0.0279
     45 H          -3.9410   -2.5092   -0.1192 H       1  UNL1        0.2922
@<TRIPOS>BOND
     1     1     2    1
     2     2     3    1
     3     3     4    1
     4     4     5   ar
     5     5     6   ar
     6     6     7    1
     7     6     8   ar
     8     8     9   ar
     9     9    10   ar
    10    10    11    1
    11    11    12    1
    12    12    13   ar
    13    13    14   ar
    14    14    15   ar
    15    15    16    1
    16    16    17    1
    17    15    18   ar
    18    18    19   ar
    19    10    20   ar
    20    20    21    1
    21    20    22   ar
    22    22    23   ar
    23    23    24    1
    24    23     4   ar
    25    22     8   ar
    26    19    12   ar
    27     1    25    1
    28     1    26    1
    29     1    27    1
    30     2    28    1
    31     2    29    1
    32     3    30    1
    33     3    31    1
    34     5    32    1
    35    11    33    1
    36    11    34    1
    37    13    35    1
    38    14    36    1
    39    17    37    1
    40    17    38    1
    41    17    39    1
    42    18    40    1
    43    19    41    1
    44    21    42    1
    45    21    43    1
    46    21    44    1
    47    24    45    1
