@<TRIPOS>MOLECULE
*****
 66 70 0 0 0
SMALL
GASTEIGER

@<TRIPOS>ATOM
      1 C          -8.0636   -0.0445    4.0567 C.3     1  UNL1       -0.0188
      2 C          -8.2597    0.3974    2.6393 C.ar    1  UNL1        0.0811
      3 N          -9.2381    1.1988    2.1700 N.ar    1  UNL1       -0.1748
      4 N          -9.1197    1.3951    0.8685 N.ar    1  UNL1       -0.2724
      5 C          -9.9922    2.1938    0.0214 C.3     1  UNL1        0.0303
      6 C          -8.0261    0.6964    0.4835 C.ar    1  UNL1        0.0467
      7 C          -7.4695    0.0634    1.5696 C.ar    1  UNL1        0.0744
      8 N          -6.3349   -0.7755    1.6248 N.pl3   1  UNL1       -0.2809
      9 C          -5.5090   -1.1127    0.5187 C.ar    1  UNL1        0.2201
     10 N          -6.0604   -1.8975   -0.4321 N.ar    1  UNL1       -0.2226
     11 C          -5.3874   -2.3102   -1.5062 C.ar    1  UNL1        0.0332
     12 C          -4.0582   -1.9123   -1.6496 C.ar    1  UNL1       -0.0173
     13 C          -3.5053   -1.1255   -0.6928 C.ar    1  UNL1        0.0780
     14 C          -2.1413   -0.6294   -0.7642 C.ar    1  UNL1        0.0256
     15 C          -1.6985    0.5727   -0.1770 C.ar    1  UNL1        0.0120
     16 N          -0.3821    0.6880   -0.3621 N.ar    1  UNL1       -0.3586
     17 C           0.0821   -0.3819   -1.0467 C.ar    1  UNL1        0.0686
     18 C           1.3922   -0.7069   -1.4455 C.ar    1  UNL1        0.0576
     19 N           2.4064    0.2096   -1.1369 N.am    1  UNL1       -0.2825
     20 C           3.7768   -0.0711   -1.2371 C.2     1  UNL1        0.2342
     21 O           4.2273   -1.1767   -1.6086 O.2     1  UNL1       -0.2738
     22 C           4.7688    1.0038   -0.8789 C.3     1  UNL1        0.0848
     23 C           4.2897    1.7784    0.3228 C.3     1  UNL1       -0.0409
     24 N           6.0539    0.4341   -0.7499 N.3     1  UNL1       -0.2893
     25 C           6.2806   -0.4791    0.3046 C.3     1  UNL1        0.0124
     26 C           7.7220   -0.9434    0.2737 C.3     1  UNL1        0.0114
     27 N           8.5478    0.2042    0.5218 N.3     1  UNL1       -0.3029
     28 C           8.3717    0.6325    1.9177 C.3     1  UNL1       -0.0127
     29 C           8.3260    1.2999   -0.3748 C.3     1  UNL1        0.0114
     30 C           7.1563    1.1090   -1.3097 C.3     1  UNL1        0.0124
     31 C           1.6156   -1.8744   -2.1079 C.ar    1  UNL1       -0.0384
     32 C           0.5295   -2.7181   -2.3700 C.ar    1  UNL1       -0.0593
     33 C          -0.7409   -2.3727   -1.9668 C.ar    1  UNL1       -0.0518
     34 C          -1.0031   -1.1840   -1.2890 C.ar    1  UNL1        0.0107
     35 N          -4.2379   -0.7307    0.3835 N.ar    1  UNL1       -0.2142
     36 H          -7.5454    0.7385    4.6474 H       1  UNL1        0.0294
     37 H          -9.0638   -0.2999    4.4501 H       1  UNL1        0.0294
     38 H          -7.4612   -0.9865    4.0755 H       1  UNL1        0.0294
     39 H         -11.0398    1.8808    0.1998 H       1  UNL1        0.0473
     40 H          -9.8272    3.2687    0.1515 H       1  UNL1        0.0473
     41 H          -9.7619    1.9057   -1.0451 H       1  UNL1        0.0473
     42 H          -7.6376    0.6362   -0.5220 H       1  UNL1        0.0845
     43 H          -6.0691   -1.1853    2.5599 H       1  UNL1        0.1551
     44 H          -5.8001   -2.9324   -2.2814 H       1  UNL1        0.0831
     45 H          -3.5291   -2.2363   -2.5621 H       1  UNL1        0.0654
     46 H          -2.3577    1.2585    0.3309 H       1  UNL1        0.0814
     47 H           0.1842    1.4729   -0.0344 H       1  UNL1        0.1654
     48 H           2.1661    1.2001   -0.8048 H       1  UNL1        0.1549
     49 H           4.7912    1.7188   -1.7442 H       1  UNL1        0.0556
     50 H           5.1283    2.3115    0.7952 H       1  UNL1        0.0249
     51 H           3.5691    2.5424   -0.0373 H       1  UNL1        0.0249
     52 H           3.7386    1.1298    1.0493 H       1  UNL1        0.0249
     53 H           6.0012   -0.0959    1.3115 H       1  UNL1        0.0439
     54 H           5.6650   -1.3873    0.1645 H       1  UNL1        0.0439
     55 H           7.9024   -1.3508   -0.7389 H       1  UNL1        0.0439
     56 H           7.9294   -1.6944    1.0539 H       1  UNL1        0.0439
     57 H           8.0283   -0.2465    2.4759 H       1  UNL1        0.0391
     58 H           7.6465    1.4558    1.9045 H       1  UNL1        0.0391
     59 H           9.3834    0.9489    2.2688 H       1  UNL1        0.0391
     60 H           8.2886    2.2663    0.1719 H       1  UNL1        0.0439
     61 H           9.2430    1.3632   -1.0250 H       1  UNL1        0.0439
     62 H           7.5107    0.5181   -2.1901 H       1  UNL1        0.0439
     63 H           6.8849    2.1266   -1.6946 H       1  UNL1        0.0439
     64 H           2.5847   -2.2012   -2.4632 H       1  UNL1        0.0637
     65 H           0.7100   -3.6375   -2.8904 H       1  UNL1        0.0618
     66 H          -1.5816   -3.0368   -2.1476 H       1  UNL1        0.0624
@<TRIPOS>BOND
     1     1     2    1
     2     2     3   ar
     3     3     4   ar
     4     4     5    1
     5     4     6   ar
     6     6     7   ar
     7     7     8    1
     8     8     9    1
     9     9    10   ar
    10    10    11   ar
    11    11    12   ar
    12    12    13   ar
    13    13    14    1
    14    14    15   ar
    15    15    16   ar
    16    16    17   ar
    17    17    18   ar
    18    18    19    1
    19    19    20   am
    20    20    21    2
    21    20    22    1
    22    22    23    1
    23    22    24    1
    24    24    25    1
    25    25    26    1
    26    26    27    1
    27    27    28    1
    28    27    29    1
    29    29    30    1
    30    18    31   ar
    31    31    32   ar
    32    32    33   ar
    33    33    34   ar
    34    13    35   ar
    35     7     2   ar
    36    35     9   ar
    37    34    14   ar
    38    34    17   ar
    39    30    24    1
    40     1    36    1
    41     1    37    1
    42     1    38    1
    43     5    39    1
    44     5    40    1
    45     5    41    1
    46     6    42    1
    47     8    43    1
    48    11    44    1
    49    12    45    1
    50    15    46    1
    51    16    47    1
    52    19    48    1
    53    22    49    1
    54    23    50    1
    55    23    51    1
    56    23    52    1
    57    25    53    1
    58    25    54    1
    59    26    55    1
    60    26    56    1
    61    28    57    1
    62    28    58    1
    63    28    59    1
    64    29    60    1
    65    29    61    1
    66    30    62    1
    67    30    63    1
    68    31    64    1
    69    32    65    1
    70    33    66    1
