@<TRIPOS>MOLECULE
*****
 53 56 0 0 0
SMALL
GASTEIGER

@<TRIPOS>ATOM
      1 C          -5.1906   -2.2779   -1.3514 C.3     1  UNL1       -0.0331
      2 C          -3.8704   -1.8515   -0.9027 C.ar    1  UNL1       -0.0077
      3 S          -2.5340   -3.0700   -0.3848 S.2     1  UNL1       -0.0750
      4 C          -1.3700   -1.8387   -0.0183 C.ar    1  UNL1        0.0969
      5 C          -1.9871   -0.6055   -0.2734 C.ar    1  UNL1        0.0349
      6 C          -3.2417   -0.6485   -0.7236 C.ar    1  UNL1       -0.0293
      7 C          -4.0057    0.5954   -1.2126 C.3     1  UNL1       -0.0383
      8 C          -1.2693    0.6591    0.0340 C.2     1  UNL1        0.0769
      9 C          -1.9830    1.7647    0.5995 C.ar    1  UNL1        0.0007
     10 C          -1.3862    3.0075    0.6161 C.ar    1  UNL1       -0.0512
     11 C          -1.8877    4.0981    1.2701 C.ar    1  UNL1       -0.0428
     12 C          -3.0611    3.9608    1.9590 C.ar    1  UNL1        0.0410
     13 CL         -3.7542    5.3387    2.8206 Cl      1  UNL1       -0.0835
     14 C          -3.6795    2.7350    1.9625 C.ar    1  UNL1       -0.0428
     15 C          -3.1470    1.6281    1.2854 C.ar    1  UNL1       -0.0512
     16 N           0.0134    0.8490   -0.1667 N.2     1  UNL1       -0.2601
     17 C           0.9941   -0.0461   -0.6863 C.3     1  UNL1        0.2070
     18 C           2.3420    0.5506   -0.6392 C.2     1  UNL1        0.3401
     19 O           2.4690    1.7041   -0.1783 O.2     1  UNL1       -0.2479
     20 O           3.4241   -0.1340   -1.0855 O.3     1  UNL1       -0.4571
     21 C           4.7512    0.3257   -1.0924 C.3     1  UNL1        0.1053
     22 C           4.7861    1.5878   -1.9576 C.3     1  UNL1       -0.0254
     23 C           5.3095    0.6142    0.2561 C.3     1  UNL1       -0.0254
     24 C           5.6575   -0.6762   -1.7768 C.3     1  UNL1       -0.0254
     25 C           1.0854   -1.3436    0.0820 C.ar    1  UNL1        0.1741
     26 N           2.1393   -1.9521    0.5819 N.ar    1  UNL1       -0.1312
     27 N           1.7220   -3.0895    1.1579 N.ar    1  UNL1       -0.1342
     28 C           0.3946   -3.1913    1.0160 C.ar    1  UNL1        0.1353
     29 C          -0.5266   -4.2679    1.4696 C.3     1  UNL1       -0.0041
     30 N          -0.0070   -2.1192    0.3548 N.ar    1  UNL1       -0.2742
     31 H          -5.9824   -1.6383   -0.8589 H       1  UNL1        0.0283
     32 H          -5.4490   -3.3134   -0.9768 H       1  UNL1        0.0283
     33 H          -5.3459   -2.2943   -2.4294 H       1  UNL1        0.0283
     34 H          -3.3474    1.4313   -1.4043 H       1  UNL1        0.0278
     35 H          -4.9301    0.7440   -0.6586 H       1  UNL1        0.0278
     36 H          -4.3608    0.3105   -2.2600 H       1  UNL1        0.0278
     37 H          -0.4402    3.1642    0.0751 H       1  UNL1        0.0625
     38 H          -1.3951    5.0760    1.2688 H       1  UNL1        0.0632
     39 H          -4.6128    2.6383    2.5143 H       1  UNL1        0.0632
     40 H          -3.6989    0.7024    1.3988 H       1  UNL1        0.0625
     41 H           0.7920   -0.3579   -1.7393 H       1  UNL1        0.0744
     42 H           3.9955    1.5442   -2.7128 H       1  UNL1        0.0268
     43 H           4.6500    2.4802   -1.3169 H       1  UNL1        0.0268
     44 H           5.7702    1.6608   -2.5040 H       1  UNL1        0.0268
     45 H           5.0359   -0.2015    0.9531 H       1  UNL1        0.0268
     46 H           6.4341    0.5608    0.1669 H       1  UNL1        0.0268
     47 H           5.0867    1.6157    0.6415 H       1  UNL1        0.0268
     48 H           6.6968   -0.4430   -1.4610 H       1  UNL1        0.0268
     49 H           5.4328   -1.7128   -1.4881 H       1  UNL1        0.0268
     50 H           5.6459   -0.5409   -2.8851 H       1  UNL1        0.0268
     51 H          -0.9357   -4.7965    0.5780 H       1  UNL1        0.0308
     52 H          -1.3000   -3.9080    2.1484 H       1  UNL1        0.0308
     53 H           0.0715   -5.0289    2.0047 H       1  UNL1        0.0308
@<TRIPOS>BOND
     1     1     2    1
     2     2     3   ar
     3     3     4   ar
     4     4     5   ar
     5     5     6   ar
     6     6     7    1
     7     5     8    1
     8     8     9    1
     9     9    10   ar
    10    10    11   ar
    11    11    12   ar
    12    12    13    1
    13    12    14   ar
    14    14    15   ar
    15     8    16    2
    16    16    17    1
    17    17    18    1
    18    18    19    2
    19    18    20    1
    20    20    21    1
    21    21    22    1
    22    21    23    1
    23    21    24    1
    24    17    25    1
    25    25    26   ar
    26    26    27   ar
    27    27    28   ar
    28    28    29    1
    29    28    30   ar
    30     6     2   ar
    31    15     9   ar
    32    30    25   ar
    33    30     4    1
    34     1    31    1
    35     1    32    1
    36     1    33    1
    37     7    34    1
    38     7    35    1
    39     7    36    1
    40    10    37    1
    41    11    38    1
    42    14    39    1
    43    15    40    1
    44    17    41    1
    45    22    42    1
    46    22    43    1
    47    22    44    1
    48    23    45    1
    49    23    46    1
    50    23    47    1
    51    24    48    1
    52    24    49    1
    53    24    50    1
    54    29    51    1
    55    29    52    1
    56    29    53    1
