
     RDKit          3D

 53 56  0  0  0  0  0  0  0  0999 V2000
   -5.1906   -2.2779   -1.3514 C   0  0  0  0  0  0  0  0  0  0  0  0
   -3.8704   -1.8515   -0.9027 C   0  0  0  0  0  0  0  0  0  0  0  0
   -2.5340   -3.0700   -0.3848 S   0  0  0  0  0  0  0  0  0  0  0  0
   -1.3700   -1.8387   -0.0183 C   0  0  0  0  0  0  0  0  0  0  0  0
   -1.9871   -0.6055   -0.2734 C   0  0  0  0  0  0  0  0  0  0  0  0
   -3.2417   -0.6485   -0.7236 C   0  0  0  0  0  0  0  0  0  0  0  0
   -4.0057    0.5954   -1.2126 C   0  0  0  0  0  0  0  0  0  0  0  0
   -1.2693    0.6591    0.0340 C   0  0  0  0  0  0  0  0  0  0  0  0
   -1.9830    1.7647    0.5995 C   0  0  0  0  0  0  0  0  0  0  0  0
   -1.3862    3.0075    0.6161 C   0  0  0  0  0  0  0  0  0  0  0  0
   -1.8877    4.0981    1.2701 C   0  0  0  0  0  0  0  0  0  0  0  0
   -3.0611    3.9608    1.9590 C   0  0  0  0  0  0  0  0  0  0  0  0
   -3.7542    5.3387    2.8206 Cl  0  0  0  0  0  0  0  0  0  0  0  0
   -3.6795    2.7350    1.9625 C   0  0  0  0  0  0  0  0  0  0  0  0
   -3.1470    1.6281    1.2854 C   0  0  0  0  0  0  0  0  0  0  0  0
    0.0134    0.8490   -0.1667 N   0  0  0  0  0  0  0  0  0  0  0  0
    0.9941   -0.0461   -0.6863 C   0  0  1  0  0  0  0  0  0  0  0  0
    2.3420    0.5506   -0.6392 C   0  0  0  0  0  0  0  0  0  0  0  0
    2.4690    1.7041   -0.1783 O   0  0  0  0  0  0  0  0  0  0  0  0
    3.4241   -0.1340   -1.0855 O   0  0  0  0  0  0  0  0  0  0  0  0
    4.7512    0.3257   -1.0924 C   0  0  0  0  0  0  0  0  0  0  0  0
    4.7861    1.5878   -1.9576 C   0  0  0  0  0  0  0  0  0  0  0  0
    5.3095    0.6142    0.2561 C   0  0  0  0  0  0  0  0  0  0  0  0
    5.6575   -0.6762   -1.7768 C   0  0  0  0  0  0  0  0  0  0  0  0
    1.0854   -1.3436    0.0820 C   0  0  0  0  0  0  0  0  0  0  0  0
    2.1393   -1.9521    0.5819 N   0  0  0  0  0  0  0  0  0  0  0  0
    1.7220   -3.0895    1.1579 N   0  0  0  0  0  0  0  0  0  0  0  0
    0.3946   -3.1913    1.0160 C   0  0  0  0  0  0  0  0  0  0  0  0
   -0.5266   -4.2679    1.4696 C   0  0  0  0  0  0  0  0  0  0  0  0
   -0.0070   -2.1192    0.3548 N   0  0  0  0  0  0  0  0  0  0  0  0
   -5.9824   -1.6383   -0.8589 H   0  0  0  0  0  0  0  0  0  0  0  0
   -5.4490   -3.3134   -0.9768 H   0  0  0  0  0  0  0  0  0  0  0  0
   -5.3459   -2.2943   -2.4294 H   0  0  0  0  0  0  0  0  0  0  0  0
   -3.3474    1.4313   -1.4043 H   0  0  0  0  0  0  0  0  0  0  0  0
   -4.9301    0.7440   -0.6586 H   0  0  0  0  0  0  0  0  0  0  0  0
   -4.3608    0.3105   -2.2600 H   0  0  0  0  0  0  0  0  0  0  0  0
   -0.4402    3.1642    0.0751 H   0  0  0  0  0  0  0  0  0  0  0  0
   -1.3951    5.0760    1.2688 H   0  0  0  0  0  0  0  0  0  0  0  0
   -4.6128    2.6383    2.5143 H   0  0  0  0  0  0  0  0  0  0  0  0
   -3.6989    0.7024    1.3988 H   0  0  0  0  0  0  0  0  0  0  0  0
    0.7920   -0.3579   -1.7393 H   0  0  0  0  0  0  0  0  0  0  0  0
    3.9955    1.5442   -2.7128 H   0  0  0  0  0  0  0  0  0  0  0  0
    4.6500    2.4802   -1.3169 H   0  0  0  0  0  0  0  0  0  0  0  0
    5.7702    1.6608   -2.5040 H   0  0  0  0  0  0  0  0  0  0  0  0
    5.0359   -0.2015    0.9531 H   0  0  0  0  0  0  0  0  0  0  0  0
    6.4341    0.5608    0.1669 H   0  0  0  0  0  0  0  0  0  0  0  0
    5.0867    1.6157    0.6415 H   0  0  0  0  0  0  0  0  0  0  0  0
    6.6968   -0.4430   -1.4610 H   0  0  0  0  0  0  0  0  0  0  0  0
    5.4328   -1.7128   -1.4881 H   0  0  0  0  0  0  0  0  0  0  0  0
    5.6459   -0.5409   -2.8851 H   0  0  0  0  0  0  0  0  0  0  0  0
   -0.9357   -4.7965    0.5780 H   0  0  0  0  0  0  0  0  0  0  0  0
   -1.3000   -3.9080    2.1484 H   0  0  0  0  0  0  0  0  0  0  0  0
    0.0715   -5.0289    2.0047 H   0  0  0  0  0  0  0  0  0  0  0  0
  1  2  1  0
  2  3  1  0
  3  4  1  0
  4  5  2  0
  5  6  1  0
  6  7  1  0
  5  8  1  0
  8  9  1  0
  9 10  2  0
 10 11  1  0
 11 12  2  0
 12 13  1  0
 12 14  1  0
 14 15  2  0
  8 16  2  0
 16 17  1  0
 17 18  1  0
 18 19  2  0
 18 20  1  0
 20 21  1  0
 21 22  1  0
 21 23  1  0
 21 24  1  0
 17 25  1  0
 25 26  2  0
 26 27  1  0
 27 28  2  0
 28 29  1  0
 28 30  1  0
  6  2  2  0
 15  9  1  0
 30 25  1  0
 30  4  1  0
  1 31  1  0
  1 32  1  0
  1 33  1  0
  7 34  1  0
  7 35  1  0
  7 36  1  0
 10 37  1  0
 11 38  1  0
 14 39  1  0
 15 40  1  0
 17 41  1  6
 22 42  1  0
 22 43  1  0
 22 44  1  0
 23 45  1  0
 23 46  1  0
 23 47  1  0
 24 48  1  0
 24 49  1  0
 24 50  1  0
 29 51  1  0
 29 52  1  0
 29 53  1  0
M  END
$$$$
