
     RDKit          3D

 58 60  0  0  0  0  0  0  0  0999 V2000
    6.9646   -1.5592    2.5210 C   0  0  0  0  0  0  0  0  0  0  0  0
    6.3440   -1.1827    1.1742 C   0  0  0  0  0  0  0  0  0  0  0  0
    4.9406   -1.2656    1.3444 O   0  0  0  0  0  0  0  0  0  0  0  0
    4.0859   -0.9815    0.2965 C   0  0  0  0  0  0  0  0  0  0  0  0
    4.6043   -0.6453   -0.8184 O   0  0  0  0  0  0  0  0  0  0  0  0
    2.6781   -1.0413    0.3869 N   0  0  0  0  0  0  0  0  0  0  0  0
    1.8043   -0.7375   -0.7305 C   0  0  0  0  0  0  0  0  0  0  0  0
    0.9141   -1.7544   -1.1628 C   0  0  0  0  0  0  0  0  0  0  0  0
   -0.2244   -2.5243   -1.4893 C   0  0  0  0  0  0  0  0  0  0  0  0
   -1.4468   -1.7700   -1.0115 C   0  0  0  0  0  0  0  0  0  0  0  0
   -2.5433   -2.5362   -0.9721 C   0  0  0  0  0  0  0  0  0  0  0  0
   -3.7405   -1.9906   -0.5068 C   0  0  0  0  0  0  0  0  0  0  0  0
   -4.8542   -2.8055   -0.4810 O   0  0  0  0  0  0  0  0  0  0  0  0
   -4.8032   -4.1497   -0.9075 C   0  0  0  0  0  0  0  0  0  0  0  0
   -3.7915   -0.6754   -0.0892 C   0  0  0  0  0  0  0  0  0  0  0  0
   -4.9670   -0.1148    0.3757 O   0  0  0  0  0  0  0  0  0  0  0  0
   -5.4163   -0.1045    1.6945 C   0  0  0  0  0  0  0  0  0  0  0  0
   -2.6707    0.1228   -0.1226 C   0  0  0  0  0  0  0  0  0  0  0  0
   -2.7349    1.4238    0.3126 O   0  0  0  0  0  0  0  0  0  0  0  0
   -2.5317    1.7245    1.7162 C   0  0  0  0  0  0  0  0  0  0  0  0
   -1.5129   -0.4143   -0.5821 C   0  0  0  0  0  0  0  0  0  0  0  0
   -0.4636    0.5995   -0.6247 C   0  0  0  0  0  0  0  0  0  0  0  0
   -1.1907    1.7137   -1.0000 C   0  0  0  0  0  0  0  0  0  0  0  0
   -0.7891    3.0111   -0.7767 C   0  0  0  0  0  0  0  0  0  0  0  0
    0.4255    3.4792   -0.2489 C   0  0  0  0  0  0  0  0  0  0  0  0
    0.5379    5.2590   -0.1754 S   0  0  0  0  0  0  0  0  0  0  0  0
    1.2353    5.9688   -1.6711 C   0  0  0  0  0  0  0  0  0  0  0  0
    1.5130    2.7658    0.2078 C   0  0  0  0  0  0  0  0  0  0  0  0
    2.4411    3.4224    0.7767 O   0  0  0  0  0  0  0  0  0  0  0  0
    1.7579    1.3919    0.1388 C   0  0  0  0  0  0  0  0  0  0  0  0
    0.9236    0.4826   -0.3936 C   0  0  0  0  0  0  0  0  0  0  0  0
    7.5690   -2.4707    2.4405 H   0  0  0  0  0  0  0  0  0  0  0  0
    7.6241   -0.7200    2.8681 H   0  0  0  0  0  0  0  0  0  0  0  0
    6.2122   -1.7135    3.2998 H   0  0  0  0  0  0  0  0  0  0  0  0
    6.6842   -0.1738    0.8823 H   0  0  0  0  0  0  0  0  0  0  0  0
    6.6865   -1.8844    0.3804 H   0  0  0  0  0  0  0  0  0  0  0  0
    2.2443   -1.3135    1.2887 H   0  0  0  0  0  0  0  0  0  0  0  0
    2.5334   -0.4159   -1.5370 H   0  0  0  0  0  0  0  0  0  0  0  0
    0.5227   -1.7342   -0.0794 H   0  0  0  0  0  0  0  0  0  0  0  0
    0.4899   -0.9791   -1.9069 H   0  0  0  0  0  0  0  0  0  0  0  0
   -0.3283   -2.8310   -2.5593 H   0  0  0  0  0  0  0  0  0  0  0  0
   -0.2184   -3.5601   -1.0122 H   0  0  0  0  0  0  0  0  0  0  0  0
   -2.4438   -3.5599   -1.3082 H   0  0  0  0  0  0  0  0  0  0  0  0
   -5.7860   -4.6323   -0.7428 H   0  0  0  0  0  0  0  0  0  0  0  0
   -4.5467   -4.2420   -1.9929 H   0  0  0  0  0  0  0  0  0  0  0  0
   -4.0676   -4.7485   -0.3045 H   0  0  0  0  0  0  0  0  0  0  0  0
   -4.6737   -0.6536    2.3354 H   0  0  0  0  0  0  0  0  0  0  0  0
   -5.4633    0.9673    2.0197 H   0  0  0  0  0  0  0  0  0  0  0  0
   -6.4225   -0.5281    1.8381 H   0  0  0  0  0  0  0  0  0  0  0  0
   -2.7637    0.8463    2.3455 H   0  0  0  0  0  0  0  0  0  0  0  0
   -1.4506    1.9085    1.8283 H   0  0  0  0  0  0  0  0  0  0  0  0
   -3.0678    2.6428    2.0037 H   0  0  0  0  0  0  0  0  0  0  0  0
   -2.0869    1.4511   -1.5101 H   0  0  0  0  0  0  0  0  0  0  0  0
   -1.5372    3.7399   -1.0587 H   0  0  0  0  0  0  0  0  0  0  0  0
    2.2766    6.3416   -1.5207 H   0  0  0  0  0  0  0  0  0  0  0  0
    0.6328    6.8787   -1.9203 H   0  0  0  0  0  0  0  0  0  0  0  0
    1.2302    5.2923   -2.5375 H   0  0  0  0  0  0  0  0  0  0  0  0
    2.6611    0.9797    0.5225 H   0  0  0  0  0  0  0  0  0  0  0  0
  1  2  1  0
  2  3  1  0
  3  4  1  0
  4  5  2  0
  4  6  1  0
  6  7  1  0
  7  8  1  0
  8  9  1  0
  9 10  1  0
 10 11  2  0
 11 12  1  0
 12 13  1  0
 13 14  1  0
 12 15  2  0
 15 16  1  0
 16 17  1  0
 15 18  1  0
 18 19  1  0
 19 20  1  0
 18 21  2  0
 21 22  1  0
 22 23  2  0
 23 24  1  0
 24 25  2  0
 25 26  1  0
 26 27  1  0
 25 28  1  0
 28 29  2  0
 28 30  1  0
 30 31  2  0
 31  7  1  0
 21 10  1  0
 31 22  1  0
  1 32  1  0
  1 33  1  0
  1 34  1  0
  2 35  1  0
  2 36  1  0
  6 37  1  0
  7 38  1  0
  8 39  1  0
  8 40  1  0
  9 41  1  0
  9 42  1  0
 11 43  1  0
 14 44  1  0
 14 45  1  0
 14 46  1  0
 17 47  1  0
 17 48  1  0
 17 49  1  0
 20 50  1  0
 20 51  1  0
 20 52  1  0
 23 53  1  0
 24 54  1  0
 27 55  1  0
 27 56  1  0
 27 57  1  0
 30 58  1  0
M  END
$$$$
