@<TRIPOS>MOLECULE
*****
 58 60 0 0 0
SMALL
GASTEIGER

@<TRIPOS>ATOM
      1 C           6.9646   -1.5592    2.5210 C.3     1  UNL1       -0.0305
      2 C           6.3440   -1.1827    1.1742 C.3     1  UNL1        0.0912
      3 O           4.9406   -1.2656    1.3444 O.3     1  UNL1       -0.4507
      4 C           4.0859   -0.9815    0.2965 C.2     1  UNL1        0.4007
      5 O           4.6043   -0.6453   -0.8184 O.2     1  UNL1       -0.2265
      6 N           2.6781   -1.0413    0.3869 N.am    1  UNL1       -0.2743
      7 C           1.8043   -0.7375   -0.7305 C.3     1  UNL1        0.0525
      8 C           0.9141   -1.7544   -1.1628 C.3     1  UNL1       -0.0262
      9 C          -0.2244   -2.5243   -1.4893 C.3     1  UNL1       -0.0249
     10 C          -1.4468   -1.7700   -1.0115 C.ar    1  UNL1       -0.0324
     11 C          -2.5433   -2.5362   -0.9721 C.ar    1  UNL1       -0.0123
     12 C          -3.7405   -1.9906   -0.5068 C.ar    1  UNL1        0.1655
     13 O          -4.8542   -2.8055   -0.4810 O.3     1  UNL1       -0.4913
     14 C          -4.8032   -4.1497   -0.9075 C.3     1  UNL1        0.0790
     15 C          -3.7915   -0.6754   -0.0892 C.ar    1  UNL1        0.2041
     16 O          -4.9670   -0.1148    0.3757 O.3     1  UNL1       -0.4885
     17 C          -5.4163   -0.1045    1.6945 C.3     1  UNL1        0.0791
     18 C          -2.6707    0.1228   -0.1226 C.ar    1  UNL1        0.1731
     19 O          -2.7349    1.4238    0.3126 O.3     1  UNL1       -0.4907
     20 C          -2.5317    1.7245    1.7162 C.3     1  UNL1        0.0790
     21 C          -1.5129   -0.4143   -0.5821 C.ar    1  UNL1        0.0312
     22 C          -0.4636    0.5995   -0.6247 C.ar    1  UNL1       -0.0089
     23 C          -1.1907    1.7137   -1.0000 C.ar    1  UNL1       -0.0524
     24 C          -0.7891    3.0111   -0.7767 C.ar    1  UNL1       -0.0440
     25 C           0.4255    3.4792   -0.2489 C.ar    1  UNL1        0.0543
     26 S           0.5379    5.2590   -0.1754 S.3     1  UNL1       -0.1249
     27 C           1.2353    5.9688   -1.6711 C.3     1  UNL1       -0.0133
     28 C           1.5130    2.7658    0.2078 C.ar    1  UNL1        0.1926
     29 O           2.4411    3.4224    0.7767 O.2     1  UNL1       -0.2867
     30 C           1.7579    1.3919    0.1388 C.ar    1  UNL1       -0.0083
     31 C           0.9236    0.4826   -0.3936 C.ar    1  UNL1       -0.0156
     32 H           7.5690   -2.4707    2.4405 H       1  UNL1        0.0262
     33 H           7.6241   -0.7200    2.8681 H       1  UNL1        0.0262
     34 H           6.2122   -1.7135    3.2998 H       1  UNL1        0.0262
     35 H           6.6842   -0.1738    0.8823 H       1  UNL1        0.0695
     36 H           6.6865   -1.8844    0.3804 H       1  UNL1        0.0695
     37 H           2.2443   -1.3135    1.2887 H       1  UNL1        0.1526
     38 H           2.5334   -0.4159   -1.5370 H       1  UNL1        0.0549
     39 H           0.5227   -1.7342   -0.0794 H       1  UNL1        0.0289
     40 H           0.4899   -0.9791   -1.9069 H       1  UNL1        0.0289
     41 H          -0.3283   -2.8310   -2.5593 H       1  UNL1        0.0314
     42 H          -0.2184   -3.5601   -1.0122 H       1  UNL1        0.0314
     43 H          -2.4438   -3.5599   -1.3082 H       1  UNL1        0.0658
     44 H          -5.7860   -4.6323   -0.7428 H       1  UNL1        0.0660
     45 H          -4.5467   -4.2420   -1.9929 H       1  UNL1        0.0660
     46 H          -4.0676   -4.7485   -0.3045 H       1  UNL1        0.0660
     47 H          -4.6737   -0.6536    2.3354 H       1  UNL1        0.0660
     48 H          -5.4633    0.9673    2.0197 H       1  UNL1        0.0660
     49 H          -6.4225   -0.5281    1.8381 H       1  UNL1        0.0660
     50 H          -2.7637    0.8463    2.3455 H       1  UNL1        0.0660
     51 H          -1.4506    1.9085    1.8283 H       1  UNL1        0.0660
     52 H          -3.0678    2.6428    2.0037 H       1  UNL1        0.0660
     53 H          -2.0869    1.4511   -1.5101 H       1  UNL1        0.0624
     54 H          -1.5372    3.7399   -1.0587 H       1  UNL1        0.0630
     55 H           2.2766    6.3416   -1.5207 H       1  UNL1        0.0344
     56 H           0.6328    6.8787   -1.9203 H       1  UNL1        0.0344
     57 H           1.2302    5.2923   -2.5375 H       1  UNL1        0.0344
     58 H           2.6611    0.9797    0.5225 H       1  UNL1        0.0660
@<TRIPOS>BOND
     1     1     2    1
     2     2     3    1
     3     3     4    1
     4     4     5    2
     5     4     6   am
     6     6     7    1
     7     7     8    1
     8     8     9    1
     9     9    10    1
    10    10    11   ar
    11    11    12   ar
    12    12    13    1
    13    13    14    1
    14    12    15   ar
    15    15    16    1
    16    16    17    1
    17    15    18   ar
    18    18    19    1
    19    19    20    1
    20    18    21   ar
    21    21    22    1
    22    22    23   ar
    23    23    24   ar
    24    24    25   ar
    25    25    26    1
    26    26    27    1
    27    25    28   ar
    28    28    29    2
    29    28    30   ar
    30    30    31   ar
    31    31     7    1
    32    21    10   ar
    33    31    22   ar
    34     1    32    1
    35     1    33    1
    36     1    34    1
    37     2    35    1
    38     2    36    1
    39     6    37    1
    40     7    38    1
    41     8    39    1
    42     8    40    1
    43     9    41    1
    44     9    42    1
    45    11    43    1
    46    14    44    1
    47    14    45    1
    48    14    46    1
    49    17    47    1
    50    17    48    1
    51    17    49    1
    52    20    50    1
    53    20    51    1
    54    20    52    1
    55    23    53    1
    56    24    54    1
    57    27    55    1
    58    27    56    1
    59    27    57    1
    60    30    58    1
