@<TRIPOS>MOLECULE
*****
 38 41 0 0 0
SMALL
GASTEIGER

@<TRIPOS>ATOM
      1 O          -4.2785   -1.4238   -2.7434 O.2     1  UNL1       -0.2671
      2 C          -3.7912   -0.9220   -1.7162 C.ar    1  UNL1        0.2595
      3 N          -2.4911   -1.0981   -1.4244 N.ar    1  UNL1       -0.3064
      4 C          -1.9199   -0.5794   -0.3326 C.ar    1  UNL1        0.1414
      5 C          -0.5136   -0.7759   -0.0267 C.ar    1  UNL1        0.0176
      6 C           0.0142   -0.1983    1.1411 C.ar    1  UNL1       -0.0476
      7 C           1.3360   -0.3487    1.4840 C.ar    1  UNL1       -0.0187
      8 C           2.1963   -1.0768    0.6886 C.ar    1  UNL1        0.1285
      9 O           3.5091   -1.1965    1.0772 O.3     1  UNL1       -0.4546
     10 C           4.4678   -0.2692    0.6681 C.ar    1  UNL1        0.1467
     11 C           4.1691    0.8094   -0.1382 C.ar    1  UNL1       -0.0165
     12 C           5.1423    1.7259   -0.5365 C.ar    1  UNL1       -0.0398
     13 C           6.4491    1.5703   -0.1247 C.ar    1  UNL1        0.0426
     14 CL          7.6980    2.7023   -0.6057 Cl      1  UNL1       -0.0835
     15 C           6.7528    0.4909    0.6834 C.ar    1  UNL1       -0.0215
     16 C           5.7793   -0.4137    1.0735 C.ar    1  UNL1        0.0845
     17 CL          6.1874   -1.7728    2.0969 Cl      1  UNL1       -0.0797
     18 C           1.6923   -1.6571   -0.4730 C.ar    1  UNL1       -0.0187
     19 C           0.3624   -1.4989   -0.8070 C.ar    1  UNL1       -0.0476
     20 N          -2.6814    0.1466    0.5032 N.ar    1  UNL1       -0.2290
     21 C          -3.9970    0.3599    0.2646 C.ar    1  UNL1        0.0785
     22 C          -4.7819    1.0994    1.1119 C.ar    1  UNL1       -0.0355
     23 C          -6.1135    1.3008    0.8469 C.ar    1  UNL1       -0.0597
     24 C          -6.7182    0.7621   -0.2920 C.ar    1  UNL1       -0.0609
     25 C          -5.9219    0.0253   -1.1299 C.ar    1  UNL1       -0.0474
     26 C          -4.5690   -0.1825   -0.8658 C.ar    1  UNL1        0.0647
     27 H          -1.9474   -1.6721   -2.1111 H       1  UNL1        0.1704
     28 H          -0.6555    0.3824    1.7828 H       1  UNL1        0.0626
     29 H           1.7305    0.1056    2.3934 H       1  UNL1        0.0654
     30 H           3.1307    0.9294   -0.4628 H       1  UNL1        0.0655
     31 H           4.8693    2.5680   -1.1753 H       1  UNL1        0.0633
     32 H           7.7848    0.3757    1.0033 H       1  UNL1        0.0648
     33 H           2.3574   -2.2316   -1.1068 H       1  UNL1        0.0654
     34 H          -0.0054   -1.9566   -1.7100 H       1  UNL1        0.0626
     35 H          -4.3376    1.5225    1.9929 H       1  UNL1        0.0639
     36 H          -6.7745    1.8806    1.4909 H       1  UNL1        0.0618
     37 H          -7.7718    0.9192   -0.5053 H       1  UNL1        0.0618
     38 H          -6.3596   -0.4024   -2.0154 H       1  UNL1        0.0626
@<TRIPOS>BOND
     1     1     2    2
     2     2     3   ar
     3     3     4   ar
     4     4     5    1
     5     5     6   ar
     6     6     7   ar
     7     7     8   ar
     8     8     9    1
     9     9    10    1
    10    10    11   ar
    11    11    12   ar
    12    12    13   ar
    13    13    14    1
    14    13    15   ar
    15    15    16   ar
    16    16    17    1
    17     8    18   ar
    18    18    19   ar
    19     4    20   ar
    20    20    21   ar
    21    21    22   ar
    22    22    23   ar
    23    23    24   ar
    24    24    25   ar
    25    25    26   ar
    26    26     2   ar
    27    19     5   ar
    28    26    21   ar
    29    16    10   ar
    30     3    27    1
    31     6    28    1
    32     7    29    1
    33    11    30    1
    34    12    31    1
    35    15    32    1
    36    18    33    1
    37    19    34    1
    38    22    35    1
    39    23    36    1
    40    24    37    1
    41    25    38    1
