@<TRIPOS>MOLECULE
*****
 26 27 0 0 0
SMALL
GASTEIGER

@<TRIPOS>ATOM
      1 O          -3.3394    2.2005    1.3264 O.2     1  UNL1       -0.2451
      2 C          -2.2871    1.5466    0.9750 C.2     1  UNL1        0.3387
      3 O          -1.1048    2.1139    1.3867 O.3     1  UNL1       -0.4771
      4 C          -2.4021    0.3286    0.2145 C.ar    1  UNL1        0.0825
      5 C          -3.6980   -0.0927   -0.1126 C.ar    1  UNL1       -0.0278
      6 C          -3.9268   -1.2361   -0.8326 C.ar    1  UNL1        0.0285
      7 N          -2.8524   -1.9591   -1.2258 N.ar    1  UNL1       -0.2614
      8 C          -1.5992   -1.5745   -0.9237 C.ar    1  UNL1        0.0492
      9 C          -1.3446   -0.4065   -0.1871 C.ar    1  UNL1        0.0599
     10 N           0.0002   -0.0805    0.0834 N.pl3   1  UNL1       -0.3349
     11 C           1.0904   -0.9351   -0.3906 C.3     1  UNL1        0.0673
     12 C           2.4202   -0.4080    0.0036 C.ar    1  UNL1        0.1217
     13 C           3.1619    0.4740   -0.7724 C.ar    1  UNL1       -0.0192
     14 C           4.3361    0.7447   -0.0947 C.ar    1  UNL1       -0.0236
     15 C           4.2545    0.0102    1.0705 C.ar    1  UNL1        0.0921
     16 O           3.1150   -0.6518    1.0890 O.2     1  UNL1       -0.4662
     17 H          -0.9336    3.1232    1.2607 H       1  UNL1        0.2954
     18 H          -4.5512    0.4940    0.2075 H       1  UNL1        0.0641
     19 H          -4.9382   -1.5719   -1.0922 H       1  UNL1        0.0830
     20 H          -0.7657   -2.1819   -1.2576 H       1  UNL1        0.0848
     21 H           0.2907    0.7499    0.6127 H       1  UNL1        0.1466
     22 H           1.0076   -1.0103   -1.4994 H       1  UNL1        0.0542
     23 H           0.9853   -1.9547    0.0060 H       1  UNL1        0.0542
     24 H           2.8887    0.8846   -1.7324 H       1  UNL1        0.0652
     25 H           5.1558    1.3861   -0.3876 H       1  UNL1        0.0649
     26 H           5.0367    0.0068    1.8332 H       1  UNL1        0.1029
@<TRIPOS>BOND
     1     1     2    2
     2     2     3    1
     3     2     4    1
     4     4     5   ar
     5     5     6   ar
     6     6     7   ar
     7     7     8   ar
     8     8     9   ar
     9     9    10    1
    10    10    11    1
    11    11    12    1
    12    12    13   ar
    13    13    14   ar
    14    14    15   ar
    15    15    16   ar
    16     9     4   ar
    17    16    12   ar
    18     3    17    1
    19     5    18    1
    20     6    19    1
    21     8    20    1
    22    10    21    1
    23    11    22    1
    24    11    23    1
    25    13    24    1
    26    14    25    1
    27    15    26    1
