@<TRIPOS>MOLECULE
*****
 49 52 0 0 0
SMALL
GASTEIGER

@<TRIPOS>ATOM
      1 O           2.6710   -2.4708   -0.2673 O.2     1  UNL1       -0.2700
      2 C           3.0639   -1.3008   -0.0352 C.2     1  UNL1        0.2468
      3 C           2.0499   -0.3159    0.3326 C.ar    1  UNL1        0.0387
      4 C           2.1019    0.3013    1.5679 C.ar    1  UNL1       -0.0495
      5 C           1.1375    1.2458    1.9108 C.ar    1  UNL1       -0.0592
      6 C           0.1257    1.5873    1.0516 C.ar    1  UNL1       -0.0353
      7 C           0.0999    0.9438   -0.1936 C.ar    1  UNL1        0.1062
      8 S          -1.1844    1.4043   -1.2860 S.O2    1  UNL1        0.0612
      9 O          -1.4859    2.8699   -1.0203 O.2     1  UNL1       -0.1528
     10 O          -0.7523    1.2491   -2.7248 O.2     1  UNL1       -0.1528
     11 N          -2.5770    0.5192   -0.9393 N.3     1  UNL1       -0.1720
     12 C          -2.5062   -0.8921   -1.0731 C.3     1  UNL1        0.0248
     13 C          -3.3917   -1.4849    0.0251 C.3     1  UNL1       -0.0129
     14 C          -4.6295   -0.6866    0.1501 C.ar    1  UNL1       -0.0416
     15 C          -5.6250   -1.2117    0.9772 C.ar    1  UNL1       -0.0582
     16 C          -6.8210   -0.5734    1.1835 C.ar    1  UNL1       -0.0615
     17 C          -7.0275    0.6295    0.5409 C.ar    1  UNL1       -0.0614
     18 C          -6.0570    1.1754   -0.2864 C.ar    1  UNL1       -0.0570
     19 C          -4.8642    0.5166   -0.4786 C.ar    1  UNL1       -0.0285
     20 C          -3.8053    1.1064   -1.3772 C.3     1  UNL1        0.0458
     21 C           1.0412    0.0132   -0.5445 C.ar    1  UNL1       -0.0232
     22 N           4.4107   -0.8935   -0.1105 N.am    1  UNL1       -0.2932
     23 C           5.4100   -1.8765   -0.4781 C.3     1  UNL1        0.0385
     24 C           6.7489   -1.1312   -0.4538 C.3     1  UNL1        0.0635
     25 O           6.5979   -0.0363   -1.3170 O.3     1  UNL1       -0.3767
     26 C           5.8776    0.9757   -0.7119 C.3     1  UNL1        0.0635
     27 C           4.7690    0.4654    0.1731 C.3     1  UNL1        0.0385
     28 H           2.8931    0.0507    2.2691 H       1  UNL1        0.0625
     29 H           1.1846    1.7203    2.8713 H       1  UNL1        0.0618
     30 H          -0.6248    2.3189    1.3108 H       1  UNL1        0.0637
     31 H          -1.4618   -1.2170   -0.9892 H       1  UNL1        0.0447
     32 H          -2.9174   -1.2830   -2.0300 H       1  UNL1        0.0447
     33 H          -3.5921   -2.5626   -0.1271 H       1  UNL1        0.0326
     34 H          -2.8265   -1.3575    0.9708 H       1  UNL1        0.0326
     35 H          -5.4601   -2.1610    1.4819 H       1  UNL1        0.0620
     36 H          -7.6020   -0.9820    1.8319 H       1  UNL1        0.0618
     37 H          -7.9660    1.1568    0.6864 H       1  UNL1        0.0618
     38 H          -6.2234    2.1240   -0.7901 H       1  UNL1        0.0621
     39 H          -4.1009    0.8534   -2.4098 H       1  UNL1        0.0493
     40 H          -3.7558    2.2011   -1.2637 H       1  UNL1        0.0493
     41 H           1.0096   -0.4759   -1.5089 H       1  UNL1        0.0644
     42 H           5.1759   -2.1939   -1.5122 H       1  UNL1        0.0487
     43 H           5.4822   -2.7190    0.2298 H       1  UNL1        0.0487
     44 H           7.5696   -1.7963   -0.7347 H       1  UNL1        0.0575
     45 H           6.8401   -0.7077    0.5716 H       1  UNL1        0.0575
     46 H           5.5028    1.6825   -1.5062 H       1  UNL1        0.0575
     47 H           6.5777    1.5824   -0.0910 H       1  UNL1        0.0575
     48 H           5.0307    0.5151    1.2601 H       1  UNL1        0.0487
     49 H           3.8865    1.1217   -0.0033 H       1  UNL1        0.0487
@<TRIPOS>BOND
     1     1     2    2
     2     2     3    1
     3     3     4   ar
     4     4     5   ar
     5     5     6   ar
     6     6     7   ar
     7     7     8    1
     8     8     9    2
     9     8    10    2
    10     8    11    1
    11    11    12    1
    12    12    13    1
    13    13    14    1
    14    14    15   ar
    15    15    16   ar
    16    16    17   ar
    17    17    18   ar
    18    18    19   ar
    19    19    20    1
    20     7    21   ar
    21     2    22   am
    22    22    23    1
    23    23    24    1
    24    24    25    1
    25    25    26    1
    26    26    27    1
    27    21     3   ar
    28    27    22    1
    29    20    11    1
    30    19    14   ar
    31     4    28    1
    32     5    29    1
    33     6    30    1
    34    12    31    1
    35    12    32    1
    36    13    33    1
    37    13    34    1
    38    15    35    1
    39    16    36    1
    40    17    37    1
    41    18    38    1
    42    20    39    1
    43    20    40    1
    44    21    41    1
    45    23    42    1
    46    23    43    1
    47    24    44    1
    48    24    45    1
    49    26    46    1
    50    26    47    1
    51    27    48    1
    52    27    49    1
