
     RDKit          3D

 49 52  0  0  0  0  0  0  0  0999 V2000
    2.6710   -2.4708   -0.2673 O   0  0  0  0  0  0  0  0  0  0  0  0
    3.0639   -1.3008   -0.0352 C   0  0  0  0  0  0  0  0  0  0  0  0
    2.0499   -0.3159    0.3326 C   0  0  0  0  0  0  0  0  0  0  0  0
    2.1019    0.3013    1.5679 C   0  0  0  0  0  0  0  0  0  0  0  0
    1.1375    1.2458    1.9108 C   0  0  0  0  0  0  0  0  0  0  0  0
    0.1257    1.5873    1.0516 C   0  0  0  0  0  0  0  0  0  0  0  0
    0.0999    0.9438   -0.1936 C   0  0  0  0  0  0  0  0  0  0  0  0
   -1.1844    1.4043   -1.2860 S   0  0  0  0  0  6  0  0  0  0  0  0
   -1.4859    2.8699   -1.0203 O   0  0  0  0  0  0  0  0  0  0  0  0
   -0.7523    1.2491   -2.7248 O   0  0  0  0  0  0  0  0  0  0  0  0
   -2.5770    0.5192   -0.9393 N   0  0  0  0  0  0  0  0  0  0  0  0
   -2.5062   -0.8921   -1.0731 C   0  0  0  0  0  0  0  0  0  0  0  0
   -3.3917   -1.4849    0.0251 C   0  0  0  0  0  0  0  0  0  0  0  0
   -4.6295   -0.6866    0.1501 C   0  0  0  0  0  0  0  0  0  0  0  0
   -5.6250   -1.2117    0.9772 C   0  0  0  0  0  0  0  0  0  0  0  0
   -6.8210   -0.5734    1.1835 C   0  0  0  0  0  0  0  0  0  0  0  0
   -7.0275    0.6295    0.5409 C   0  0  0  0  0  0  0  0  0  0  0  0
   -6.0570    1.1754   -0.2864 C   0  0  0  0  0  0  0  0  0  0  0  0
   -4.8642    0.5166   -0.4786 C   0  0  0  0  0  0  0  0  0  0  0  0
   -3.8053    1.1064   -1.3772 C   0  0  0  0  0  0  0  0  0  0  0  0
    1.0412    0.0132   -0.5445 C   0  0  0  0  0  0  0  0  0  0  0  0
    4.4107   -0.8935   -0.1105 N   0  0  0  0  0  0  0  0  0  0  0  0
    5.4100   -1.8765   -0.4781 C   0  0  0  0  0  0  0  0  0  0  0  0
    6.7489   -1.1312   -0.4538 C   0  0  0  0  0  0  0  0  0  0  0  0
    6.5979   -0.0363   -1.3170 O   0  0  0  0  0  0  0  0  0  0  0  0
    5.8776    0.9757   -0.7119 C   0  0  0  0  0  0  0  0  0  0  0  0
    4.7690    0.4654    0.1731 C   0  0  0  0  0  0  0  0  0  0  0  0
    2.8931    0.0507    2.2691 H   0  0  0  0  0  0  0  0  0  0  0  0
    1.1846    1.7203    2.8713 H   0  0  0  0  0  0  0  0  0  0  0  0
   -0.6248    2.3189    1.3108 H   0  0  0  0  0  0  0  0  0  0  0  0
   -1.4618   -1.2170   -0.9892 H   0  0  0  0  0  0  0  0  0  0  0  0
   -2.9174   -1.2830   -2.0300 H   0  0  0  0  0  0  0  0  0  0  0  0
   -3.5921   -2.5626   -0.1271 H   0  0  0  0  0  0  0  0  0  0  0  0
   -2.8265   -1.3575    0.9708 H   0  0  0  0  0  0  0  0  0  0  0  0
   -5.4601   -2.1610    1.4819 H   0  0  0  0  0  0  0  0  0  0  0  0
   -7.6020   -0.9820    1.8319 H   0  0  0  0  0  0  0  0  0  0  0  0
   -7.9660    1.1568    0.6864 H   0  0  0  0  0  0  0  0  0  0  0  0
   -6.2234    2.1240   -0.7901 H   0  0  0  0  0  0  0  0  0  0  0  0
   -4.1009    0.8534   -2.4098 H   0  0  0  0  0  0  0  0  0  0  0  0
   -3.7558    2.2011   -1.2637 H   0  0  0  0  0  0  0  0  0  0  0  0
    1.0096   -0.4759   -1.5089 H   0  0  0  0  0  0  0  0  0  0  0  0
    5.1759   -2.1939   -1.5122 H   0  0  0  0  0  0  0  0  0  0  0  0
    5.4822   -2.7190    0.2298 H   0  0  0  0  0  0  0  0  0  0  0  0
    7.5696   -1.7963   -0.7347 H   0  0  0  0  0  0  0  0  0  0  0  0
    6.8401   -0.7077    0.5716 H   0  0  0  0  0  0  0  0  0  0  0  0
    5.5028    1.6825   -1.5062 H   0  0  0  0  0  0  0  0  0  0  0  0
    6.5777    1.5824   -0.0910 H   0  0  0  0  0  0  0  0  0  0  0  0
    5.0307    0.5151    1.2601 H   0  0  0  0  0  0  0  0  0  0  0  0
    3.8865    1.1217   -0.0033 H   0  0  0  0  0  0  0  0  0  0  0  0
  1  2  2  0
  2  3  1  0
  3  4  2  0
  4  5  1  0
  5  6  2  0
  6  7  1  0
  7  8  1  0
  8  9  2  0
  8 10  2  0
  8 11  1  0
 11 12  1  0
 12 13  1  0
 13 14  1  0
 14 15  2  0
 15 16  1  0
 16 17  2  0
 17 18  1  0
 18 19  2  0
 19 20  1  0
  7 21  2  0
  2 22  1  0
 22 23  1  0
 23 24  1  0
 24 25  1  0
 25 26  1  0
 26 27  1  0
 21  3  1  0
 27 22  1  0
 20 11  1  0
 19 14  1  0
  4 28  1  0
  5 29  1  0
  6 30  1  0
 12 31  1  0
 12 32  1  0
 13 33  1  0
 13 34  1  0
 15 35  1  0
 16 36  1  0
 17 37  1  0
 18 38  1  0
 20 39  1  0
 20 40  1  0
 21 41  1  0
 23 42  1  0
 23 43  1  0
 24 44  1  0
 24 45  1  0
 26 46  1  0
 26 47  1  0
 27 48  1  0
 27 49  1  0
M  END
$$$$
