@<TRIPOS>MOLECULE
*****
 43 46 0 0 0
SMALL
GASTEIGER

@<TRIPOS>ATOM
      1 C           0.0167   -2.9922    1.3624 C.3     1  UNL1       -0.0259
      2 C          -1.1591   -2.3988    0.6346 C.2     1  UNL1        0.0191
      3 C          -1.0504   -1.3276   -0.0970 C.2     1  UNL1        0.0559
      4 C           0.1556   -0.5888   -0.3248 C.2     1  UNL1        0.2478
      5 O           0.0578    0.4793   -1.0939 O.2     1  UNL1       -0.2701
      6 N           1.4661   -0.7648    0.1086 N.am    1  UNL1       -0.2816
      7 C           2.5347    0.1174   -0.2467 C.ar    1  UNL1        0.0344
      8 C           2.7918    1.1893    0.5598 C.ar    1  UNL1       -0.0384
      9 C           3.8154    2.0898    0.2769 C.ar    1  UNL1       -0.0345
     10 C           4.5937    1.8905   -0.8555 C.ar    1  UNL1        0.0658
     11 N           5.6157    2.5474   -1.3893 N.ar    1  UNL1       -0.2770
     12 N           6.0380    1.9594   -2.5016 N.ar    1  UNL1       -0.1812
     13 C           5.2509    0.8652   -2.7009 C.ar    1  UNL1        0.0569
     14 C           4.3354    0.8075   -1.6720 C.ar    1  UNL1        0.0212
     15 C           3.2968   -0.0823   -1.3603 C.ar    1  UNL1       -0.0298
     16 C          -2.3161   -0.7298   -0.7011 C.3     1  UNL1        0.0814
     17 C          -2.7915    0.3935    0.1318 C.ar    1  UNL1       -0.0224
     18 C          -2.6470    1.6843   -0.2993 C.ar    1  UNL1       -0.0538
     19 C          -3.0861    2.7645    0.4808 C.ar    1  UNL1       -0.0261
     20 C          -3.6693    2.5198    1.6942 C.ar    1  UNL1        0.1234
     21 F          -4.1158    3.5471    2.4949 F       1  UNL1       -0.2055
     22 C          -3.8238    1.2488    2.1430 C.ar    1  UNL1       -0.0261
     23 C          -3.3809    0.1837    1.3538 C.ar    1  UNL1       -0.0538
     24 N          -3.3412   -1.6765   -0.7996 N.am    1  UNL1       -0.2881
     25 C          -3.4929   -2.8282   -0.0017 C.2     1  UNL1        0.3043
     26 O          -4.5554   -3.4840    0.0564 O.2     1  UNL1       -0.2525
     27 N          -2.3510   -3.2086    0.7456 N.am    1  UNL1       -0.2729
     28 H          -0.3782   -3.8648    1.9754 H       1  UNL1        0.0290
     29 H           0.7420   -3.4618    0.7071 H       1  UNL1        0.0290
     30 H           0.3732   -2.2977    2.1356 H       1  UNL1        0.0290
     31 H           1.7322   -1.5471    0.6994 H       1  UNL1        0.1551
     32 H           2.2147    1.4025    1.4673 H       1  UNL1        0.0637
     33 H           4.0359    2.9377    0.8945 H       1  UNL1        0.0639
     34 H           6.0775    3.4237   -1.0292 H       1  UNL1        0.1889
     35 H           5.3368    0.1600   -3.5348 H       1  UNL1        0.0854
     36 H           3.1101   -0.9260   -2.0137 H       1  UNL1        0.0643
     37 H          -2.0242   -0.3529   -1.7113 H       1  UNL1        0.0601
     38 H          -2.2058    1.9631   -1.2406 H       1  UNL1        0.0622
     39 H          -2.9771    3.7875    0.1509 H       1  UNL1        0.0646
     40 H          -4.2772    1.0055    3.0915 H       1  UNL1        0.0646
     41 H          -3.4929   -0.8417    1.6896 H       1  UNL1        0.0622
     42 H          -4.0858   -1.5377   -1.5436 H       1  UNL1        0.1512
     43 H          -2.3689   -4.0563    1.3654 H       1  UNL1        0.1561
@<TRIPOS>BOND
     1     1     2    1
     2     2     3    2
     3     3     4    1
     4     4     5    2
     5     4     6   am
     6     6     7    1
     7     7     8   ar
     8     8     9   ar
     9     9    10   ar
    10    10    11   ar
    11    11    12   ar
    12    12    13   ar
    13    13    14   ar
    14    14    15   ar
    15     3    16    1
    16    16    17    1
    17    17    18   ar
    18    18    19   ar
    19    19    20   ar
    20    20    21    1
    21    20    22   ar
    22    22    23   ar
    23    16    24    1
    24    24    25   am
    25    25    26    2
    26    25    27   am
    27    27     2    1
    28    15     7   ar
    29    23    17   ar
    30    14    10   ar
    31     1    28    1
    32     1    29    1
    33     1    30    1
    34     6    31    1
    35     8    32    1
    36     9    33    1
    37    11    34    1
    38    13    35    1
    39    15    36    1
    40    16    37    1
    41    18    38    1
    42    19    39    1
    43    22    40    1
    44    23    41    1
    45    24    42    1
    46    27    43    1
