
     RDKit          3D

 43 46  0  0  0  0  0  0  0  0999 V2000
    0.0167   -2.9922    1.3624 C   0  0  0  0  0  0  0  0  0  0  0  0
   -1.1591   -2.3988    0.6346 C   0  0  0  0  0  0  0  0  0  0  0  0
   -1.0504   -1.3276   -0.0970 C   0  0  0  0  0  0  0  0  0  0  0  0
    0.1556   -0.5888   -0.3248 C   0  0  0  0  0  0  0  0  0  0  0  0
    0.0578    0.4793   -1.0939 O   0  0  0  0  0  0  0  0  0  0  0  0
    1.4661   -0.7648    0.1086 N   0  0  0  0  0  0  0  0  0  0  0  0
    2.5347    0.1174   -0.2467 C   0  0  0  0  0  0  0  0  0  0  0  0
    2.7918    1.1893    0.5598 C   0  0  0  0  0  0  0  0  0  0  0  0
    3.8154    2.0898    0.2769 C   0  0  0  0  0  0  0  0  0  0  0  0
    4.5937    1.8905   -0.8555 C   0  0  0  0  0  0  0  0  0  0  0  0
    5.6157    2.5474   -1.3893 N   0  0  0  0  0  0  0  0  0  0  0  0
    6.0380    1.9594   -2.5016 N   0  0  0  0  0  0  0  0  0  0  0  0
    5.2509    0.8652   -2.7009 C   0  0  0  0  0  0  0  0  0  0  0  0
    4.3354    0.8075   -1.6720 C   0  0  0  0  0  0  0  0  0  0  0  0
    3.2968   -0.0823   -1.3603 C   0  0  0  0  0  0  0  0  0  0  0  0
   -2.3161   -0.7298   -0.7011 C   0  0  0  0  0  0  0  0  0  0  0  0
   -2.7915    0.3935    0.1318 C   0  0  0  0  0  0  0  0  0  0  0  0
   -2.6470    1.6843   -0.2993 C   0  0  0  0  0  0  0  0  0  0  0  0
   -3.0861    2.7645    0.4808 C   0  0  0  0  0  0  0  0  0  0  0  0
   -3.6693    2.5198    1.6942 C   0  0  0  0  0  0  0  0  0  0  0  0
   -4.1158    3.5471    2.4949 F   0  0  0  0  0  0  0  0  0  0  0  0
   -3.8238    1.2488    2.1430 C   0  0  0  0  0  0  0  0  0  0  0  0
   -3.3809    0.1837    1.3538 C   0  0  0  0  0  0  0  0  0  0  0  0
   -3.3412   -1.6765   -0.7996 N   0  0  0  0  0  0  0  0  0  0  0  0
   -3.4929   -2.8282   -0.0017 C   0  0  0  0  0  0  0  0  0  0  0  0
   -4.5554   -3.4840    0.0564 O   0  0  0  0  0  0  0  0  0  0  0  0
   -2.3510   -3.2086    0.7456 N   0  0  0  0  0  0  0  0  0  0  0  0
   -0.3782   -3.8648    1.9754 H   0  0  0  0  0  0  0  0  0  0  0  0
    0.7420   -3.4618    0.7071 H   0  0  0  0  0  0  0  0  0  0  0  0
    0.3732   -2.2977    2.1356 H   0  0  0  0  0  0  0  0  0  0  0  0
    1.7322   -1.5471    0.6994 H   0  0  0  0  0  0  0  0  0  0  0  0
    2.2147    1.4025    1.4673 H   0  0  0  0  0  0  0  0  0  0  0  0
    4.0359    2.9377    0.8945 H   0  0  0  0  0  0  0  0  0  0  0  0
    6.0775    3.4237   -1.0292 H   0  0  0  0  0  0  0  0  0  0  0  0
    5.3368    0.1600   -3.5348 H   0  0  0  0  0  0  0  0  0  0  0  0
    3.1101   -0.9260   -2.0137 H   0  0  0  0  0  0  0  0  0  0  0  0
   -2.0242   -0.3529   -1.7113 H   0  0  0  0  0  0  0  0  0  0  0  0
   -2.2058    1.9631   -1.2406 H   0  0  0  0  0  0  0  0  0  0  0  0
   -2.9771    3.7875    0.1509 H   0  0  0  0  0  0  0  0  0  0  0  0
   -4.2772    1.0055    3.0915 H   0  0  0  0  0  0  0  0  0  0  0  0
   -3.4929   -0.8417    1.6896 H   0  0  0  0  0  0  0  0  0  0  0  0
   -4.0858   -1.5377   -1.5436 H   0  0  0  0  0  0  0  0  0  0  0  0
   -2.3689   -4.0563    1.3654 H   0  0  0  0  0  0  0  0  0  0  0  0
  1  2  1  0
  2  3  2  0
  3  4  1  0
  4  5  2  0
  4  6  1  0
  6  7  1  0
  7  8  2  0
  8  9  1  0
  9 10  2  0
 10 11  1  0
 11 12  1  0
 12 13  2  0
 13 14  1  0
 14 15  2  0
  3 16  1  0
 16 17  1  0
 17 18  2  0
 18 19  1  0
 19 20  2  0
 20 21  1  0
 20 22  1  0
 22 23  2  0
 16 24  1  0
 24 25  1  0
 25 26  2  0
 25 27  1  0
 27  2  1  0
 15  7  1  0
 23 17  1  0
 14 10  1  0
  1 28  1  0
  1 29  1  0
  1 30  1  0
  6 31  1  0
  8 32  1  0
  9 33  1  0
 11 34  1  0
 13 35  1  0
 15 36  1  0
 16 37  1  0
 18 38  1  0
 19 39  1  0
 22 40  1  0
 23 41  1  0
 24 42  1  0
 27 43  1  0
M  END
$$$$
