@<TRIPOS>MOLECULE
*****
 20 21 0 0 0
SMALL
GASTEIGER

@<TRIPOS>ATOM
      1 C          -3.0074    1.4358    0.9819 C.3     1  UNL1        0.0370
      2 N          -1.8009    0.7972    0.5381 N.ar    1  UNL1       -0.1987
      3 N          -0.6922    1.4768    0.7802 N.ar    1  UNL1       -0.0597
      4 N           0.4959    1.0128    0.4277 N.ar    1  UNL1       -0.1102
      5 C           0.5970   -0.1944   -0.2016 C.ar    1  UNL1        0.1971
      6 C           1.6648   -0.9297   -0.6817 C.ar    1  UNL1        0.1713
      7 N           1.1725   -2.0615   -1.2152 N.ar    1  UNL1       -0.2283
      8 C          -0.1848   -2.0611   -1.0844 C.ar    1  UNL1        0.1070
      9 N          -0.5174   -0.9046   -0.4589 N.ar    1  UNL1       -0.2319
     10 C          -1.7146   -0.4028   -0.0861 C.ar    1  UNL1        0.3532
     11 O          -2.7938   -1.0028   -0.2903 O.2     1  UNL1       -0.2443
     12 C           3.0681   -0.5355   -0.6144 C.2     1  UNL1        0.2636
     13 N           3.4397    0.6896   -0.0214 N.am    1  UNL1       -0.3240
     14 O           3.9490   -1.3113   -1.0973 O.2     1  UNL1       -0.2686
     15 H          -3.8044    0.6435    1.0092 H       1  UNL1        0.0475
     16 H          -3.3894    2.2222    0.2978 H       1  UNL1        0.0475
     17 H          -2.8495    1.7877    2.0173 H       1  UNL1        0.0475
     18 H          -0.8492   -2.8217   -1.4109 H       1  UNL1        0.1034
     19 H           3.1147    1.6354   -0.3203 H       1  UNL1        0.1453
     20 H           4.1019    0.5245    0.7793 H       1  UNL1        0.1453
@<TRIPOS>BOND
     1     1     2    1
     2     2     3   ar
     3     3     4   ar
     4     4     5   ar
     5     5     6   ar
     6     6     7   ar
     7     7     8   ar
     8     8     9   ar
     9     9    10   ar
    10    10    11    2
    11     6    12    1
    12    12    13   am
    13    12    14    2
    14    10     2   ar
    15     9     5   ar
    16     1    15    1
    17     1    16    1
    18     1    17    1
    19     8    18    1
    20    13    19    1
    21    13    20    1
