
     RDKit          3D

 20 21  0  0  0  0  0  0  0  0999 V2000
   -3.0074    1.4358    0.9819 C   0  0  0  0  0  0  0  0  0  0  0  0
   -1.8009    0.7972    0.5381 N   0  0  0  0  0  0  0  0  0  0  0  0
   -0.6922    1.4768    0.7802 N   0  0  0  0  0  0  0  0  0  0  0  0
    0.4959    1.0128    0.4277 N   0  0  0  0  0  0  0  0  0  0  0  0
    0.5970   -0.1944   -0.2016 C   0  0  0  0  0  0  0  0  0  0  0  0
    1.6648   -0.9297   -0.6817 C   0  0  0  0  0  0  0  0  0  0  0  0
    1.1725   -2.0615   -1.2152 N   0  0  0  0  0  0  0  0  0  0  0  0
   -0.1848   -2.0611   -1.0844 C   0  0  0  0  0  0  0  0  0  0  0  0
   -0.5174   -0.9046   -0.4589 N   0  0  0  0  0  0  0  0  0  0  0  0
   -1.7146   -0.4028   -0.0861 C   0  0  0  0  0  0  0  0  0  0  0  0
   -2.7938   -1.0028   -0.2903 O   0  0  0  0  0  0  0  0  0  0  0  0
    3.0681   -0.5355   -0.6144 C   0  0  0  0  0  0  0  0  0  0  0  0
    3.4397    0.6896   -0.0214 N   0  0  0  0  0  0  0  0  0  0  0  0
    3.9490   -1.3113   -1.0973 O   0  0  0  0  0  0  0  0  0  0  0  0
   -3.8044    0.6435    1.0092 H   0  0  0  0  0  0  0  0  0  0  0  0
   -3.3894    2.2222    0.2978 H   0  0  0  0  0  0  0  0  0  0  0  0
   -2.8495    1.7877    2.0173 H   0  0  0  0  0  0  0  0  0  0  0  0
   -0.8492   -2.8217   -1.4109 H   0  0  0  0  0  0  0  0  0  0  0  0
    3.1147    1.6354   -0.3203 H   0  0  0  0  0  0  0  0  0  0  0  0
    4.1019    0.5245    0.7793 H   0  0  0  0  0  0  0  0  0  0  0  0
  1  2  1  0
  2  3  1  0
  3  4  2  0
  4  5  1  0
  5  6  2  0
  6  7  1  0
  7  8  2  0
  8  9  1  0
  9 10  1  0
 10 11  2  0
  6 12  1  0
 12 13  1  0
 12 14  2  0
 10  2  1  0
  9  5  1  0
  1 15  1  0
  1 16  1  0
  1 17  1  0
  8 18  1  0
 13 19  1  0
 13 20  1  0
M  END
$$$$
