@<TRIPOS>MOLECULE
*****
 59 61 0 0 0
SMALL
GASTEIGER

@<TRIPOS>ATOM
      1 N           4.1493   -1.7042    0.6027 N.pl3   1  UNL1       -0.3424
      2 C           4.3803   -0.5514   -0.1807 C.ar    1  UNL1        0.1320
      3 C           3.4611    0.0452   -0.9828 C.ar    1  UNL1        0.0958
      4 C           2.0477   -0.3440   -1.2258 C.2     1  UNL1        0.2490
      5 O           1.6232   -1.3603   -0.6367 O.2     1  UNL1       -0.2700
      6 N           1.2182    0.3906   -2.0759 N.am    1  UNL1       -0.3081
      7 C          -0.1315    0.1412   -2.3793 C.3     1  UNL1        0.0508
      8 C          -1.1148    0.2223   -1.2079 C.3     1  UNL1        0.1917
      9 O          -0.7602   -0.7706   -0.2654 O.3     1  UNL1       -0.3774
     10 C          -2.4463   -0.0971   -1.7499 C.3     1  UNL1        0.0540
     11 N          -3.5972   -0.1670   -0.8992 N.am    1  UNL1       -0.2921
     12 C          -3.9893   -1.3596   -0.2052 C.3     1  UNL1        0.0383
     13 C          -3.4644   -1.6291    1.1500 C.3     1  UNL1        0.0600
     14 O          -3.7270   -0.7041    2.1272 O.3     1  UNL1       -0.3935
     15 C          -4.4032    0.9952   -0.7823 C.2     1  UNL1        0.2523
     16 O          -4.1342    2.0827   -1.3951 O.2     1  UNL1       -0.2698
     17 C          -5.5988    1.0308    0.0378 C.ar    1  UNL1        0.1070
     18 C          -6.7848    0.4680   -0.4510 C.ar    1  UNL1        0.1383
     19 F          -6.7540   -0.0758   -1.6909 F       1  UNL1       -0.2046
     20 C          -7.9584    0.4954    0.2926 C.ar    1  UNL1       -0.0255
     21 C          -7.9226    1.0915    1.5204 C.ar    1  UNL1       -0.0563
     22 C          -6.7748    1.6590    2.0374 C.ar    1  UNL1       -0.0255
     23 C          -5.6123    1.6219    1.2814 C.ar    1  UNL1        0.1383
     24 F          -4.5014    2.1948    1.8038 F       1  UNL1       -0.2046
     25 C          -1.0354    1.5763   -0.5710 C.3     1  UNL1        0.4212
     26 F          -1.3167    2.6192   -1.4141 F       1  UNL1       -0.1675
     27 F          -1.8940    1.6293    0.5035 F       1  UNL1       -0.1675
     28 F           0.2827    1.8241   -0.1331 F       1  UNL1       -0.1675
     29 C           4.0890    1.1273   -1.5579 C.ar    1  UNL1        0.0638
     30 N           5.3514    1.1343   -1.0791 N.ar    1  UNL1       -0.1723
     31 N           5.5494    0.1431   -0.2559 N.ar    1  UNL1       -0.2182
     32 C           6.7295   -0.2312    0.4870 C.ar    1  UNL1        0.0676
     33 C           7.9591   -0.1835   -0.1191 C.ar    1  UNL1       -0.0335
     34 C           9.0744   -0.5437    0.6121 C.ar    1  UNL1       -0.0244
     35 C           8.9424   -0.9425    1.9271 C.ar    1  UNL1        0.1235
     36 F          10.0384   -1.2979    2.6590 F       1  UNL1       -0.2055
     37 C           7.6965   -0.9866    2.5266 C.ar    1  UNL1       -0.0244
     38 C           6.6077   -0.6277    1.7895 C.ar    1  UNL1       -0.0335
     39 H           3.5727   -1.6961    1.4681 H       1  UNL1        0.1437
     40 H           4.5726   -2.6036    0.3067 H       1  UNL1        0.1437
     41 H           1.7106    1.2453   -2.5351 H       1  UNL1        0.1491
     42 H          -0.3304   -0.8575   -2.8349 H       1  UNL1        0.0494
     43 H          -0.5137    0.8688   -3.1244 H       1  UNL1        0.0494
     44 H          -1.0866   -1.6310   -0.6769 H       1  UNL1        0.2106
     45 H          -2.6814    0.5444   -2.6717 H       1  UNL1        0.0496
     46 H          -2.3987   -1.1354   -2.2443 H       1  UNL1        0.0496
     47 H          -5.1301   -1.3809   -0.1851 H       1  UNL1        0.0487
     48 H          -3.7835   -2.2781   -0.8542 H       1  UNL1        0.0487
     49 H          -4.0733   -2.5549    1.4977 H       1  UNL1        0.0573
     50 H          -2.4363   -1.9803    1.2474 H       1  UNL1        0.0573
     51 H          -3.2498   -0.8776    2.9754 H       1  UNL1        0.2095
     52 H          -8.8422    0.0428   -0.1367 H       1  UNL1        0.0646
     53 H          -8.8293    1.1193    2.1097 H       1  UNL1        0.0619
     54 H          -6.8086    2.1149    3.0120 H       1  UNL1        0.0646
     55 H           3.7033    1.8624   -2.2603 H       1  UNL1        0.0856
     56 H           8.0581    0.1324   -1.1579 H       1  UNL1        0.0640
     57 H          10.0600   -0.5174    0.1625 H       1  UNL1        0.0647
     58 H           7.5951   -1.3036    3.5672 H       1  UNL1        0.0647
     59 H           5.6128   -0.6521    2.2351 H       1  UNL1        0.0640
@<TRIPOS>BOND
     1     1     2    1
     2     2     3   ar
     3     3     4    1
     4     4     5    2
     5     4     6   am
     6     6     7    1
     7     7     8    1
     8     8     9    1
     9     8    10    1
    10    10    11    1
    11    11    12    1
    12    12    13    1
    13    13    14    1
    14    11    15   am
    15    15    16    2
    16    15    17    1
    17    17    18   ar
    18    18    19    1
    19    18    20   ar
    20    20    21   ar
    21    21    22   ar
    22    22    23   ar
    23    23    24    1
    24     8    25    1
    25    25    26    1
    26    25    27    1
    27    25    28    1
    28     3    29   ar
    29    29    30   ar
    30    30    31   ar
    31    31    32    1
    32    32    33   ar
    33    33    34   ar
    34    34    35   ar
    35    35    36    1
    36    35    37   ar
    37    37    38   ar
    38    31     2   ar
    39    38    32   ar
    40    23    17   ar
    41     1    39    1
    42     1    40    1
    43     6    41    1
    44     7    42    1
    45     7    43    1
    46     9    44    1
    47    10    45    1
    48    10    46    1
    49    12    47    1
    50    12    48    1
    51    13    49    1
    52    13    50    1
    53    14    51    1
    54    20    52    1
    55    21    53    1
    56    22    54    1
    57    29    55    1
    58    33    56    1
    59    34    57    1
    60    37    58    1
    61    38    59    1
