@<TRIPOS>MOLECULE
*****
 178 179 0 0 0
SMALL
GASTEIGER

@<TRIPOS>ATOM
      1 C          10.9968   -4.4036    1.4433 C.3     1  UNL1        0.0817
      2 O          11.8070   -3.4380    0.8286 O.3     1  UNL1       -0.4666
      3 C          11.7362   -2.0843    1.1565 C.2     1  UNL1        0.3276
      4 O          10.9335   -1.7028    2.0246 O.2     1  UNL1       -0.2487
      5 C          12.6555   -1.1931    0.4151 C.3     1  UNL1        0.1230
      6 C          14.1288   -1.5728    0.7537 C.3     1  UNL1       -0.0225
      7 C          14.3053   -0.8207    2.0393 C.3     1  UNL1       -0.0349
      8 C          13.4701    0.4109    1.9110 C.3     1  UNL1        0.0157
      9 N          12.5742    0.1790    0.7615 N.am    1  UNL1       -0.2865
     10 C          11.8487    1.2154    0.1887 C.2     1  UNL1        0.2371
     11 O          12.1715    2.4027    0.6653 O.2     1  UNL1       -0.2735
     12 C          10.7960    1.2927   -0.8244 C.3     1  UNL1        0.1061
     13 C          11.0874    2.0796   -2.0369 C.3     1  UNL1       -0.0005
     14 C          12.2363    1.6493   -2.8311 C.ar    1  UNL1       -0.0451
     15 C          12.0863    0.8314   -3.9503 C.ar    1  UNL1       -0.0585
     16 C          13.1590    0.4434   -4.6795 C.ar    1  UNL1       -0.0615
     17 C          14.4140    0.8697   -4.2996 C.ar    1  UNL1       -0.0617
     18 C          14.5799    1.6844   -3.1882 C.ar    1  UNL1       -0.0615
     19 C          13.5133    2.0754   -2.4565 C.ar    1  UNL1       -0.0585
     20 N           9.9230    0.2032   -1.0183 N.am    1  UNL1       -0.2911
     21 C          10.1118   -0.9849   -1.7546 C.3     1  UNL1        0.0040
     22 C           8.6066    0.3331   -0.3884 C.2     1  UNL1        0.2360
     23 O           8.3199    1.3928    0.2218 O.2     1  UNL1       -0.2736
     24 C           7.6007   -0.7586   -0.4413 C.3     1  UNL1        0.0968
     25 C           6.9997   -0.9593   -1.7731 C.3     1  UNL1       -0.0381
     26 N           6.5465   -0.2827    0.5174 N.am    1  UNL1       -0.3027
     27 C           6.8420   -0.3410    1.8961 C.2     1  UNL1        0.2365
     28 O           7.9780   -0.8023    2.2336 O.2     1  UNL1       -0.2737
     29 C           5.8784    0.1262    2.9028 C.3     1  UNL1        0.1252
     30 N           4.5585    0.3092    2.4082 N.am    1  UNL1       -0.3018
     31 C           4.0737    1.4299    1.6722 C.2     1  UNL1        0.2162
     32 O           4.8814    2.3334    1.3797 O.2     1  UNL1       -0.2757
     33 C           2.6250    1.4788    1.2891 C.3     1  UNL1        0.0517
     34 C           2.2723    2.4491    0.2436 C.3     1  UNL1        0.0817
     35 O           2.6439    3.7822    0.4894 O.3     1  UNL1       -0.3895
     36 C           0.8002    2.4951   -0.0743 C.3     1  UNL1        0.0498
     37 C           0.0724    3.4866    0.7790 C.3     1  UNL1       -0.0297
     38 C           0.0506    3.3349    2.2391 C.3     1  UNL1       -0.0450
     39 C          -0.5625    2.0862    2.7877 C.3     1  UNL1       -0.0626
     40 C          -0.8525    4.4886    2.7632 C.3     1  UNL1       -0.0626
     41 N           0.1905    1.2204   -0.2113 N.am    1  UNL1       -0.3084
     42 C          -1.1567    1.1000   -0.6588 C.2     1  UNL1        0.2341
     43 O          -1.8737    2.0670   -0.9622 O.2     1  UNL1       -0.2738
     44 C          -1.7408   -0.2849   -0.7478 C.3     1  UNL1        0.1076
     45 C          -1.5417   -0.8964   -2.0975 C.3     1  UNL1        0.0506
     46 C          -2.1508   -0.1275   -3.1880 C.2     1  UNL1        0.2127
     47 N          -3.0500   -0.7189   -4.1500 N.am    1  UNL1       -0.3293
     48 O          -1.9390    1.0973   -3.3630 O.2     1  UNL1       -0.2760
     49 N          -3.2001   -0.1189   -0.5819 N.am    1  UNL1       -0.3020
     50 C          -3.6579   -0.3255    0.7350 C.2     1  UNL1        0.2340
     51 O          -2.8049   -0.6390    1.6157 O.2     1  UNL1       -0.2738
     52 C          -5.0736   -0.1969    1.1870 C.3     1  UNL1        0.0997
     53 C          -5.4404   -1.2479    2.1302 C.3     1  UNL1       -0.0236
     54 C          -5.4169   -2.6669    1.7273 C.3     1  UNL1       -0.0446
     55 C          -4.0934   -3.2151    1.2549 C.3     1  UNL1       -0.0626
     56 C          -6.4609   -3.0779    0.7246 C.3     1  UNL1       -0.0626
     57 N          -5.9574    0.1147    0.1384 N.am    1  UNL1       -0.3009
     58 C          -6.1013    1.3757   -0.4296 C.2     1  UNL1        0.2547
     59 O          -5.4160    2.3196   -0.0566 O.2     1  UNL1       -0.2717
     60 C          -7.1217    1.6048   -1.5293 C.3     1  UNL1        0.1807
     61 O          -7.9597    0.4360   -1.5193 O.3     1  UNL1       -0.4491
     62 C          -9.2885    0.5284   -1.1340 C.2     1  UNL1        0.3494
     63 O          -9.7465    1.6492   -0.8189 O.2     1  UNL1       -0.2466
     64 C         -10.1895   -0.6666   -1.0693 C.3     1  UNL1        0.2012
     65 O         -11.4624   -0.3154   -0.6128 O.3     1  UNL1       -0.4485
     66 C         -11.9227   -0.6607    0.6720 C.2     1  UNL1        0.3255
     67 O         -11.1131   -1.3117    1.3873 O.2     1  UNL1       -0.2490
     68 C         -13.2749   -0.2832    1.1657 C.3     1  UNL1        0.1102
     69 C         -13.9117   -1.3056    2.0507 C.3     1  UNL1       -0.0207
     70 C         -13.0488   -1.5181    3.2732 C.3     1  UNL1       -0.0607
     71 C         -14.1177   -2.6541    1.4263 C.3     1  UNL1       -0.0607
     72 N         -14.1147    0.3049    0.1732 N.3     1  UNL1       -0.2959
     73 C         -14.3919   -0.4797   -0.9799 C.3     1  UNL1       -0.0123
     74 C         -13.7059    1.6561   -0.1577 C.3     1  UNL1       -0.0123
     75 C         -10.1268   -1.5207   -2.2795 C.3     1  UNL1        0.0011
     76 C         -10.5160   -0.8532   -3.5570 C.3     1  UNL1       -0.0588
     77 C         -10.8945   -2.8240   -2.0336 C.3     1  UNL1       -0.0588
     78 C          -6.4687    1.6617   -2.8770 C.3     1  UNL1       -0.0008
     79 C          -5.4492    2.7548   -3.0245 C.3     1  UNL1       -0.0588
     80 C          -7.5178    1.8785   -3.9527 C.3     1  UNL1       -0.0588
     81 C           5.9600   -0.5888    4.2245 C.3     1  UNL1        0.0792
     82 C           5.2780   -1.9195    4.2357 C.3     1  UNL1       -0.0367
     83 O           7.3207   -0.6814    4.5822 O.3     1  UNL1       -0.3897
     84 H          11.3570   -5.4024    1.0820 H       1  UNL1        0.0661
     85 H           9.9347   -4.3372    1.2024 H       1  UNL1        0.0661
     86 H          11.2012   -4.3972    2.5351 H       1  UNL1        0.0661
     87 H          12.6131   -1.4145   -0.6783 H       1  UNL1        0.0616
     88 H          14.2041   -2.6586    0.8349 H       1  UNL1        0.0289
     89 H          14.7625   -1.2077   -0.0605 H       1  UNL1        0.0289
     90 H          13.9876   -1.4836    2.8885 H       1  UNL1        0.0281
     91 H          15.3629   -0.5489    2.2678 H       1  UNL1        0.0281
     92 H          14.0625    1.3336    1.8112 H       1  UNL1        0.0465
     93 H          12.7793    0.4621    2.8035 H       1  UNL1        0.0465
     94 H          10.0572    2.0701   -0.2329 H       1  UNL1        0.0600
     95 H          10.1961    2.0759   -2.7488 H       1  UNL1        0.0336
     96 H          11.1672    3.1990   -1.8085 H       1  UNL1        0.0336
     97 H          11.0876    0.4868   -4.2538 H       1  UNL1        0.0620
     98 H          12.9978   -0.1967   -5.5495 H       1  UNL1        0.0618
     99 H          15.2761    0.5674   -4.8702 H       1  UNL1        0.0618
    100 H          15.5685    2.0241   -2.8888 H       1  UNL1        0.0618
    101 H          13.6149    2.7307   -1.5723 H       1  UNL1        0.0620
    102 H           9.9023   -1.9152   -1.1518 H       1  UNL1        0.0429
    103 H           9.3859   -1.1017   -2.6264 H       1  UNL1        0.0429
    104 H          11.0895   -1.0188   -2.2353 H       1  UNL1        0.0429
    105 H           8.0171   -1.6628    0.0714 H       1  UNL1        0.0592
    106 H           7.2488   -0.1290   -2.4666 H       1  UNL1        0.0252
    107 H           7.2175   -1.9683   -2.1986 H       1  UNL1        0.0252
    108 H           5.8727   -0.8846   -1.6590 H       1  UNL1        0.0252
    109 H           5.6647    0.0612    0.1182 H       1  UNL1        0.1495
    110 H           6.3176    1.1894    3.1558 H       1  UNL1        0.0621
    111 H           3.8222   -0.4472    2.5841 H       1  UNL1        0.1495
    112 H           2.0789    1.5358    2.2265 H       1  UNL1        0.0384
    113 H           2.4375    0.4055    0.9315 H       1  UNL1        0.0384
    114 H           2.7885    2.1517   -0.7026 H       1  UNL1        0.0616
    115 H           3.1744    4.1478   -0.2580 H       1  UNL1        0.2099
    116 H           0.6592    2.9732   -1.1281 H       1  UNL1        0.0524
    117 H           0.5666    4.4823    0.5536 H       1  UNL1        0.0286
    118 H          -0.9705    3.6415    0.4143 H       1  UNL1        0.0286
    119 H           1.0236    3.5381    2.7326 H       1  UNL1        0.0296
    120 H          -0.4302    1.2062    2.1262 H       1  UNL1        0.0232
    121 H           0.0141    1.8059    3.7189 H       1  UNL1        0.0232
    122 H          -1.5845    2.2390    3.1219 H       1  UNL1        0.0232
    123 H          -0.6044    5.4220    2.2272 H       1  UNL1        0.0232
    124 H          -1.9197    4.1980    2.6784 H       1  UNL1        0.0232
    125 H          -0.6170    4.6034    3.8353 H       1  UNL1        0.0232
    126 H           0.7046    0.3516    0.0060 H       1  UNL1        0.1491
    127 H          -1.3134   -0.9098    0.0307 H       1  UNL1        0.0599
    128 H          -0.4464   -1.0515   -2.2741 H       1  UNL1        0.0381
    129 H          -2.0337   -1.8932   -2.0960 H       1  UNL1        0.0381
    130 H          -4.0495   -0.4355   -4.0753 H       1  UNL1        0.1449
    131 H          -2.7855   -1.3748   -4.8821 H       1  UNL1        0.1449
    132 H          -3.7656    0.1248   -1.3716 H       1  UNL1        0.1495
    133 H          -5.0001    0.7876    1.7924 H       1  UNL1        0.0594
    134 H          -6.3965   -0.9721    2.6797 H       1  UNL1        0.0290
    135 H          -4.6989   -1.1753    2.9983 H       1  UNL1        0.0290
    136 H          -5.6287   -3.2981    2.6635 H       1  UNL1        0.0296
    137 H          -3.8053   -2.7629    0.2865 H       1  UNL1        0.0232
    138 H          -3.3100   -3.2622    2.0134 H       1  UNL1        0.0232
    139 H          -4.2709   -4.3152    0.9897 H       1  UNL1        0.0232
    140 H          -6.6510   -4.1813    0.8896 H       1  UNL1        0.0232
    141 H          -6.0575   -3.0181   -0.3035 H       1  UNL1        0.0232
    142 H          -7.4464   -2.6018    0.8672 H       1  UNL1        0.0232
    143 H          -6.5538   -0.6749   -0.2419 H       1  UNL1        0.1496
    144 H          -7.6277    2.5253   -1.2802 H       1  UNL1        0.0835
    145 H          -9.7190   -1.2823   -0.2265 H       1  UNL1        0.0855
    146 H         -13.0432    0.5891    1.8826 H       1  UNL1        0.0581
    147 H         -14.9004   -0.9017    2.3815 H       1  UNL1        0.0316
    148 H         -13.7165   -1.5492    4.1587 H       1  UNL1        0.0233
    149 H         -12.5685   -2.5242    3.2158 H       1  UNL1        0.0233
    150 H         -12.2531   -0.7376    3.3689 H       1  UNL1        0.0233
    151 H         -15.0346   -3.1031    1.9128 H       1  UNL1        0.0233
    152 H         -14.2999   -2.6675    0.3542 H       1  UNL1        0.0233
    153 H         -13.3017   -3.3687    1.7369 H       1  UNL1        0.0233
    154 H         -14.5526    0.2628   -1.8270 H       1  UNL1        0.0391
    155 H         -15.4020   -0.9838   -0.9154 H       1  UNL1        0.0391
    156 H         -13.5928   -1.1305   -1.3316 H       1  UNL1        0.0391
    157 H         -14.0680    1.8935   -1.1983 H       1  UNL1        0.0391
    158 H         -14.0988    2.3774    0.5595 H       1  UNL1        0.0391
    159 H         -12.5919    1.6697   -0.2257 H       1  UNL1        0.0391
    160 H          -9.0492   -1.8657   -2.3669 H       1  UNL1        0.0337
    161 H          -9.6717   -0.9015   -4.2882 H       1  UNL1        0.0234
    162 H         -11.3737   -1.4199   -3.9837 H       1  UNL1        0.0234
    163 H         -10.7942    0.1932   -3.3140 H       1  UNL1        0.0234
    164 H         -10.6322   -3.1219   -0.9899 H       1  UNL1        0.0234
    165 H         -10.4772   -3.5696   -2.7251 H       1  UNL1        0.0234
    166 H         -11.9744   -2.6840   -2.1838 H       1  UNL1        0.0234
    167 H          -5.9902    0.6642   -3.1391 H       1  UNL1        0.0336
    168 H          -5.6316    3.3942   -3.9312 H       1  UNL1        0.0234
    169 H          -5.4063    3.4589   -2.1796 H       1  UNL1        0.0234
    170 H          -4.4380    2.2882   -3.2180 H       1  UNL1        0.0234
    171 H          -7.8231    0.8816   -4.3965 H       1  UNL1        0.0234
    172 H          -7.1146    2.5328   -4.7546 H       1  UNL1        0.0234
    173 H          -8.4677    2.2909   -3.5498 H       1  UNL1        0.0234
    174 H           5.5089    0.1058    4.9755 H       1  UNL1        0.0614
    175 H           4.8229   -2.1944    3.2692 H       1  UNL1        0.0255
    176 H           4.5372   -1.9851    5.0774 H       1  UNL1        0.0255
    177 H           6.0693   -2.6856    4.4615 H       1  UNL1        0.0255
    178 H           7.5993    0.2459    4.8162 H       1  UNL1        0.2099
@<TRIPOS>BOND
     1     1     2    1
     2     2     3    1
     3     3     4    2
     4     3     5    1
     5     5     6    1
     6     6     7    1
     7     7     8    1
     8     8     9    1
     9     9    10   am
    10    10    11    2
    11    10    12    1
    12    12    13    1
    13    13    14    1
    14    14    15   ar
    15    15    16   ar
    16    16    17   ar
    17    17    18   ar
    18    18    19   ar
    19    12    20    1
    20    20    21    1
    21    20    22   am
    22    22    23    2
    23    22    24    1
    24    24    25    1
    25    24    26    1
    26    26    27   am
    27    27    28    2
    28    27    29    1
    29    29    30    1
    30    30    31   am
    31    31    32    2
    32    31    33    1
    33    33    34    1
    34    34    35    1
    35    34    36    1
    36    36    37    1
    37    37    38    1
    38    38    39    1
    39    38    40    1
    40    36    41    1
    41    41    42   am
    42    42    43    2
    43    42    44    1
    44    44    45    1
    45    45    46    1
    46    46    47   am
    47    46    48    2
    48    44    49    1
    49    49    50   am
    50    50    51    2
    51    50    52    1
    52    52    53    1
    53    53    54    1
    54    54    55    1
    55    54    56    1
    56    52    57    1
    57    57    58   am
    58    58    59    2
    59    58    60    1
    60    60    61    1
    61    61    62    1
    62    62    63    2
    63    62    64    1
    64    64    65    1
    65    65    66    1
    66    66    67    2
    67    66    68    1
    68    68    69    1
    69    69    70    1
    70    69    71    1
    71    68    72    1
    72    72    73    1
    73    72    74    1
    74    64    75    1
    75    75    76    1
    76    75    77    1
    77    60    78    1
    78    78    79    1
    79    78    80    1
    80    29    81    1
    81    81    82    1
    82    81    83    1
    83     9     5    1
    84    19    14   ar
    85     1    84    1
    86     1    85    1
    87     1    86    1
    88     5    87    1
    89     6    88    1
    90     6    89    1
    91     7    90    1
    92     7    91    1
    93     8    92    1
    94     8    93    1
    95    12    94    1
    96    13    95    1
    97    13    96    1
    98    15    97    1
    99    16    98    1
   100    17    99    1
   101    18   100    1
   102    19   101    1
   103    21   102    1
   104    21   103    1
   105    21   104    1
   106    24   105    1
   107    25   106    1
   108    25   107    1
   109    25   108    1
   110    26   109    1
   111    29   110    1
   112    30   111    1
   113    33   112    1
   114    33   113    1
   115    34   114    1
   116    35   115    1
   117    36   116    1
   118    37   117    1
   119    37   118    1
   120    38   119    1
   121    39   120    1
   122    39   121    1
   123    39   122    1
   124    40   123    1
   125    40   124    1
   126    40   125    1
   127    41   126    1
   128    44   127    1
   129    45   128    1
   130    45   129    1
   131    47   130    1
   132    47   131    1
   133    49   132    1
   134    52   133    1
   135    53   134    1
   136    53   135    1
   137    54   136    1
   138    55   137    1
   139    55   138    1
   140    55   139    1
   141    56   140    1
   142    56   141    1
   143    56   142    1
   144    57   143    1
   145    60   144    1
   146    64   145    1
   147    68   146    1
   148    69   147    1
   149    70   148    1
   150    70   149    1
   151    70   150    1
   152    71   151    1
   153    71   152    1
   154    71   153    1
   155    73   154    1
   156    73   155    1
   157    73   156    1
   158    74   157    1
   159    74   158    1
   160    74   159    1
   161    75   160    1
   162    76   161    1
   163    76   162    1
   164    76   163    1
   165    77   164    1
   166    77   165    1
   167    77   166    1
   168    78   167    1
   169    79   168    1
   170    79   169    1
   171    79   170    1
   172    80   171    1
   173    80   172    1
   174    80   173    1
   175    81   174    1
   176    82   175    1
   177    82   176    1
   178    82   177    1
   179    83   178    1
