@<TRIPOS>MOLECULE
*****
 220 227 0 0 0
SMALL
GASTEIGER

@<TRIPOS>ATOM
      1 C          -7.8759    4.5731    2.9162 C.3     1  UNL1       -0.0626
      2 C          -6.4036    4.6051    2.4887 C.3     1  UNL1       -0.0446
      3 C          -5.8498    6.0137    2.6755 C.3     1  UNL1       -0.0626
      4 C          -5.6741    3.6553    3.3780 C.3     1  UNL1       -0.0236
      5 C          -4.1733    3.5682    3.0835 C.3     1  UNL1        0.0996
      6 N          -3.8933    3.1157    1.7592 N.am    1  UNL1       -0.3025
      7 C          -3.3323    3.7676    0.6355 C.2     1  UNL1        0.2343
      8 O          -2.9880    4.9753    0.7453 O.2     1  UNL1       -0.2738
      9 C          -3.0430    3.3333   -0.7168 C.3     1  UNL1        0.1034
     10 C          -1.6151    3.7383   -1.0769 C.3     1  UNL1       -0.0007
     11 C          -1.2954    3.3948   -2.4690 C.ar    1  UNL1       -0.0450
     12 C          -0.6847    2.3832   -3.1609 C.ar    1  UNL1       -0.0567
     13 C          -0.5985    2.3568   -4.5299 C.ar    1  UNL1       -0.0402
     14 C          -1.1096    3.3310   -5.3412 C.ar    1  UNL1        0.0348
     15 N          -0.9463    3.1376   -6.7298 N.am    1  UNL1       -0.2696
     16 C          -1.4260    3.9901   -7.7175 C.2     1  UNL1        0.3013
     17 N          -1.3541    3.9469   -9.1285 N.am    1  UNL1       -0.3131
     18 O          -2.0619    5.0433   -7.5255 O.2     1  UNL1       -0.2527
     19 C          -1.7258    4.3629   -4.7044 C.ar    1  UNL1       -0.0402
     20 C          -1.8246    4.4093   -3.3050 C.ar    1  UNL1       -0.0567
     21 N          -3.3744    1.9789   -0.9578 N.am    1  UNL1       -0.3022
     22 C          -3.6954    1.0312   -1.9058 C.2     1  UNL1        0.2343
     23 O          -3.7087    1.4180   -3.1151 O.2     1  UNL1       -0.2738
     24 C          -4.0668   -0.3507   -2.1574 C.3     1  UNL1        0.1034
     25 C          -3.7107   -1.3934   -1.1819 C.3     1  UNL1       -0.0007
     26 C          -2.2972   -1.6533   -0.8898 C.ar    1  UNL1       -0.0450
     27 C          -1.6881   -2.6615   -1.6459 C.ar    1  UNL1       -0.0568
     28 C          -0.3780   -3.1027   -1.5137 C.ar    1  UNL1       -0.0402
     29 C           0.3780   -2.4735   -0.5399 C.ar    1  UNL1        0.0335
     30 N           1.7007   -3.0327   -0.4592 N.am    1  UNL1       -0.2840
     31 C           1.7229   -4.0037    0.5972 C.2     1  UNL1        0.2381
     32 O           0.7039   -4.2617    1.3083 O.2     1  UNL1       -0.2734
     33 C           2.9907   -4.7376    0.8782 C.3     1  UNL1        0.1093
     34 C           3.2223   -5.7759   -0.2414 C.3     1  UNL1        0.0513
     35 C           2.0592   -6.7318   -0.1584 C.2     1  UNL1        0.2226
     36 O           1.3108   -6.9603   -1.1424 O.2     1  UNL1       -0.2753
     37 N           1.7696   -7.4144    1.0602 N.am    1  UNL1       -0.2401
     38 C           2.1870   -6.7827    2.2554 C.2     1  UNL1        0.3065
     39 O           1.9719   -7.3104    3.3544 O.2     1  UNL1       -0.2524
     40 N           2.8443   -5.5453    2.0789 N.am    1  UNL1       -0.2873
     41 C          -0.1713   -1.4857    0.2178 C.ar    1  UNL1       -0.0402
     42 C          -1.4733   -1.0764    0.0570 C.ar    1  UNL1       -0.0568
     43 N          -3.8242   -0.7770   -3.5016 N.am    1  UNL1       -0.3021
     44 C          -4.2740   -1.0265   -4.7854 C.2     1  UNL1        0.2362
     45 O          -5.5142   -0.7650   -4.9185 O.2     1  UNL1       -0.2737
     46 CA         -3.5162   -1.5357   -5.9537 C.3     1  UNL1        0.1226
     47 C          -4.1643   -2.7245   -6.5883 C.3     1  UNL1        0.0711
     48 O          -5.4804   -2.4683   -6.9878 O.3     1  UNL1       -0.3927
     49 N          -2.1787   -1.8629   -5.5728 N.am    1  UNL1       -0.3006
     50 C          -0.8983   -1.2612   -5.8871 C.2     1  UNL1        0.2343
     51 O          -1.1854   -0.2798   -6.6337 O.2     1  UNL1       -0.2738
     52 CA          0.2987   -1.9742   -5.2436 C.3     1  UNL1        0.1034
     53 C           0.3683   -3.3146   -5.9313 C.3     1  UNL1        0.0008
     54 C           1.4613   -4.1951   -5.5035 C.ar    1  UNL1       -0.0270
     55 C           1.4788   -5.1457   -4.5138 C.ar    1  UNL1       -0.0556
     56 C           2.6303   -5.8750   -4.2722 C.ar    1  UNL1       -0.0433
     57 C           3.8030   -5.7092   -4.9795 C.ar    1  UNL1        0.0276
     58 N           3.8013   -4.7887   -5.9452 N.ar    1  UNL1       -0.2630
     59 C           2.6786   -4.0606   -6.1982 C.ar    1  UNL1        0.0308
     60 N           1.4904   -1.2244   -5.4208 N.am    1  UNL1       -0.3022
     61 C           2.1760   -0.3202   -4.6441 C.2     1  UNL1        0.2343
     62 O           1.6842   -0.0068   -3.4909 O.2     1  UNL1       -0.2738
     63 CA          3.3105    0.5364   -4.4994 C.3     1  UNL1        0.1034
     64 C           4.0705    0.9959   -5.7044 C.3     1  UNL1       -0.0007
     65 C           4.7003   -0.0800   -6.5001 C.ar    1  UNL1       -0.0451
     66 C           4.4337   -0.8017   -7.6361 C.ar    1  UNL1       -0.0571
     67 C           5.2243   -1.8146   -8.1080 C.ar    1  UNL1       -0.0431
     68 C           6.3761   -2.1831   -7.4466 C.ar    1  UNL1        0.0410
     69 CL          7.2990   -3.4828   -8.1211 Cl      1  UNL1       -0.0835
     70 C           6.7322   -1.5029   -6.2767 C.ar    1  UNL1       -0.0431
     71 C           5.8855   -0.4780   -5.8438 C.ar    1  UNL1       -0.0571
     72 N           3.1982    1.4979   -3.4536 N.am    1  UNL1       -0.3022
     73 C           4.0774    1.7509   -2.4016 C.2     1  UNL1        0.2343
     74 O           5.1382    1.0193   -2.3558 O.2     1  UNL1       -0.2738
     75 CA          4.6034    2.3765   -1.2167 C.3     1  UNL1        0.1033
     76 C           3.7853    2.0614    0.0290 C.3     1  UNL1       -0.0006
     77 C           4.3854    2.7296    1.2199 C.ar    1  UNL1       -0.0445
     78 C           4.0454    3.9700    1.7283 C.ar    1  UNL1       -0.0579
     79 C           4.7104    4.4924    2.8345 C.ar    1  UNL1       -0.0538
     80 C           5.7273    3.8036    3.4674 C.ar    1  UNL1       -0.0179
     81 C           6.3593    4.3578    4.5602 C.ar    1  UNL1       -0.0540
     82 C           7.3836    3.6275    5.1721 C.ar    1  UNL1       -0.0612
     83 C           7.7487    2.3817    4.6896 C.ar    1  UNL1       -0.0612
     84 C           7.0860    1.8706    3.5936 C.ar    1  UNL1       -0.0540
     85 C           6.0832    2.5669    2.9812 C.ar    1  UNL1       -0.0176
     86 C           5.4211    2.0737    1.8979 C.ar    1  UNL1       -0.0508
     87 N           5.9168    1.7624   -0.9139 N.am    1  UNL1       -0.3039
     88 C           7.0359    2.6502   -0.7943 C.2     1  UNL1        0.2105
     89 C           8.4148    2.1864   -0.4920 C.3     1  UNL1        0.0122
     90 O           6.8637    3.8871   -0.9475 O.2     1  UNL1       -0.2761
     91 C          -3.6079    2.7198    4.1571 C.2     1  UNL1        0.2340
     92 O          -3.9456    3.2242    5.2565 O.2     1  UNL1       -0.2738
     93 N          -2.8052    1.5217    4.1012 N.am    1  UNL1       -0.3025
     94 C          -2.4978    1.0390    5.4561 C.3     1  UNL1        0.0996
     95 C          -2.6843   -0.4733    5.4300 C.3     1  UNL1       -0.0259
     96 C          -4.1387   -0.7994    5.0409 C.3     1  UNL1       -0.0498
     97 C          -4.2251   -2.2846    5.0068 C.3     1  UNL1       -0.0404
     98 C          -5.5399   -2.9104    4.7261 C.3     1  UNL1       -0.0039
     99 N          -6.2380   -2.6832    3.5484 N.3     1  UNL1       -0.3138
    100 C          -6.8651   -1.4808    3.2174 C.3     1  UNL1        0.0020
    101 C          -7.7013   -1.7306    1.9444 C.3     1  UNL1       -0.0499
    102 C          -7.8820   -1.0504    4.2847 C.3     1  UNL1       -0.0499
    103 C          -1.0305    1.3072    5.6446 C.2     1  UNL1        0.2365
    104 O          -0.6709    1.6163    4.4790 O.2     1  UNL1       -0.2735
    105 N          -0.3618    1.1965    6.8979 N.am    1  UNL1       -0.2884
    106 C          -0.7453    0.8882    8.2704 C.3     1  UNL1        0.0156
    107 C           0.6071    0.8247    8.9909 C.3     1  UNL1       -0.0350
    108 C           1.5206    1.7172    8.1669 C.3     1  UNL1       -0.0243
    109 C           1.0781    1.4297    6.7510 C.3     1  UNL1        0.1023
    110 C           1.7244    0.1936    6.2127 C.2     1  UNL1        0.2342
    111 O           1.1528   -0.8971    6.0712 O.2     1  UNL1       -0.2738
    112 N           3.1058    0.3844    5.8573 N.am    1  UNL1       -0.3027
    113 C           3.7195   -0.8409    5.3154 C.3     1  UNL1        0.0964
    114 C           5.1479   -0.8924    5.7553 C.3     1  UNL1       -0.0381
    115 C           3.6455   -0.7541    3.8120 C.2     1  UNL1        0.2306
    116 N           4.1774   -1.9763    3.3090 N.am    1  UNL1       -0.3278
    117 O           3.4512   -0.3802    2.6278 O.2     1  UNL1       -0.2740
    118 H          -8.4622    4.9574    2.0789 H       1  UNL1        0.0232
    119 H          -7.9945    5.1922    3.8338 H       1  UNL1        0.0232
    120 H          -8.1170    3.4986    3.0938 H       1  UNL1        0.0232
    121 H          -6.3835    4.3690    1.4252 H       1  UNL1        0.0296
    122 H          -6.7137    6.6726    2.8924 H       1  UNL1        0.0232
    123 H          -5.2855    6.3210    1.7919 H       1  UNL1        0.0232
    124 H          -5.2067    6.0336    3.5963 H       1  UNL1        0.0232
    125 H          -5.7984    3.9698    4.4365 H       1  UNL1        0.0290
    126 H          -6.0964    2.6282    3.3105 H       1  UNL1        0.0290
    127 H          -3.8064    4.6222    3.2166 H       1  UNL1        0.0594
    128 H          -4.1459    2.1270    1.5902 H       1  UNL1        0.1495
    129 H          -3.6414    3.9508   -1.4528 H       1  UNL1        0.0598
    130 H          -1.5244    4.8151   -0.9175 H       1  UNL1        0.0336
    131 H          -0.8660    3.2630   -0.4037 H       1  UNL1        0.0336
    132 H          -0.3119    1.6679   -2.4652 H       1  UNL1        0.0621
    133 H          -0.0877    1.4896   -4.9069 H       1  UNL1        0.0636
    134 H          -0.4482    2.3261   -7.1404 H       1  UNL1        0.1564
    135 H          -1.5385    3.1106   -9.7525 H       1  UNL1        0.1465
    136 H          -1.1345    4.6539   -9.8572 H       1  UNL1        0.1465
    137 H          -2.1374    5.1548   -5.3104 H       1  UNL1        0.0636
    138 H          -2.3438    5.3040   -2.9797 H       1  UNL1        0.0621
    139 H          -3.4218    1.3466   -0.0974 H       1  UNL1        0.1495
    140 H          -5.2485   -0.2958   -2.1521 H       1  UNL1        0.0598
    141 H          -4.1626   -2.3602   -1.5801 H       1  UNL1        0.0336
    142 H          -4.2776   -1.2778   -0.2050 H       1  UNL1        0.0336
    143 H          -2.2907   -3.1650   -2.4214 H       1  UNL1        0.0621
    144 H          -0.0290   -3.8877   -2.1533 H       1  UNL1        0.0636
    145 H           2.5656   -2.8319   -1.0265 H       1  UNL1        0.1549
    146 H           3.8812   -4.1092    0.9140 H       1  UNL1        0.0600
    147 H           3.2881   -5.3240   -1.2266 H       1  UNL1        0.0381
    148 H           4.1194   -6.3468    0.0425 H       1  UNL1        0.0381
    149 H           1.2782   -8.3298    1.0771 H       1  UNL1        0.1591
    150 H           3.3029   -5.1368    2.9427 H       1  UNL1        0.1510
    151 H           0.4820   -1.0612    0.9443 H       1  UNL1        0.0636
    152 H          -1.9109   -0.3024    0.6560 H       1  UNL1        0.0621
    153 H          -2.7899   -0.9938   -3.4423 H       1  UNL1        0.1495
    154 HA         -3.5192   -0.7028   -6.7241 H       1  UNL1        0.0618
    155 H1         -3.5588   -3.0124   -7.4559 H       1  UNL1        0.0580
    156 H2         -4.1824   -3.5948   -5.8931 H       1  UNL1        0.0580
    157 H          -6.0825   -2.7151   -6.2399 H       1  UNL1        0.2095
    158 H          -2.2572   -2.7192   -4.9439 H       1  UNL1        0.1496
    159 HA         -0.0416   -2.1129   -4.2100 H       1  UNL1        0.0598
    160 H          -0.6287   -3.8247   -5.8604 H       1  UNL1        0.0336
    161 H           0.4835   -3.1243   -7.0403 H       1  UNL1        0.0336
    162 H           0.5517   -5.2593   -3.9815 H       1  UNL1        0.0621
    163 H           2.6389   -6.6148   -3.5010 H       1  UNL1        0.0633
    164 H           4.6807   -6.3067   -4.7508 H       1  UNL1        0.0829
    165 H           2.8999   -3.3810   -7.0207 H       1  UNL1        0.0832
    166 H           2.0614   -1.2776   -6.2816 H       1  UNL1        0.1495
    167 HA          4.1264   -0.1824   -4.0258 H       1  UNL1        0.0598
    168 H           4.8505    1.7373   -5.4768 H       1  UNL1        0.0336
    169 H           3.3115    1.4656   -6.3917 H       1  UNL1        0.0336
    170 H           3.5001   -0.4009   -8.0493 H       1  UNL1        0.0621
    171 H           4.8507   -2.2608   -9.0172 H       1  UNL1        0.0632
    172 H           7.6238   -1.8162   -5.8030 H       1  UNL1        0.0632
    173 H           6.3078   -0.0515   -4.9202 H       1  UNL1        0.0621
    174 H           2.4871    2.2513   -3.1601 H       1  UNL1        0.1495
    175 HA          4.7533    3.4843   -1.3145 H       1  UNL1        0.0598
    176 H           2.7546    2.3943   -0.1660 H       1  UNL1        0.0336
    177 H           3.8949    0.9714    0.2000 H       1  UNL1        0.0336
    178 H           3.2444    4.4865    1.2046 H       1  UNL1        0.0620
    179 H           4.4169    5.4564    3.1987 H       1  UNL1        0.0624
    180 H           6.1073    5.3378    4.9708 H       1  UNL1        0.0624
    181 H           7.9288    3.9822    6.0278 H       1  UNL1        0.0618
    182 H           8.5501    1.7732    5.1368 H       1  UNL1        0.0618
    183 H           7.3783    0.8927    3.2236 H       1  UNL1        0.0624
    184 H           5.7396    1.1009    1.5506 H       1  UNL1        0.0626
    185 H           6.1107    0.7490   -0.7736 H       1  UNL1        0.1495
    186 H           8.3489    1.3402    0.2550 H       1  UNL1        0.0322
    187 H           9.0373    2.9567   -0.0442 H       1  UNL1        0.0322
    188 H           8.9042    1.7137   -1.3750 H       1  UNL1        0.0322
    189 H          -2.6212    1.2575    3.1299 H       1  UNL1        0.1495
    190 H          -3.0614    1.5204    6.2268 H       1  UNL1        0.0594
    191 H          -2.5266   -0.9049    6.4313 H       1  UNL1        0.0288
    192 H          -2.0392   -0.9642    4.6905 H       1  UNL1        0.0288
    193 H          -4.3108   -0.3336    4.0409 H       1  UNL1        0.0266
    194 H          -4.8482   -0.3761    5.7662 H       1  UNL1        0.0266
    195 H          -3.4670   -2.6386    4.2289 H       1  UNL1        0.0277
    196 H          -3.7765   -2.7244    5.9578 H       1  UNL1        0.0277
    197 H          -5.3832   -4.0483    4.8088 H       1  UNL1        0.0424
    198 H          -6.2068   -2.7358    5.6408 H       1  UNL1        0.0424
    199 H          -5.8486   -3.1688    2.7352 H       1  UNL1        0.1222
    200 H          -6.1988   -0.6470    2.9960 H       1  UNL1        0.0455
    201 H          -8.1517   -2.7566    2.0895 H       1  UNL1        0.0245
    202 H          -7.0350   -1.7381    1.0510 H       1  UNL1        0.0245
    203 H          -8.4766   -0.9558    1.8511 H       1  UNL1        0.0245
    204 H          -8.6590   -0.4690    3.7561 H       1  UNL1        0.0245
    205 H          -8.3042   -1.9968    4.7080 H       1  UNL1        0.0245
    206 H          -7.4320   -0.4301    5.0741 H       1  UNL1        0.0245
    207 H          -1.2967   -0.0644    8.3374 H       1  UNL1        0.0465
    208 H          -1.3452    1.7301    8.6907 H       1  UNL1        0.0465
    209 H           0.5199    1.2266   10.0278 H       1  UNL1        0.0281
    210 H           0.9720   -0.2077    9.0477 H       1  UNL1        0.0281
    211 H           1.2750    2.8043    8.3770 H       1  UNL1        0.0288
    212 H           2.5669    1.4758    8.3262 H       1  UNL1        0.0288
    213 H           1.2875    2.3197    6.1333 H       1  UNL1        0.0597
    214 H           3.6743    1.2571    5.9466 H       1  UNL1        0.1495
    215 H           3.1098   -1.7206    5.6053 H       1  UNL1        0.0592
    216 H           5.4306    0.0632    6.2242 H       1  UNL1        0.0252
    217 H           5.3412   -1.7566    6.4511 H       1  UNL1        0.0252
    218 H           5.8528   -1.0666    4.8950 H       1  UNL1        0.0252
    219 H           4.6260   -2.7735    2.8091 H       1  UNL1        0.1450
    220 H           4.2503   -2.9985    3.4912 H       1  UNL1        0.1450
@<TRIPOS>BOND
     1     1     2    1
     2     2     3    1
     3     2     4    1
     4     4     5    1
     5     5     6    1
     6     6     7   am
     7     7     8    2
     8     7     9    1
     9     9    10    1
    10    10    11    1
    11    11    12   ar
    12    12    13   ar
    13    13    14   ar
    14    14    15    1
    15    15    16   am
    16    16    17   am
    17    16    18    2
    18    14    19   ar
    19    19    20   ar
    20     9    21    1
    21    21    22   am
    22    22    23    2
    23    22    24    1
    24    24    25    1
    25    25    26    1
    26    26    27   ar
    27    27    28   ar
    28    28    29   ar
    29    29    30    1
    30    30    31   am
    31    31    32    2
    32    31    33    1
    33    33    34    1
    34    34    35    1
    35    35    36    2
    36    35    37   am
    37    37    38   am
    38    38    39    2
    39    38    40   am
    40    29    41   ar
    41    41    42   ar
    42    24    43    1
    43    43    44   am
    44    44    45    2
    45    44    46    1
    46    46    47    1
    47    47    48    1
    48    46    49    1
    49    49    50   am
    50    50    51    2
    51    50    52    1
    52    52    53    1
    53    53    54    1
    54    54    55   ar
    55    55    56   ar
    56    56    57   ar
    57    57    58   ar
    58    58    59   ar
    59    52    60    1
    60    60    61   am
    61    61    62    2
    62    61    63    1
    63    63    64    1
    64    64    65    1
    65    65    66   ar
    66    66    67   ar
    67    67    68   ar
    68    68    69    1
    69    68    70   ar
    70    70    71   ar
    71    63    72    1
    72    72    73   am
    73    73    74    2
    74    73    75    1
    75    75    76    1
    76    76    77    1
    77    77    78   ar
    78    78    79   ar
    79    79    80   ar
    80    80    81   ar
    81    81    82   ar
    82    82    83   ar
    83    83    84   ar
    84    84    85   ar
    85    85    86   ar
    86    75    87    1
    87    87    88   am
    88    88    89    1
    89    88    90    2
    90     5    91    1
    91    91    92    2
    92    91    93   am
    93    93    94    1
    94    94    95    1
    95    95    96    1
    96    96    97    1
    97    97    98    1
    98    98    99    1
    99    99   100    1
   100   100   101    1
   101   100   102    1
   102    94   103    1
   103   103   104    2
   104   103   105   am
   105   105   106    1
   106   106   107    1
   107   107   108    1
   108   108   109    1
   109   109   110    1
   110   110   111    2
   111   110   112   am
   112   112   113    1
   113   113   114    1
   114   113   115    1
   115   115   116   am
   116   115   117    2
   117    20    11   ar
   118    42    26   ar
   119    59    54   ar
   120    71    65   ar
   121    86    77   ar
   122   109   105    1
   123    40    33    1
   124    85    80   ar
   125     1   118    1
   126     1   119    1
   127     1   120    1
   128     2   121    1
   129     3   122    1
   130     3   123    1
   131     3   124    1
   132     4   125    1
   133     4   126    1
   134     5   127    1
   135     6   128    1
   136     9   129    1
   137    10   130    1
   138    10   131    1
   139    12   132    1
   140    13   133    1
   141    15   134    1
   142    17   135    1
   143    17   136    1
   144    19   137    1
   145    20   138    1
   146    21   139    1
   147    24   140    1
   148    25   141    1
   149    25   142    1
   150    27   143    1
   151    28   144    1
   152    30   145    1
   153    33   146    1
   154    34   147    1
   155    34   148    1
   156    37   149    1
   157    40   150    1
   158    41   151    1
   159    42   152    1
   160    43   153    1
   161    46   154    1
   162    47   155    1
   163    47   156    1
   164    48   157    1
   165    49   158    1
   166    52   159    1
   167    53   160    1
   168    53   161    1
   169    55   162    1
   170    56   163    1
   171    57   164    1
   172    59   165    1
   173    60   166    1
   174    63   167    1
   175    64   168    1
   176    64   169    1
   177    66   170    1
   178    67   171    1
   179    70   172    1
   180    71   173    1
   181    72   174    1
   182    75   175    1
   183    76   176    1
   184    76   177    1
   185    78   178    1
   186    79   179    1
   187    81   180    1
   188    82   181    1
   189    83   182    1
   190    84   183    1
   191    86   184    1
   192    87   185    1
   193    89   186    1
   194    89   187    1
   195    89   188    1
   196    93   189    1
   197    94   190    1
   198    95   191    1
   199    95   192    1
   200    96   193    1
   201    96   194    1
   202    97   195    1
   203    97   196    1
   204    98   197    1
   205    98   198    1
   206    99   199    1
   207   100   200    1
   208   101   201    1
   209   101   202    1
   210   101   203    1
   211   102   204    1
   212   102   205    1
   213   102   206    1
   214   106   207    1
   215   106   208    1
   216   107   209    1
   217   107   210    1
   218   108   211    1
   219   108   212    1
   220   109   213    1
   221   112   214    1
   222   113   215    1
   223   114   216    1
   224   114   217    1
   225   114   218    1
   226   116   219    1
   227   116   220    1
