@<TRIPOS>MOLECULE
*****
 19 19 0 0 0
SMALL
GASTEIGER

@<TRIPOS>ATOM
      1 C          -4.3685    0.0481    0.1353 C.3     1  UNL1        0.0125
      2 C          -2.9770   -0.2271   -0.2745 C.2     1  UNL1        0.2156
      3 O          -2.6926   -0.4178   -1.4792 O.2     1  UNL1       -0.2757
      4 N          -1.9097   -0.2854    0.6848 N.am    1  UNL1       -0.2635
      5 C          -0.5677   -0.5518    0.2812 C.ar    1  UNL1        0.1893
      6 N           0.1859   -1.4691    0.1075 N.ar    1  UNL1       -0.1239
      7 N           1.4147   -1.3320   -0.2882 N.ar    1  UNL1       -0.1190
      8 C           1.9785   -0.3557   -0.5325 C.ar    1  UNL1        0.2556
      9 S           3.4398    0.4428   -1.0384 S.O2    1  UNL1        0.0815
     10 N           4.3443    0.8265    0.3766 N.3     1  UNL1       -0.2015
     11 O           3.1958    1.7056   -1.8058 O.2     1  UNL1       -0.1512
     12 O           4.2082   -0.5449   -1.9090 O.2     1  UNL1       -0.1512
     13 S           0.5818    0.8834   -0.1787 S.2     1  UNL1       -0.0105
     14 H          -4.8833   -0.8010    0.5890 H       1  UNL1        0.0323
     15 H          -4.4418    0.8937    0.8585 H       1  UNL1        0.0323
     16 H          -4.9548    0.3414   -0.7692 H       1  UNL1        0.0323
     17 H          -2.1788   -0.1219    1.6833 H       1  UNL1        0.1568
     18 H           5.3660    0.8894    0.1185 H       1  UNL1        0.1443
     19 H           4.2590    0.0759    1.1127 H       1  UNL1        0.1443
@<TRIPOS>BOND
     1     1     2    1
     2     2     3    2
     3     2     4   am
     4     4     5    1
     5     5     6   ar
     6     6     7   ar
     7     7     8   ar
     8     8     9    1
     9     9    10    1
    10     9    11    2
    11     9    12    2
    12     8    13   ar
    13    13     5   ar
    14     1    14    1
    15     1    15    1
    16     1    16    1
    17     4    17    1
    18    10    18    1
    19    10    19    1
