@<TRIPOS>MOLECULE
*****
 45 49 0 0 0
SMALL
GASTEIGER

@<TRIPOS>ATOM
      1 C          -5.3195    0.9630    0.5919 C.3     1  UNL1        0.0360
      2 C          -5.6650    1.9372   -0.5432 C.3     1  UNL1       -0.0452
      3 C          -3.8997    1.0907    1.0071 C.3     1  UNL1        0.0273
      4 N          -2.9596    0.4686    0.0596 N.pl3   1  UNL1       -0.3406
      5 C          -2.6683   -0.9081   -0.1225 C.ar    1  UNL1        0.0551
      6 C          -3.8257   -1.7607   -0.2450 C.ar    1  UNL1        0.0958
      7 S          -3.2064   -3.3768   -0.5761 S.2     1  UNL1       -0.0818
      8 C          -1.4126   -2.8832   -0.5411 C.ar    1  UNL1        0.0226
      9 C          -1.4764   -1.5037   -0.2727 C.ar    1  UNL1        0.0200
     10 C          -0.2253   -0.9775   -0.1981 C.ar    1  UNL1        0.0104
     11 C           0.8913   -1.7429   -0.3787 C.ar    1  UNL1        0.0724
     12 C           0.8963   -3.1080   -0.6493 C.ar    1  UNL1       -0.0346
     13 C          -0.3567   -3.6748   -0.7255 C.ar    1  UNL1       -0.0453
     14 N           2.1649   -1.2528   -0.2767 N.ar    1  UNL1       -0.2466
     15 C           2.4208    0.0326    0.0156 C.ar    1  UNL1        0.0731
     16 C           1.3374    0.8484    0.2123 C.ar    1  UNL1       -0.0350
     17 C           0.0680    0.3208    0.1007 C.ar    1  UNL1       -0.0499
     18 C           3.8103    0.4604    0.1012 C.ar    1  UNL1        0.0185
     19 C           4.7808   -0.4939   -0.1263 C.ar    1  UNL1        0.0370
     20 N           6.1058   -0.1997   -0.0707 N.ar    1  UNL1       -0.2595
     21 C           6.5173    1.0526    0.2126 C.ar    1  UNL1        0.0382
     22 C           7.9727    1.3703    0.2723 C.3     1  UNL1       -0.0224
     23 C           5.5660    2.0233    0.4436 C.ar    1  UNL1       -0.0400
     24 C           4.2171    1.7430    0.3915 C.ar    1  UNL1       -0.0494
     25 C          -5.2630   -1.5890   -0.1445 C.2     1  UNL1        0.2528
     26 O          -5.9579   -2.5485   -0.4905 O.2     1  UNL1       -0.2696
     27 N          -5.8240   -0.3422    0.3413 N.am    1  UNL1       -0.3068
     28 H          -5.9102    1.3807    1.4617 H       1  UNL1        0.0511
     29 H          -6.7620    2.0650   -0.6072 H       1  UNL1        0.0248
     30 H          -5.3193    1.4796   -1.4914 H       1  UNL1        0.0248
     31 H          -5.1861    2.8990   -0.3715 H       1  UNL1        0.0248
     32 H          -3.7850    0.6880    2.0280 H       1  UNL1        0.0479
     33 H          -3.6793    2.1770    1.0983 H       1  UNL1        0.0479
     34 H          -2.3769    1.0328   -0.6555 H       1  UNL1        0.1462
     35 H           1.7671   -3.6984   -0.7918 H       1  UNL1        0.0639
     36 H          -0.4751   -4.7208   -0.9272 H       1  UNL1        0.0629
     37 H           1.5631    1.8690    0.4457 H       1  UNL1        0.0639
     38 H          -0.6529    1.0751    0.3267 H       1  UNL1        0.0625
     39 H           4.6043   -1.5415   -0.3648 H       1  UNL1        0.0836
     40 H           8.5024    0.9617   -0.6157 H       1  UNL1        0.0292
     41 H           8.1067    2.4563    0.3092 H       1  UNL1        0.0292
     42 H           8.4423    0.8684    1.1596 H       1  UNL1        0.0292
     43 H           5.8479    3.0294    0.6716 H       1  UNL1        0.0636
     44 H           3.4855    2.4979    0.5711 H       1  UNL1        0.0625
     45 H          -6.8614   -0.4682    0.5498 H       1  UNL1        0.1494
@<TRIPOS>BOND
     1     1     2    1
     2     1     3    1
     3     3     4    1
     4     4     5    1
     5     5     6   ar
     6     6     7   ar
     7     7     8   ar
     8     8     9   ar
     9     9    10   ar
    10    10    11   ar
    11    11    12   ar
    12    12    13   ar
    13    11    14   ar
    14    14    15   ar
    15    15    16   ar
    16    16    17   ar
    17    15    18    1
    18    18    19   ar
    19    19    20   ar
    20    20    21   ar
    21    21    22    1
    22    21    23   ar
    23    23    24   ar
    24     6    25    1
    25    25    26    2
    26    25    27   am
    27    27     1    1
    28     9     5   ar
    29    17    10   ar
    30    24    18   ar
    31    13     8   ar
    32     1    28    1
    33     2    29    1
    34     2    30    1
    35     2    31    1
    36     3    32    1
    37     3    33    1
    38     4    34    1
    39    12    35    1
    40    13    36    1
    41    16    37    1
    42    17    38    1
    43    19    39    1
    44    22    40    1
    45    22    41    1
    46    22    42    1
    47    23    43    1
    48    24    44    1
    49    27    45    1
