
     RDKit          3D

 61 62  0  0  0  0  0  0  0  0999 V2000
   -5.8515    2.7048    1.8149 C   0  0  0  0  0  0  0  0  0  0  0  0
   -5.5686    1.7608    0.7013 C   0  0  0  0  0  0  0  0  0  0  0  0
   -6.4420    1.1220    0.1003 O   0  0  0  0  0  0  0  0  0  0  0  0
   -4.1993    1.5734    0.2925 N   0  0  0  0  0  0  0  0  0  0  0  0
   -3.7968    0.6998   -0.7622 C   0  0  1  0  0  0  0  0  0  0  0  0
   -4.4148    1.0998   -2.0980 C   0  0  0  0  0  0  0  0  0  0  0  0
   -2.3446    0.6308   -0.8942 C   0  0  0  0  0  0  0  0  0  0  0  0
   -1.9506   -0.2266   -1.7997 O   0  0  0  0  0  0  0  0  0  0  0  0
   -1.3057    1.2969   -0.2474 N   0  0  0  0  0  0  0  0  0  0  0  0
   -1.1350    2.3064    0.7601 C   0  0  0  0  0  0  0  0  0  0  0  0
    0.3507    2.4021    0.4880 C   0  0  0  0  0  0  0  0  0  0  0  0
    0.1638    1.1843   -0.3658 C   0  0  1  0  0  0  0  0  0  0  0  0
    0.7099   -0.0075    0.3344 C   0  0  0  0  0  0  0  0  0  0  0  0
    0.0133   -0.8295    0.9514 O   0  0  0  0  0  0  0  0  0  0  0  0
    2.1165   -0.1953    0.2804 N   0  0  0  0  0  0  0  0  0  0  0  0
    2.8125   -1.2959    0.9039 C   0  0  2  0  0  0  0  0  0  0  0  0
    3.6910   -0.8258    1.9858 C   0  0  0  0  0  0  0  0  0  0  0  0
    4.3550   -1.6099    2.6204 O   0  0  0  0  0  0  0  0  0  0  0  0
    3.4863   -2.1955   -0.0746 C   0  0  0  0  0  0  0  0  0  0  0  0
    4.5113   -1.5693   -0.9567 C   0  0  0  0  0  0  0  0  0  0  0  0
    5.6567   -0.9547   -0.2088 C   0  0  0  0  0  0  0  0  0  0  0  0
    6.6280   -0.3839   -1.1551 N   0  0  0  0  0  0  0  0  0  0  0  0
    7.7870    0.2445   -0.6432 C   0  0  0  0  0  0  0  0  0  0  0  0
    7.7583    0.8632    0.4871 N   0  0  0  0  0  0  0  0  0  0  0  0
    9.0061    0.2091   -1.3599 N   0  0  0  0  0  0  0  0  0  0  0  0
   -4.3534   -0.6456   -0.4376 C   0  0  0  0  0  0  0  0  0  0  0  0
   -5.4323   -1.1623   -1.0980 C   0  0  0  0  0  0  0  0  0  0  0  0
   -5.9438   -2.4268   -0.7703 C   0  0  0  0  0  0  0  0  0  0  0  0
   -5.3398   -3.1493    0.2348 C   0  0  0  0  0  0  0  0  0  0  0  0
   -4.2634   -2.6350    0.8938 C   0  0  0  0  0  0  0  0  0  0  0  0
   -3.7748   -1.3978    0.5626 C   0  0  0  0  0  0  0  0  0  0  0  0
   -5.7769    3.7476    1.4778 H   0  0  0  0  0  0  0  0  0  0  0  0
   -6.8820    2.4529    2.1928 H   0  0  0  0  0  0  0  0  0  0  0  0
   -5.1604    2.4843    2.6600 H   0  0  0  0  0  0  0  0  0  0  0  0
   -3.5029    2.1156    0.8176 H   0  0  0  0  0  0  0  0  0  0  0  0
   -5.4748    1.3340   -1.9827 H   0  0  0  0  0  0  0  0  0  0  0  0
   -3.8350    1.9156   -2.5773 H   0  0  0  0  0  0  0  0  0  0  0  0
   -4.3178    0.2244   -2.7664 H   0  0  0  0  0  0  0  0  0  0  0  0
   -1.5747    3.3036    0.5228 H   0  0  0  0  0  0  0  0  0  0  0  0
   -1.3785    1.9372    1.7871 H   0  0  0  0  0  0  0  0  0  0  0  0
    0.9088    2.2412    1.4342 H   0  0  0  0  0  0  0  0  0  0  0  0
    0.6845    3.3054   -0.0658 H   0  0  0  0  0  0  0  0  0  0  0  0
    0.5358    1.2283   -1.3940 H   0  0  0  0  0  0  0  0  0  0  0  0
    2.7158    0.5014   -0.2432 H   0  0  0  0  0  0  0  0  0  0  0  0
    2.0091   -1.9320    1.4137 H   0  0  0  0  0  0  0  0  0  0  0  0
    3.7476    0.2210    2.2190 H   0  0  0  0  0  0  0  0  0  0  0  0
    2.7607   -2.7267   -0.7326 H   0  0  0  0  0  0  0  0  0  0  0  0
    4.0143   -3.0381    0.4658 H   0  0  0  0  0  0  0  0  0  0  0  0
    4.0708   -0.8555   -1.6913 H   0  0  0  0  0  0  0  0  0  0  0  0
    4.9204   -2.3986   -1.6047 H   0  0  0  0  0  0  0  0  0  0  0  0
    5.3219   -0.0741    0.4049 H   0  0  0  0  0  0  0  0  0  0  0  0
    6.1379   -1.6583    0.4892 H   0  0  0  0  0  0  0  0  0  0  0  0
    6.4766   -0.4352   -2.1780 H   0  0  0  0  0  0  0  0  0  0  0  0
    6.9346    0.9572    1.0972 H   0  0  0  0  0  0  0  0  0  0  0  0
    9.9292    0.3000   -0.8802 H   0  0  0  0  0  0  0  0  0  0  0  0
    8.9663    0.0887   -2.3893 H   0  0  0  0  0  0  0  0  0  0  0  0
   -5.9235   -0.6343   -1.8882 H   0  0  0  0  0  0  0  0  0  0  0  0
   -6.7896   -2.8380   -1.2836 H   0  0  0  0  0  0  0  0  0  0  0  0
   -5.7254   -4.1149    0.4899 H   0  0  0  0  0  0  0  0  0  0  0  0
   -3.8069   -3.2062    1.6690 H   0  0  0  0  0  0  0  0  0  0  0  0
   -2.9160   -1.0339    1.1172 H   0  0  0  0  0  0  0  0  0  0  0  0
  1  2  1  0
  2  3  2  0
  2  4  1  0
  5  4  1  1
  5  6  1  0
  5  7  1  0
  7  8  2  0
  7  9  1  0
  9 10  1  0
 10 11  1  0
 11 12  1  0
 12 13  1  0
 13 14  2  0
 13 15  1  0
 15 16  1  0
 16 17  1  0
 17 18  2  0
 16 19  1  0
 19 20  1  0
 20 21  1  0
 21 22  1  0
 22 23  1  0
 23 24  2  3
 23 25  1  0
  5 26  1  0
 26 27  2  0
 27 28  1  0
 28 29  2  0
 29 30  1  0
 30 31  2  0
 12  9  1  0
 31 26  1  0
  1 32  1  0
  1 33  1  0
  1 34  1  0
  4 35  1  0
  6 36  1  0
  6 37  1  0
  6 38  1  0
 10 39  1  0
 10 40  1  0
 11 41  1  0
 11 42  1  0
 12 43  1  6
 15 44  1  0
 16 45  1  1
 17 46  1  0
 19 47  1  0
 19 48  1  0
 20 49  1  0
 20 50  1  0
 21 51  1  0
 21 52  1  0
 22 53  1  0
 24 54  1  0
 25 55  1  0
 25 56  1  0
 27 57  1  0
 28 58  1  0
 29 59  1  0
 30 60  1  0
 31 61  1  0
M  END
$$$$
