@<TRIPOS>MOLECULE
*****
 61 62 0 0 0
SMALL
GASTEIGER

@<TRIPOS>ATOM
      1 C          -5.8515    2.7048    1.8149 C.3     0  UNK0        0.0122
      2 C          -5.5686    1.7608    0.7013 C.2     0  UNK0        0.2109
      3 O          -6.4420    1.1220    0.1003 O.2     0  UNK0       -0.2761
      4 N          -4.1993    1.5734    0.2925 N.am    0  UNK0       -0.2983
      5 C          -3.7968    0.6998   -0.7622 C.3     0  UNK0        0.1335
      6 C          -4.4148    1.0998   -2.0980 C.3     0  UNK0       -0.0309
      7 C          -2.3446    0.6308   -0.8942 C.2     0  UNK0        0.2440
      8 O          -1.9506   -0.2266   -1.7997 O.2     0  UNK0       -0.2729
      9 N          -1.3057    1.2969   -0.2474 N.am    0  UNK0       -0.2878
     10 C          -1.1350    2.3064    0.7601 C.3     0  UNK0        0.0177
     11 C           0.3507    2.4021    0.4880 C.3     0  UNK0       -0.0099
     12 C           0.1638    1.1843   -0.3658 C.3     0  UNK0        0.1037
     13 C           0.7099   -0.0075    0.3344 C.2     0  UNK0        0.2342
     14 O           0.0133   -0.8295    0.9514 O.2     0  UNK0       -0.2738
     15 N           2.1165   -0.1953    0.2804 N.am    1  ARG1       -0.3044
     16 CA          2.8125   -1.2959    0.9039 C.3     1  ARG1        0.0786
     17 C           3.6910   -0.8258    1.9858 C.2     1  ARG1        0.1404
     18 O           4.3550   -1.6099    2.6204 O.2     1  ARG1       -0.2991
     19 CB          3.4863   -2.1955   -0.0746 C.3     1  ARG1       -0.0250
     20 CG          4.5113   -1.5693   -0.9567 C.3     1  ARG1       -0.0202
     21 CD          5.6567   -0.9547   -0.2088 C.3     1  ARG1        0.0647
     22 NE          6.6280   -0.3839   -1.1551 N.pl3   1  ARG1       -0.2761
     23 CZ          7.7870    0.2445   -0.6432 C.cat   1  ARG1        0.3762
     24 NH1         7.7583    0.8632    0.4871 N.pl3   1  ARG1       -0.1298
     25 NH2         9.0061    0.2091   -1.3599 N.pl3   1  ARG1       -0.2893
     26 C          -4.3534   -0.6456   -0.4376 C.ar    0  UNK0       -0.0156
     27 C          -5.4323   -1.1623   -1.0980 C.ar    0  UNK0       -0.0561
     28 C          -5.9438   -2.4268   -0.7703 C.ar    0  UNK0       -0.0614
     29 C          -5.3398   -3.1493    0.2348 C.ar    0  UNK0       -0.0617
     30 C          -4.2634   -2.6350    0.8938 C.ar    0  UNK0       -0.0614
     31 C          -3.7748   -1.3978    0.5626 C.ar    0  UNK0       -0.0561
     32 H          -5.7769    3.7476    1.4778 H       0  UNK0        0.0322
     33 H          -6.8820    2.4529    2.1928 H       0  UNK0        0.0322
     34 H          -5.1604    2.4843    2.6600 H       0  UNK0        0.0322
     35 H          -3.5029    2.1156    0.8176 H       0  UNK0        0.1500
     36 H          -5.4748    1.3340   -1.9827 H       0  UNK0        0.0258
     37 H          -3.8350    1.9156   -2.5773 H       0  UNK0        0.0258
     38 H          -4.3178    0.2244   -2.7664 H       0  UNK0        0.0258
     39 H          -1.5747    3.3036    0.5228 H       0  UNK0        0.0465
     40 H          -1.3785    1.9372    1.7871 H       0  UNK0        0.0465
     41 H           0.9088    2.2412    1.4342 H       0  UNK0        0.0303
     42 H           0.6845    3.3054   -0.0658 H       0  UNK0        0.0303
     43 H           0.5358    1.2283   -1.3940 H       0  UNK0        0.0597
     44 H           2.7158    0.5014   -0.2432 H       1  ARG1        0.1494
     45 HA          2.0091   -1.9320    1.4137 H       1  ARG1        0.0574
     46 H           3.7476    0.2210    2.2190 H       1  ARG1        0.1046
     47 HB1         2.7607   -2.7267   -0.7326 H       1  ARG1        0.0288
     48 HB2         4.0143   -3.0381    0.4658 H       1  ARG1        0.0288
     49 HG1         4.0708   -0.8555   -1.6913 H       1  ARG1        0.0296
     50 HG2         4.9204   -2.3986   -1.6047 H       1  ARG1        0.0296
     51 HD1         5.3219   -0.0741    0.4049 H       1  ARG1        0.0655
     52 HD2         6.1379   -1.6583    0.4892 H       1  ARG1        0.0655
     53 HE          6.4766   -0.4352   -2.1780 H       1  ARG1        0.2579
     54 HH1         6.9346    0.9572    1.0972 H       1  ARG1        0.3062
     55 HH21        9.9292    0.3000   -0.8802 H       1  ARG1        0.2546
     56 HH22        8.9663    0.0887   -2.3893 H       1  ARG1        0.2546
     57 H          -5.9235   -0.6343   -1.8882 H       0  UNK0        0.0621
     58 H          -6.7896   -2.8380   -1.2836 H       0  UNK0        0.0618
     59 H          -5.7254   -4.1149    0.4899 H       0  UNK0        0.0618
     60 H          -3.8069   -3.2062    1.6690 H       0  UNK0        0.0618
     61 H          -2.9160   -1.0339    1.1172 H       0  UNK0        0.0621
@<TRIPOS>BOND
     1     1     2    1
     2     2     3    2
     3     2     4   am
     4     5     4    1
     5     5     6    1
     6     5     7    1
     7     7     8    2
     8     7     9   am
     9     9    10    1
    10    10    11    1
    11    11    12    1
    12    12    13    1
    13    13    14    2
    14    13    15   am
    15    15    16    1
    16    16    17    1
    17    17    18    2
    18    16    19    1
    19    19    20    1
    20    20    21    1
    21    21    22    1
    22    22    23    1
    23    23    24    2
    24    23    25    1
    25     5    26    1
    26    26    27   ar
    27    27    28   ar
    28    28    29   ar
    29    29    30   ar
    30    30    31   ar
    31    12     9    1
    32    31    26   ar
    33     1    32    1
    34     1    33    1
    35     1    34    1
    36     4    35    1
    37     6    36    1
    38     6    37    1
    39     6    38    1
    40    10    39    1
    41    10    40    1
    42    11    41    1
    43    11    42    1
    44    12    43    1
    45    15    44    1
    46    16    45    1
    47    17    46    1
    48    19    47    1
    49    19    48    1
    50    20    49    1
    51    20    50    1
    52    21    51    1
    53    21    52    1
    54    22    53    1
    55    24    54    1
    56    25    55    1
    57    25    56    1
    58    27    57    1
    59    28    58    1
    60    29    59    1
    61    30    60    1
    62    31    61    1
