@<TRIPOS>MOLECULE
*****
 44 44 0 0 0
SMALL
GASTEIGER

@<TRIPOS>ATOM
      1 C           2.3297   -1.3692   -1.3691 C.3     1  UNL1       -0.0463
      2 C           1.9521   -0.3603   -0.2893 C.3     1  UNL1        0.0243
      3 C           2.8675    0.8278   -0.4278 C.3     1  UNL1       -0.0094
      4 C           4.2554    0.3847   -0.2540 C.ar    1  UNL1       -0.0456
      5 C           4.6782    0.4360    1.0757 C.ar    1  UNL1       -0.0585
      6 C           5.9661    0.0518    1.4199 C.ar    1  UNL1       -0.0615
      7 C           6.8553   -0.3876    0.4622 C.ar    1  UNL1       -0.0617
      8 C           6.4356   -0.4388   -0.8603 C.ar    1  UNL1       -0.0615
      9 C           5.1551   -0.0568   -1.2016 C.ar    1  UNL1       -0.0585
     10 N           0.5604   -0.0229   -0.5148 N.am    1  UNL1       -0.3111
     11 C          -0.4844   -0.2513    0.4244 C.2     1  UNL1        0.2301
     12 O          -0.1228   -0.7863    1.5126 O.2     1  UNL1       -0.2741
     13 C          -1.9042    0.1054    0.1654 C.3     1  UNL1        0.0823
     14 N          -1.9635    0.6915   -1.1639 N.3     1  UNL1       -0.3199
     15 C          -2.7597   -1.1200    0.2856 C.3     1  UNL1       -0.0292
     16 C          -4.2179   -0.8461    0.0373 C.3     1  UNL1       -0.0501
     17 C          -4.7454    0.1483    1.0152 C.3     1  UNL1       -0.0406
     18 C          -6.2026    0.4684    0.8224 C.3     1  UNL1       -0.0069
     19 N          -7.0929   -0.6338    0.9407 N.3     1  UNL1       -0.3300
     20 H           2.4966   -0.8580   -2.3386 H       1  UNL1        0.0248
     21 H           3.2890   -1.8628   -1.1182 H       1  UNL1        0.0248
     22 H           1.5538   -2.1487   -1.5158 H       1  UNL1        0.0248
     23 H           2.0181   -0.8078    0.7166 H       1  UNL1        0.0499
     24 H           2.5956    1.6901    0.1801 H       1  UNL1        0.0331
     25 H           2.7693    1.1609   -1.5006 H       1  UNL1        0.0331
     26 H           4.0946    0.7557    1.9191 H       1  UNL1        0.0620
     27 H           6.3812    0.0570    2.4154 H       1  UNL1        0.0618
     28 H           7.8762   -0.7103    0.6106 H       1  UNL1        0.0618
     29 H           7.0856   -0.7748   -1.6617 H       1  UNL1        0.0618
     30 H           4.7581   -0.0693   -2.2073 H       1  UNL1        0.0620
     31 H           0.3421    0.4143   -1.4345 H       1  UNL1        0.1490
     32 H          -2.1622    0.8457    0.9496 H       1  UNL1        0.0554
     33 H          -1.6096    0.0326   -1.8842 H       1  UNL1        0.1189
     34 H          -2.8961    1.0197   -1.4443 H       1  UNL1        0.1189
     35 H          -2.3787   -1.9268   -0.3598 H       1  UNL1        0.0285
     36 H          -2.6725   -1.4569    1.3460 H       1  UNL1        0.0285
     37 H          -4.7489   -1.8190    0.2451 H       1  UNL1        0.0266
     38 H          -4.4598   -0.6205   -1.0111 H       1  UNL1        0.0266
     39 H          -4.2059    1.1199    0.8288 H       1  UNL1        0.0277
     40 H          -4.5005   -0.1627    2.0297 H       1  UNL1        0.0277
     41 H          -6.3436    0.9981   -0.1377 H       1  UNL1        0.0422
     42 H          -6.4744    1.1937    1.6370 H       1  UNL1        0.0422
     43 H          -6.8120   -1.3749    1.5861 H       1  UNL1        0.1182
     44 H          -7.5579   -0.9274    0.0689 H       1  UNL1        0.1182
@<TRIPOS>BOND
     1     1     2    1
     2     2     3    1
     3     3     4    1
     4     4     5   ar
     5     5     6   ar
     6     6     7   ar
     7     7     8   ar
     8     8     9   ar
     9     2    10    1
    10    10    11   am
    11    11    12    2
    12    11    13    1
    13    13    14    1
    14    13    15    1
    15    15    16    1
    16    16    17    1
    17    17    18    1
    18    18    19    1
    19     9     4   ar
    20     1    20    1
    21     1    21    1
    22     1    22    1
    23     2    23    1
    24     3    24    1
    25     3    25    1
    26     5    26    1
    27     6    27    1
    28     7    28    1
    29     8    29    1
    30     9    30    1
    31    10    31    1
    32    13    32    1
    33    14    33    1
    34    14    34    1
    35    15    35    1
    36    15    36    1
    37    16    37    1
    38    16    38    1
    39    17    39    1
    40    17    40    1
    41    18    41    1
    42    18    42    1
    43    19    43    1
    44    19    44    1
