@<TRIPOS>MOLECULE
*****
 53 57 0 0 0
SMALL
GASTEIGER

@<TRIPOS>ATOM
      1 O          -1.3435    0.9314   -1.2694 O.2     1  UNL1       -0.2699
      2 C          -2.0191    0.0573   -0.6677 C.2     1  UNL1        0.2491
      3 C          -3.4318   -0.0728   -0.8987 C.ar    1  UNL1        0.0640
      4 C          -3.9287   -0.9117   -1.8990 C.ar    1  UNL1       -0.0475
      5 C          -5.2773   -1.0568   -2.1447 C.ar    1  UNL1       -0.0609
      6 C          -6.1499   -0.3347   -1.3586 C.ar    1  UNL1       -0.0597
      7 C          -5.6708    0.5112   -0.3510 C.ar    1  UNL1       -0.0338
      8 C          -4.3168    0.6431   -0.1203 C.ar    1  UNL1        0.0982
      9 N          -3.8064    1.5015    0.9050 N.ar    1  UNL1       -0.1496
     10 N          -3.5885    2.8030    0.7973 N.ar    1  UNL1       -0.1556
     11 C          -3.1069    3.3064    1.9444 C.ar    1  UNL1        0.0697
     12 C          -3.0188    2.2460    2.8266 C.ar    1  UNL1        0.0697
     13 N          -3.4570    1.1761    2.1401 N.ar    1  UNL1       -0.1556
     14 N          -1.3498   -0.7958    0.2441 N.am    1  UNL1       -0.2897
     15 C          -2.0701   -1.8239    0.9708 C.3     1  UNL1        0.0388
     16 C          -1.2838   -3.1118    0.8170 C.3     1  UNL1        0.0635
     17 O           0.0170   -2.9886    1.2342 O.3     1  UNL1       -0.3764
     18 C           0.3661   -1.6993    1.6001 C.3     1  UNL1        0.0666
     19 C           0.0734   -0.6969    0.5035 C.3     1  UNL1        0.0537
     20 C           0.8997   -1.0067   -0.7019 C.3     1  UNL1       -0.0068
     21 C           2.3570   -0.8939   -0.3993 C.ar    1  UNL1       -0.0435
     22 C           3.0566   -1.9988    0.0369 C.ar    1  UNL1       -0.0584
     23 C           4.3998   -1.8933    0.3173 C.ar    1  UNL1       -0.0595
     24 C           5.0531   -0.6900    0.1655 C.ar    1  UNL1       -0.0363
     25 C           4.3754    0.4459   -0.2735 C.ar    1  UNL1        0.0656
     26 N           5.0384    1.6927   -0.4341 N.ar    1  UNL1       -0.2399
     27 C           6.0268    1.9033   -1.3172 C.ar    1  UNL1        0.0312
     28 C           6.4590    3.2239   -1.2238 C.ar    1  UNL1       -0.0238
     29 C           5.6710    3.7870   -0.2342 C.ar    1  UNL1        0.0498
     30 N           4.8461    2.8177    0.1930 N.ar    1  UNL1       -0.1748
     31 C           3.0340    0.2969   -0.5426 C.ar    1  UNL1       -0.0330
     32 H          -3.2470   -1.4844   -2.5231 H       1  UNL1        0.0626
     33 H          -5.6665   -1.7056   -2.9189 H       1  UNL1        0.0618
     34 H          -7.2311   -0.4245   -1.5249 H       1  UNL1        0.0618
     35 H          -6.3370    1.0876    0.2784 H       1  UNL1        0.0639
     36 H          -2.8322    4.3387    2.1636 H       1  UNL1        0.0864
     37 H          -2.6651    2.2862    3.8611 H       1  UNL1        0.0864
     38 H          -2.1295   -1.5237    2.0544 H       1  UNL1        0.0487
     39 H          -3.0911   -1.9727    0.5907 H       1  UNL1        0.0487
     40 H          -1.2678   -3.3232   -0.2864 H       1  UNL1        0.0575
     41 H          -1.7959   -3.9554    1.3615 H       1  UNL1        0.0575
     42 H           1.4376   -1.6981    1.8629 H       1  UNL1        0.0578
     43 H          -0.1566   -1.3907    2.5537 H       1  UNL1        0.0578
     44 H           0.2921    0.3111    0.9306 H       1  UNL1        0.0526
     45 H           0.7114   -2.0588   -0.9891 H       1  UNL1        0.0332
     46 H           0.6785   -0.2966   -1.5085 H       1  UNL1        0.0332
     47 H           2.5440   -2.9697    0.1611 H       1  UNL1        0.0620
     48 H           4.9036   -2.7908    0.6569 H       1  UNL1        0.0618
     49 H           6.1201   -0.6111    0.3894 H       1  UNL1        0.0639
     50 H           6.4140    1.1515   -1.9890 H       1  UNL1        0.0831
     51 H           7.2425    3.6820   -1.8102 H       1  UNL1        0.0648
     52 H           5.7219    4.7934    0.1091 H       1  UNL1        0.0848
     53 H           2.4997    1.1864   -0.8871 H       1  UNL1        0.0641
@<TRIPOS>BOND
     1     1     2    2
     2     2     3    1
     3     3     4   ar
     4     4     5   ar
     5     5     6   ar
     6     6     7   ar
     7     7     8   ar
     8     8     9    1
     9     9    10   ar
    10    10    11   ar
    11    11    12   ar
    12    12    13   ar
    13     2    14   am
    14    14    15    1
    15    15    16    1
    16    16    17    1
    17    17    18    1
    18    18    19    1
    19    19    20    1
    20    20    21    1
    21    21    22   ar
    22    22    23   ar
    23    23    24   ar
    24    24    25   ar
    25    25    26    1
    26    26    27   ar
    27    27    28   ar
    28    28    29   ar
    29    29    30   ar
    30    25    31   ar
    31     8     3   ar
    32    13     9   ar
    33    19    14    1
    34    31    21   ar
    35    30    26   ar
    36     4    32    1
    37     5    33    1
    38     6    34    1
    39     7    35    1
    40    11    36    1
    41    12    37    1
    42    15    38    1
    43    15    39    1
    44    16    40    1
    45    16    41    1
    46    18    42    1
    47    18    43    1
    48    19    44    1
    49    20    45    1
    50    20    46    1
    51    22    47    1
    52    23    48    1
    53    24    49    1
    54    27    50    1
    55    28    51    1
    56    29    52    1
    57    31    53    1
