
     RDKit          3D

 53 57  0  0  0  0  0  0  0  0999 V2000
   -1.3435    0.9314   -1.2694 O   0  0  0  0  0  0  0  0  0  0  0  0
   -2.0191    0.0573   -0.6677 C   0  0  0  0  0  0  0  0  0  0  0  0
   -3.4318   -0.0728   -0.8987 C   0  0  0  0  0  0  0  0  0  0  0  0
   -3.9287   -0.9117   -1.8990 C   0  0  0  0  0  0  0  0  0  0  0  0
   -5.2773   -1.0568   -2.1447 C   0  0  0  0  0  0  0  0  0  0  0  0
   -6.1499   -0.3347   -1.3586 C   0  0  0  0  0  0  0  0  0  0  0  0
   -5.6708    0.5112   -0.3510 C   0  0  0  0  0  0  0  0  0  0  0  0
   -4.3168    0.6431   -0.1203 C   0  0  0  0  0  0  0  0  0  0  0  0
   -3.8064    1.5015    0.9050 N   0  0  0  0  0  0  0  0  0  0  0  0
   -3.5885    2.8030    0.7973 N   0  0  0  0  0  0  0  0  0  0  0  0
   -3.1069    3.3064    1.9444 C   0  0  0  0  0  0  0  0  0  0  0  0
   -3.0188    2.2460    2.8266 C   0  0  0  0  0  0  0  0  0  0  0  0
   -3.4570    1.1761    2.1401 N   0  0  0  0  0  0  0  0  0  0  0  0
   -1.3498   -0.7958    0.2441 N   0  0  0  0  0  0  0  0  0  0  0  0
   -2.0701   -1.8239    0.9708 C   0  0  0  0  0  0  0  0  0  0  0  0
   -1.2838   -3.1118    0.8170 C   0  0  0  0  0  0  0  0  0  0  0  0
    0.0170   -2.9886    1.2342 O   0  0  0  0  0  0  0  0  0  0  0  0
    0.3661   -1.6993    1.6001 C   0  0  0  0  0  0  0  0  0  0  0  0
    0.0734   -0.6969    0.5035 C   0  0  1  0  0  0  0  0  0  0  0  0
    0.8997   -1.0067   -0.7019 C   0  0  0  0  0  0  0  0  0  0  0  0
    2.3570   -0.8939   -0.3993 C   0  0  0  0  0  0  0  0  0  0  0  0
    3.0566   -1.9988    0.0369 C   0  0  0  0  0  0  0  0  0  0  0  0
    4.3998   -1.8933    0.3173 C   0  0  0  0  0  0  0  0  0  0  0  0
    5.0531   -0.6900    0.1655 C   0  0  0  0  0  0  0  0  0  0  0  0
    4.3754    0.4459   -0.2735 C   0  0  0  0  0  0  0  0  0  0  0  0
    5.0384    1.6927   -0.4341 N   0  0  0  0  0  0  0  0  0  0  0  0
    6.0268    1.9033   -1.3172 C   0  0  0  0  0  0  0  0  0  0  0  0
    6.4590    3.2239   -1.2238 C   0  0  0  0  0  0  0  0  0  0  0  0
    5.6710    3.7870   -0.2342 C   0  0  0  0  0  0  0  0  0  0  0  0
    4.8461    2.8177    0.1930 N   0  0  0  0  0  0  0  0  0  0  0  0
    3.0340    0.2969   -0.5426 C   0  0  0  0  0  0  0  0  0  0  0  0
   -3.2470   -1.4844   -2.5231 H   0  0  0  0  0  0  0  0  0  0  0  0
   -5.6665   -1.7056   -2.9189 H   0  0  0  0  0  0  0  0  0  0  0  0
   -7.2311   -0.4245   -1.5249 H   0  0  0  0  0  0  0  0  0  0  0  0
   -6.3370    1.0876    0.2784 H   0  0  0  0  0  0  0  0  0  0  0  0
   -2.8322    4.3387    2.1636 H   0  0  0  0  0  0  0  0  0  0  0  0
   -2.6651    2.2862    3.8611 H   0  0  0  0  0  0  0  0  0  0  0  0
   -2.1295   -1.5237    2.0544 H   0  0  0  0  0  0  0  0  0  0  0  0
   -3.0911   -1.9727    0.5907 H   0  0  0  0  0  0  0  0  0  0  0  0
   -1.2678   -3.3232   -0.2864 H   0  0  0  0  0  0  0  0  0  0  0  0
   -1.7959   -3.9554    1.3615 H   0  0  0  0  0  0  0  0  0  0  0  0
    1.4376   -1.6981    1.8629 H   0  0  0  0  0  0  0  0  0  0  0  0
   -0.1566   -1.3907    2.5537 H   0  0  0  0  0  0  0  0  0  0  0  0
    0.2921    0.3111    0.9306 H   0  0  0  0  0  0  0  0  0  0  0  0
    0.7114   -2.0588   -0.9891 H   0  0  0  0  0  0  0  0  0  0  0  0
    0.6785   -0.2966   -1.5085 H   0  0  0  0  0  0  0  0  0  0  0  0
    2.5440   -2.9697    0.1611 H   0  0  0  0  0  0  0  0  0  0  0  0
    4.9036   -2.7908    0.6569 H   0  0  0  0  0  0  0  0  0  0  0  0
    6.1201   -0.6111    0.3894 H   0  0  0  0  0  0  0  0  0  0  0  0
    6.4140    1.1515   -1.9890 H   0  0  0  0  0  0  0  0  0  0  0  0
    7.2425    3.6820   -1.8102 H   0  0  0  0  0  0  0  0  0  0  0  0
    5.7219    4.7934    0.1091 H   0  0  0  0  0  0  0  0  0  0  0  0
    2.4997    1.1864   -0.8871 H   0  0  0  0  0  0  0  0  0  0  0  0
  1  2  2  0
  2  3  1  0
  3  4  2  0
  4  5  1  0
  5  6  2  0
  6  7  1  0
  7  8  2  0
  8  9  1  0
  9 10  1  0
 10 11  2  0
 11 12  1  0
 12 13  2  0
  2 14  1  0
 14 15  1  0
 15 16  1  0
 16 17  1  0
 17 18  1  0
 18 19  1  0
 19 20  1  0
 20 21  1  0
 21 22  2  0
 22 23  1  0
 23 24  2  0
 24 25  1  0
 25 26  1  0
 26 27  1  0
 27 28  2  0
 28 29  1  0
 29 30  2  0
 25 31  2  0
  8  3  1  0
 13  9  1  0
 19 14  1  0
 31 21  1  0
 30 26  1  0
  4 32  1  0
  5 33  1  0
  6 34  1  0
  7 35  1  0
 11 36  1  0
 12 37  1  0
 15 38  1  0
 15 39  1  0
 16 40  1  0
 16 41  1  0
 18 42  1  0
 18 43  1  0
 19 44  1  1
 20 45  1  0
 20 46  1  0
 22 47  1  0
 23 48  1  0
 24 49  1  0
 27 50  1  0
 28 51  1  0
 29 52  1  0
 31 53  1  0
M  END
$$$$
