
     RDKit          3D

 76 79  0  0  0  0  0  0  0  0999 V2000
   -0.7843   -3.3735   -1.8555 C   0  0  0  0  0  0  0  0  0  0  0  0
   -0.1791   -1.9983   -1.9138 C   0  0  0  0  0  0  0  0  0  0  0  0
   -0.4749   -1.4021   -3.2670 C   0  0  0  0  0  0  0  0  0  0  0  0
   -0.6091   -1.1380   -0.7796 C   0  0  0  0  0  0  0  0  0  0  0  0
   -1.8102   -0.5276   -0.5050 C   0  0  0  0  0  0  0  0  0  0  0  0
   -3.0270   -0.6614   -1.2799 C   0  0  0  0  0  0  0  0  0  0  0  0
   -3.1100   -1.5941   -2.1157 O   0  0  0  0  0  0  0  0  0  0  0  0
   -4.1717    0.1669   -1.2032 N   0  0  0  0  0  0  0  0  0  0  0  0
   -5.4026    0.1443   -1.8850 C   0  0  0  0  0  0  0  0  0  0  0  0
   -6.3454    1.1096   -1.6199 C   0  0  0  0  0  0  0  0  0  0  0  0
   -7.5677    1.1652   -2.2330 C   0  0  0  0  0  0  0  0  0  0  0  0
   -7.9145    0.2224   -3.1734 C   0  0  0  0  0  0  0  0  0  0  0  0
   -7.0187   -0.7757   -3.4901 C   0  0  0  0  0  0  0  0  0  0  0  0
   -5.8092   -0.7657   -2.8317 C   0  0  0  0  0  0  0  0  0  0  0  0
   -1.6793    0.1978    0.6584 C   0  0  0  0  0  0  0  0  0  0  0  0
   -0.3659    0.0349    1.1186 C   0  0  0  0  0  0  0  0  0  0  0  0
    0.2289   -0.7748    0.2193 N   0  0  0  0  0  0  0  0  0  0  0  0
    1.6376   -1.1626    0.3921 C   0  0  0  0  0  0  0  0  0  0  0  0
    2.5916   -0.2349   -0.2786 C   0  0  0  0  0  0  0  0  0  0  0  0
    4.0061   -0.7362   -0.0134 C   0  0  1  0  0  0  0  0  0  0  0  0
    4.1670   -2.0057   -0.5131 O   0  0  0  0  0  0  0  0  0  0  0  0
    5.0565    0.2352   -0.4882 C   0  0  0  0  0  0  0  0  0  0  0  0
    6.4570   -0.2856   -0.2047 C   0  0  1  0  0  0  0  0  0  0  0  0
    6.6954   -1.4916   -0.8376 O   0  0  0  0  0  0  0  0  0  0  0  0
    7.4282    0.7860   -0.6377 C   0  0  0  0  0  0  0  0  0  0  0  0
    8.8220    0.3725   -0.3982 C   0  0  0  0  0  0  0  0  0  0  0  0
   10.0121    1.0191   -0.6473 O   0  0  0  0  0  0  0  0  0  0  0  0
    8.7134   -0.7842    0.1222 O   0  0  0  0  0  0  0  0  0  0  0  0
    0.2227    0.6329    2.3371 C   0  0  0  0  0  0  0  0  0  0  0  0
    0.9812    1.7934    2.3365 C   0  0  0  0  0  0  0  0  0  0  0  0
    1.4692    2.2568    3.5404 C   0  0  0  0  0  0  0  0  0  0  0  0
    1.1996    1.5706    4.7037 C   0  0  0  0  0  0  0  0  0  0  0  0
    1.7421    2.1448    5.7972 F   0  0  0  0  0  0  0  0  0  0  0  0
    0.4437    0.4132    4.7062 C   0  0  0  0  0  0  0  0  0  0  0  0
   -0.0580   -0.0687    3.4915 C   0  0  0  0  0  0  0  0  0  0  0  0
   -2.5896    1.0254    1.4392 C   0  0  0  0  0  0  0  0  0  0  0  0
   -2.6358    2.4087    1.5344 C   0  0  0  0  0  0  0  0  0  0  0  0
   -3.5725    2.9939    2.3584 C   0  0  0  0  0  0  0  0  0  0  0  0
   -4.4610    2.2685    3.0881 C   0  0  0  0  0  0  0  0  0  0  0  0
   -4.4558    0.8715    3.0274 C   0  0  0  0  0  0  0  0  0  0  0  0
   -3.5157    0.3050    2.2014 C   0  0  0  0  0  0  0  0  0  0  0  0
   -1.4656   -3.4914   -0.9753 H   0  0  0  0  0  0  0  0  0  0  0  0
    0.0015   -4.1359   -1.6977 H   0  0  0  0  0  0  0  0  0  0  0  0
   -1.3153   -3.5952   -2.8070 H   0  0  0  0  0  0  0  0  0  0  0  0
    0.9427   -2.1786   -1.8254 H   0  0  0  0  0  0  0  0  0  0  0  0
   -1.1217   -2.0595   -3.8824 H   0  0  0  0  0  0  0  0  0  0  0  0
    0.4942   -1.3526   -3.8385 H   0  0  0  0  0  0  0  0  0  0  0  0
   -0.9586   -0.4082   -3.2334 H   0  0  0  0  0  0  0  0  0  0  0  0
   -4.0407    0.9341   -0.5096 H   0  0  0  0  0  0  0  0  0  0  0  0
   -6.1430    1.8941   -0.8852 H   0  0  0  0  0  0  0  0  0  0  0  0
   -8.2715    1.9475   -1.9867 H   0  0  0  0  0  0  0  0  0  0  0  0
   -8.8745    0.3048   -3.6239 H   0  0  0  0  0  0  0  0  0  0  0  0
   -7.2658   -1.5259   -4.2239 H   0  0  0  0  0  0  0  0  0  0  0  0
   -5.1467   -1.5657   -3.1133 H   0  0  0  0  0  0  0  0  0  0  0  0
    1.9031   -1.1950    1.4672 H   0  0  0  0  0  0  0  0  0  0  0  0
    1.8230   -2.2016    0.0220 H   0  0  0  0  0  0  0  0  0  0  0  0
    2.5002   -0.2488   -1.3957 H   0  0  0  0  0  0  0  0  0  0  0  0
    2.5336    0.7830    0.1127 H   0  0  0  0  0  0  0  0  0  0  0  0
    4.0834   -0.8113    1.1038 H   0  0  0  0  0  0  0  0  0  0  0  0
    3.9059   -2.1135   -1.4589 H   0  0  0  0  0  0  0  0  0  0  0  0
    4.9899    0.4523   -1.5596 H   0  0  0  0  0  0  0  0  0  0  0  0
    4.9543    1.1755    0.0635 H   0  0  0  0  0  0  0  0  0  0  0  0
    6.6243   -0.4495    0.8795 H   0  0  0  0  0  0  0  0  0  0  0  0
    6.5608   -1.3206   -1.8157 H   0  0  0  0  0  0  0  0  0  0  0  0
    7.2458    1.7438   -0.1252 H   0  0  0  0  0  0  0  0  0  0  0  0
    7.2835    0.9367   -1.7349 H   0  0  0  0  0  0  0  0  0  0  0  0
   10.8291    0.4053   -0.7762 H   0  0  0  0  0  0  0  0  0  0  0  0
    1.1432    2.2712    1.3686 H   0  0  0  0  0  0  0  0  0  0  0  0
    2.0563    3.1727    3.4709 H   0  0  0  0  0  0  0  0  0  0  0  0
    0.3336    0.0109    5.7005 H   0  0  0  0  0  0  0  0  0  0  0  0
   -0.6261   -0.9614    3.5952 H   0  0  0  0  0  0  0  0  0  0  0  0
   -1.8826    2.8760    0.9095 H   0  0  0  0  0  0  0  0  0  0  0  0
   -3.5409    4.0631    2.3745 H   0  0  0  0  0  0  0  0  0  0  0  0
   -5.1706    2.7873    3.7151 H   0  0  0  0  0  0  0  0  0  0  0  0
   -5.1534    0.2916    3.6002 H   0  0  0  0  0  0  0  0  0  0  0  0
   -3.5478   -0.7931    2.1846 H   0  0  0  0  0  0  0  0  0  0  0  0
  1  2  1  0
  2  3  1  0
  2  4  1  0
  4  5  2  0
  5  6  1  0
  6  7  2  0
  6  8  1  0
  8  9  1  0
  9 10  2  0
 10 11  1  0
 11 12  2  0
 12 13  1  0
 13 14  2  0
  5 15  1  0
 15 16  2  0
 16 17  1  0
 17 18  1  0
 18 19  1  0
 19 20  1  0
 20 21  1  0
 20 22  1  0
 22 23  1  0
 23 24  1  0
 23 25  1  0
 25 26  1  0
 26 27  1  0
 26 28  2  0
 16 29  1  0
 29 30  2  0
 30 31  1  0
 31 32  2  0
 32 33  1  0
 32 34  1  0
 34 35  2  0
 15 36  1  0
 36 37  2  0
 37 38  1  0
 38 39  2  0
 39 40  1  0
 40 41  2  0
 17  4  1  0
 35 29  1  0
 41 36  1  0
 14  9  1  0
  1 42  1  0
  1 43  1  0
  1 44  1  0
  2 45  1  0
  3 46  1  0
  3 47  1  0
  3 48  1  0
  8 49  1  0
 10 50  1  0
 11 51  1  0
 12 52  1  0
 13 53  1  0
 14 54  1  0
 18 55  1  0
 18 56  1  0
 19 57  1  0
 19 58  1  0
 20 59  1  1
 21 60  1  0
 22 61  1  0
 22 62  1  0
 23 63  1  1
 24 64  1  0
 25 65  1  0
 25 66  1  0
 27 67  1  0
 30 68  1  0
 31 69  1  0
 34 70  1  0
 35 71  1  0
 37 72  1  0
 38 73  1  0
 39 74  1  0
 40 75  1  0
 41 76  1  0
M  END
$$$$
