@<TRIPOS>MOLECULE
*****
 85 91 0 0 0
SMALL
GASTEIGER

@<TRIPOS>ATOM
      1 C          -4.1329    3.8081   -0.2020 C.3     1  UNL1        0.0789
      2 O          -4.6931    2.5352   -0.4575 O.3     1  UNL1       -0.4932
      3 C          -3.9487    1.3739   -0.5136 C.ar    1  UNL1        0.1418
      4 C          -2.5829    1.4158   -0.3153 C.ar    1  UNL1       -0.0089
      5 C          -1.8201    0.2730   -0.3655 C.ar    1  UNL1        0.0064
      6 C          -0.3802    0.2339   -0.1405 C.ar    1  UNL1        0.1054
      7 N           0.5401   -0.3379   -0.9623 N.ar    1  UNL1       -0.1683
      8 N           1.7550   -0.2189   -0.4635 N.ar    1  UNL1       -0.2426
      9 C           3.0052   -0.6976   -1.0401 C.3     1  UNL1        0.0550
     10 C           3.9354    0.4623   -1.1497 C.3     1  UNL1       -0.0290
     11 C           5.3321   -0.0101   -1.4928 C.3     1  UNL1       -0.0354
     12 C           5.7728   -0.9323   -0.3697 C.3     1  UNL1        0.0107
     13 N           7.1829   -1.1364   -0.4423 N.3     1  UNL1       -0.2964
     14 C           7.8465    0.1394   -0.3075 C.3     1  UNL1        0.0150
     15 C           9.0004    0.0903    0.6720 C.3     1  UNL1        0.0275
     16 N           9.8283   -1.0306    0.2896 N.am    1  UNL1       -0.2993
     17 C          11.2232   -0.9032    0.0981 C.2     1  UNL1        0.2125
     18 C          11.9451    0.3843    0.2736 C.3     1  UNL1        0.0124
     19 O          11.8992   -1.9244   -0.2385 O.2     1  UNL1       -0.2759
     20 C           9.1889   -2.3111    0.1027 C.3     1  UNL1        0.0275
     21 C           7.6940   -2.1634    0.4096 C.3     1  UNL1        0.0150
     22 C           4.9473   -2.1721   -0.4498 C.3     1  UNL1       -0.0354
     23 C           3.5107   -1.8013   -0.1615 C.3     1  UNL1       -0.0290
     24 C           1.6356    0.4423    0.7083 C.ar    1  UNL1        0.1641
     25 N           2.5389    0.8353    1.6464 N.ar    1  UNL1       -0.2161
     26 C           2.2038    1.4864    2.7665 C.ar    1  UNL1        0.1204
     27 N           0.9103    1.7740    2.9908 N.ar    1  UNL1       -0.2204
     28 C          -0.0321    1.4034    2.0844 C.ar    1  UNL1        0.1308
     29 N          -1.3705    1.7056    2.3719 N.pl3   1  UNL1       -0.3425
     30 C           0.3084    0.7392    0.9385 C.ar    1  UNL1        0.0859
     31 C          -2.5007   -0.9211   -0.6277 C.ar    1  UNL1       -0.0505
     32 C          -3.8646   -0.9599   -0.8257 C.ar    1  UNL1       -0.0363
     33 C          -4.6105    0.1975   -0.7701 C.ar    1  UNL1        0.0759
     34 N          -6.0463    0.1534   -0.9766 N.am    1  UNL1       -0.2773
     35 C          -6.9292   -0.0334    0.1038 C.2     1  UNL1        0.2648
     36 O          -6.3637   -0.1564    1.2502 O.2     1  UNL1       -0.2682
     37 C          -8.3713   -0.0993    0.0560 C.ar    1  UNL1        0.1055
     38 C          -9.1377   -0.2836    1.1998 C.ar    1  UNL1       -0.0239
     39 C         -10.4858   -0.3123    0.8962 C.ar    1  UNL1        0.0006
     40 C         -11.6289   -0.4684    1.6721 C.ar    1  UNL1       -0.0526
     41 C         -12.8523   -0.4493    1.0425 C.ar    1  UNL1       -0.0611
     42 C         -12.9357   -0.2797   -0.3199 C.ar    1  UNL1       -0.0598
     43 C         -11.7787   -0.1283   -1.0532 C.ar    1  UNL1       -0.0376
     44 C         -10.5318   -0.1409   -0.4655 C.ar    1  UNL1        0.0494
     45 N          -9.2541   -0.0164   -0.9394 N.ar    1  UNL1       -0.3393
     46 C          -8.9661    0.1743   -2.3229 C.3     1  UNL1        0.0126
     47 H          -3.4497    3.6784    0.6863 H       1  UNL1        0.0660
     48 H          -3.5242    4.1851   -1.0228 H       1  UNL1        0.0660
     49 H          -4.9044    4.5262    0.1412 H       1  UNL1        0.0660
     50 H          -2.1167    2.3742   -0.1356 H       1  UNL1        0.0661
     51 H           2.7761   -1.0684   -2.0603 H       1  UNL1        0.0545
     52 H           3.5323    1.1409   -1.9433 H       1  UNL1        0.0286
     53 H           3.9797    1.0678   -0.2293 H       1  UNL1        0.0286
     54 H           6.0216    0.8223   -1.6662 H       1  UNL1        0.0281
     55 H           5.2534   -0.5845   -2.4430 H       1  UNL1        0.0281
     56 H           5.5153   -0.4369    0.6122 H       1  UNL1        0.0462
     57 H           8.1820    0.4899   -1.3152 H       1  UNL1        0.0442
     58 H           7.1261    0.8979    0.0985 H       1  UNL1        0.0442
     59 H           8.5386   -0.1459    1.6707 H       1  UNL1        0.0477
     60 H           9.5239    1.0445    0.6686 H       1  UNL1        0.0477
     61 H          11.7555    1.0824   -0.5558 H       1  UNL1        0.0323
     62 H          11.6891    0.8172    1.2663 H       1  UNL1        0.0323
     63 H          13.0351    0.1888    0.3029 H       1  UNL1        0.0323
     64 H           9.2787   -2.7033   -0.9236 H       1  UNL1        0.0477
     65 H           9.6577   -3.0286    0.8304 H       1  UNL1        0.0477
     66 H           7.2403   -3.1237    0.0876 H       1  UNL1        0.0442
     67 H           7.5048   -1.9105    1.4533 H       1  UNL1        0.0442
     68 H           5.2326   -2.9077    0.3585 H       1  UNL1        0.0281
     69 H           5.0405   -2.6967   -1.4164 H       1  UNL1        0.0281
     70 H           3.4018   -1.5757    0.9056 H       1  UNL1        0.0286
     71 H           2.8915   -2.7038   -0.3779 H       1  UNL1        0.0286
     72 H           2.9341    1.7975    3.5119 H       1  UNL1        0.1048
     73 H          -2.0597    0.9487    2.5836 H       1  UNL1        0.1437
     74 H          -1.7085    2.7075    2.3799 H       1  UNL1        0.1437
     75 H          -1.8967   -1.8115   -0.6661 H       1  UNL1        0.0625
     76 H          -4.3545   -1.9110   -1.0274 H       1  UNL1        0.0637
     77 H          -6.4259    0.2611   -1.9291 H       1  UNL1        0.1553
     78 H          -8.7894   -0.3980    2.2345 H       1  UNL1        0.0646
     79 H         -11.5212   -0.5990    2.7382 H       1  UNL1        0.0624
     80 H         -13.7789   -0.5690    1.6162 H       1  UNL1        0.0618
     81 H         -13.9148   -0.2673   -0.8006 H       1  UNL1        0.0618
     82 H         -11.8781    0.0028   -2.1208 H       1  UNL1        0.0638
     83 H          -8.4578    1.1522   -2.5518 H       1  UNL1        0.0456
     84 H          -9.9449    0.1544   -2.8935 H       1  UNL1        0.0456
     85 H          -8.3715   -0.6375   -2.7635 H       1  UNL1        0.0456
@<TRIPOS>BOND
     1     1     2    1
     2     2     3    1
     3     3     4   ar
     4     4     5   ar
     5     5     6    1
     6     6     7   ar
     7     7     8   ar
     8     8     9    1
     9     9    10    1
    10    10    11    1
    11    11    12    1
    12    12    13    1
    13    13    14    1
    14    14    15    1
    15    15    16    1
    16    16    17   am
    17    17    18    1
    18    17    19    2
    19    16    20    1
    20    20    21    1
    21    12    22    1
    22    22    23    1
    23     8    24   ar
    24    24    25   ar
    25    25    26   ar
    26    26    27   ar
    27    27    28   ar
    28    28    29    1
    29    28    30   ar
    30     5    31   ar
    31    31    32   ar
    32    32    33   ar
    33    33    34    1
    34    34    35   am
    35    35    36    2
    36    35    37    1
    37    37    38   ar
    38    38    39   ar
    39    39    40   ar
    40    40    41   ar
    41    41    42   ar
    42    42    43   ar
    43    43    44   ar
    44    44    45   ar
    45    45    46    1
    46    33     3   ar
    47    45    37   ar
    48    30     6   ar
    49    44    39   ar
    50    23     9    1
    51    30    24   ar
    52    21    13    1
    53     1    47    1
    54     1    48    1
    55     1    49    1
    56     4    50    1
    57     9    51    1
    58    10    52    1
    59    10    53    1
    60    11    54    1
    61    11    55    1
    62    12    56    1
    63    14    57    1
    64    14    58    1
    65    15    59    1
    66    15    60    1
    67    18    61    1
    68    18    62    1
    69    18    63    1
    70    20    64    1
    71    20    65    1
    72    21    66    1
    73    21    67    1
    74    22    68    1
    75    22    69    1
    76    23    70    1
    77    23    71    1
    78    26    72    1
    79    29    73    1
    80    29    74    1
    81    31    75    1
    82    32    76    1
    83    34    77    1
    84    38    78    1
    85    40    79    1
    86    41    80    1
    87    42    81    1
    88    43    82    1
    89    46    83    1
    90    46    84    1
    91    46    85    1
