
     RDKit          3D

 85 91  0  0  0  0  0  0  0  0999 V2000
   -4.1329    3.8081   -0.2020 C   0  0  0  0  0  0  0  0  0  0  0  0
   -4.6931    2.5352   -0.4575 O   0  0  0  0  0  0  0  0  0  0  0  0
   -3.9487    1.3739   -0.5136 C   0  0  0  0  0  0  0  0  0  0  0  0
   -2.5829    1.4158   -0.3153 C   0  0  0  0  0  0  0  0  0  0  0  0
   -1.8201    0.2730   -0.3655 C   0  0  0  0  0  0  0  0  0  0  0  0
   -0.3802    0.2339   -0.1405 C   0  0  0  0  0  0  0  0  0  0  0  0
    0.5401   -0.3379   -0.9623 N   0  0  0  0  0  0  0  0  0  0  0  0
    1.7550   -0.2189   -0.4635 N   0  0  0  0  0  0  0  0  0  0  0  0
    3.0052   -0.6976   -1.0401 C   0  0  1  0  0  0  0  0  0  0  0  0
    3.9354    0.4623   -1.1497 C   0  0  0  0  0  0  0  0  0  0  0  0
    5.3321   -0.0101   -1.4928 C   0  0  0  0  0  0  0  0  0  0  0  0
    5.7728   -0.9323   -0.3697 C   0  0  2  0  0  0  0  0  0  0  0  0
    7.1829   -1.1364   -0.4423 N   0  0  0  0  0  0  0  0  0  0  0  0
    7.8465    0.1394   -0.3075 C   0  0  0  0  0  0  0  0  0  0  0  0
    9.0004    0.0903    0.6720 C   0  0  0  0  0  0  0  0  0  0  0  0
    9.8283   -1.0306    0.2896 N   0  0  0  0  0  0  0  0  0  0  0  0
   11.2232   -0.9032    0.0981 C   0  0  0  0  0  0  0  0  0  0  0  0
   11.9451    0.3843    0.2736 C   0  0  0  0  0  0  0  0  0  0  0  0
   11.8992   -1.9244   -0.2385 O   0  0  0  0  0  0  0  0  0  0  0  0
    9.1889   -2.3111    0.1027 C   0  0  0  0  0  0  0  0  0  0  0  0
    7.6940   -2.1634    0.4096 C   0  0  0  0  0  0  0  0  0  0  0  0
    4.9473   -2.1721   -0.4498 C   0  0  0  0  0  0  0  0  0  0  0  0
    3.5107   -1.8013   -0.1615 C   0  0  0  0  0  0  0  0  0  0  0  0
    1.6356    0.4423    0.7083 C   0  0  0  0  0  0  0  0  0  0  0  0
    2.5389    0.8353    1.6464 N   0  0  0  0  0  0  0  0  0  0  0  0
    2.2038    1.4864    2.7665 C   0  0  0  0  0  0  0  0  0  0  0  0
    0.9103    1.7740    2.9908 N   0  0  0  0  0  0  0  0  0  0  0  0
   -0.0321    1.4034    2.0844 C   0  0  0  0  0  0  0  0  0  0  0  0
   -1.3705    1.7056    2.3719 N   0  0  0  0  0  0  0  0  0  0  0  0
    0.3084    0.7392    0.9385 C   0  0  0  0  0  0  0  0  0  0  0  0
   -2.5007   -0.9211   -0.6277 C   0  0  0  0  0  0  0  0  0  0  0  0
   -3.8646   -0.9599   -0.8257 C   0  0  0  0  0  0  0  0  0  0  0  0
   -4.6105    0.1975   -0.7701 C   0  0  0  0  0  0  0  0  0  0  0  0
   -6.0463    0.1534   -0.9766 N   0  0  0  0  0  0  0  0  0  0  0  0
   -6.9292   -0.0334    0.1038 C   0  0  0  0  0  0  0  0  0  0  0  0
   -6.3637   -0.1564    1.2502 O   0  0  0  0  0  0  0  0  0  0  0  0
   -8.3713   -0.0993    0.0560 C   0  0  0  0  0  0  0  0  0  0  0  0
   -9.1377   -0.2836    1.1998 C   0  0  0  0  0  0  0  0  0  0  0  0
  -10.4858   -0.3123    0.8962 C   0  0  0  0  0  0  0  0  0  0  0  0
  -11.6289   -0.4684    1.6721 C   0  0  0  0  0  0  0  0  0  0  0  0
  -12.8523   -0.4493    1.0425 C   0  0  0  0  0  0  0  0  0  0  0  0
  -12.9357   -0.2797   -0.3199 C   0  0  0  0  0  0  0  0  0  0  0  0
  -11.7787   -0.1283   -1.0532 C   0  0  0  0  0  0  0  0  0  0  0  0
  -10.5318   -0.1409   -0.4655 C   0  0  0  0  0  0  0  0  0  0  0  0
   -9.2541   -0.0164   -0.9394 N   0  0  0  0  0  0  0  0  0  0  0  0
   -8.9661    0.1743   -2.3229 C   0  0  0  0  0  0  0  0  0  0  0  0
   -3.4497    3.6784    0.6863 H   0  0  0  0  0  0  0  0  0  0  0  0
   -3.5242    4.1851   -1.0228 H   0  0  0  0  0  0  0  0  0  0  0  0
   -4.9044    4.5262    0.1412 H   0  0  0  0  0  0  0  0  0  0  0  0
   -2.1167    2.3742   -0.1356 H   0  0  0  0  0  0  0  0  0  0  0  0
    2.7761   -1.0684   -2.0603 H   0  0  0  0  0  0  0  0  0  0  0  0
    3.5323    1.1409   -1.9433 H   0  0  0  0  0  0  0  0  0  0  0  0
    3.9797    1.0678   -0.2293 H   0  0  0  0  0  0  0  0  0  0  0  0
    6.0216    0.8223   -1.6662 H   0  0  0  0  0  0  0  0  0  0  0  0
    5.2534   -0.5845   -2.4430 H   0  0  0  0  0  0  0  0  0  0  0  0
    5.5153   -0.4369    0.6122 H   0  0  0  0  0  0  0  0  0  0  0  0
    8.1820    0.4899   -1.3152 H   0  0  0  0  0  0  0  0  0  0  0  0
    7.1261    0.8979    0.0985 H   0  0  0  0  0  0  0  0  0  0  0  0
    8.5386   -0.1459    1.6707 H   0  0  0  0  0  0  0  0  0  0  0  0
    9.5239    1.0445    0.6686 H   0  0  0  0  0  0  0  0  0  0  0  0
   11.7555    1.0824   -0.5558 H   0  0  0  0  0  0  0  0  0  0  0  0
   11.6891    0.8172    1.2663 H   0  0  0  0  0  0  0  0  0  0  0  0
   13.0351    0.1888    0.3029 H   0  0  0  0  0  0  0  0  0  0  0  0
    9.2787   -2.7033   -0.9236 H   0  0  0  0  0  0  0  0  0  0  0  0
    9.6577   -3.0286    0.8304 H   0  0  0  0  0  0  0  0  0  0  0  0
    7.2403   -3.1237    0.0876 H   0  0  0  0  0  0  0  0  0  0  0  0
    7.5048   -1.9105    1.4533 H   0  0  0  0  0  0  0  0  0  0  0  0
    5.2326   -2.9077    0.3585 H   0  0  0  0  0  0  0  0  0  0  0  0
    5.0405   -2.6967   -1.4164 H   0  0  0  0  0  0  0  0  0  0  0  0
    3.4018   -1.5757    0.9056 H   0  0  0  0  0  0  0  0  0  0  0  0
    2.8915   -2.7038   -0.3779 H   0  0  0  0  0  0  0  0  0  0  0  0
    2.9341    1.7975    3.5119 H   0  0  0  0  0  0  0  0  0  0  0  0
   -2.0597    0.9487    2.5836 H   0  0  0  0  0  0  0  0  0  0  0  0
   -1.7085    2.7075    2.3799 H   0  0  0  0  0  0  0  0  0  0  0  0
   -1.8967   -1.8115   -0.6661 H   0  0  0  0  0  0  0  0  0  0  0  0
   -4.3545   -1.9110   -1.0274 H   0  0  0  0  0  0  0  0  0  0  0  0
   -6.4259    0.2611   -1.9291 H   0  0  0  0  0  0  0  0  0  0  0  0
   -8.7894   -0.3980    2.2345 H   0  0  0  0  0  0  0  0  0  0  0  0
  -11.5212   -0.5990    2.7382 H   0  0  0  0  0  0  0  0  0  0  0  0
  -13.7789   -0.5690    1.6162 H   0  0  0  0  0  0  0  0  0  0  0  0
  -13.9148   -0.2673   -0.8006 H   0  0  0  0  0  0  0  0  0  0  0  0
  -11.8781    0.0028   -2.1208 H   0  0  0  0  0  0  0  0  0  0  0  0
   -8.4578    1.1522   -2.5518 H   0  0  0  0  0  0  0  0  0  0  0  0
   -9.9449    0.1544   -2.8935 H   0  0  0  0  0  0  0  0  0  0  0  0
   -8.3715   -0.6375   -2.7635 H   0  0  0  0  0  0  0  0  0  0  0  0
  1  2  1  0
  2  3  1  0
  3  4  2  0
  4  5  1  0
  5  6  1  0
  6  7  2  0
  7  8  1  0
  8  9  1  0
  9 10  1  0
 10 11  1  0
 11 12  1  0
 12 13  1  0
 13 14  1  0
 14 15  1  0
 15 16  1  0
 16 17  1  0
 17 18  1  0
 17 19  2  0
 16 20  1  0
 20 21  1  0
 12 22  1  0
 22 23  1  0
  8 24  1  0
 24 25  2  0
 25 26  1  0
 26 27  2  0
 27 28  1  0
 28 29  1  0
 28 30  2  0
  5 31  2  0
 31 32  1  0
 32 33  2  0
 33 34  1  0
 34 35  1  0
 35 36  2  0
 35 37  1  0
 37 38  2  0
 38 39  1  0
 39 40  2  0
 40 41  1  0
 41 42  2  0
 42 43  1  0
 43 44  2  0
 44 45  1  0
 45 46  1  0
 33  3  1  0
 45 37  1  0
 30  6  1  0
 44 39  1  0
 23  9  1  0
 30 24  1  0
 21 13  1  0
  1 47  1  0
  1 48  1  0
  1 49  1  0
  4 50  1  0
  9 51  1  6
 10 52  1  0
 10 53  1  0
 11 54  1  0
 11 55  1  0
 12 56  1  1
 14 57  1  0
 14 58  1  0
 15 59  1  0
 15 60  1  0
 18 61  1  0
 18 62  1  0
 18 63  1  0
 20 64  1  0
 20 65  1  0
 21 66  1  0
 21 67  1  0
 22 68  1  0
 22 69  1  0
 23 70  1  0
 23 71  1  0
 26 72  1  0
 29 73  1  0
 29 74  1  0
 31 75  1  0
 32 76  1  0
 34 77  1  0
 38 78  1  0
 40 79  1  0
 41 80  1  0
 42 81  1  0
 43 82  1  0
 46 83  1  0
 46 84  1  0
 46 85  1  0
M  END
$$$$
