@<TRIPOS>MOLECULE
*****
 65 67 0 0 0
SMALL
GASTEIGER

@<TRIPOS>ATOM
      1 C          -8.5178    1.5049    0.4886 C.3     1  UNL1        0.0788
      2 O          -8.0716    0.5357   -0.4376 O.3     1  UNL1       -0.4949
      3 C          -6.7287    0.2708   -0.5430 C.ar    1  UNL1        0.1268
      4 C          -5.8192    0.9395    0.2443 C.ar    1  UNL1       -0.0161
      5 C          -4.4728    0.6968    0.1627 C.ar    1  UNL1       -0.0097
      6 C          -4.0074   -0.2578   -0.7468 C.ar    1  UNL1        0.1984
      7 O          -2.6274   -0.5085   -0.8310 O.3     1  UNL1       -0.4745
      8 C          -1.9550   -1.4520   -0.0262 C.3     1  UNL1        0.1557
      9 C          -2.0982   -1.0834    1.4358 C.3     1  UNL1       -0.0203
     10 C          -2.5965   -2.8267   -0.1665 C.3     1  UNL1       -0.0203
     11 C          -0.5095   -1.5839   -0.4409 C.3     1  UNL1        0.1991
     12 O           0.1120   -2.5239    0.3730 O.3     1  UNL1       -0.3473
     13 C           1.5039   -2.4388    0.1258 C.3     1  UNL1        0.0566
     14 C           1.8948   -1.1535    0.9091 C.3     1  UNL1        0.0165
     15 C           3.3658   -1.0594    1.0273 C.3     1  UNL1       -0.0271
     16 C           4.1509   -1.0018   -0.1928 C.2     1  UNL1       -0.0875
     17 C           5.0037   -0.0444   -0.5229 C.2     1  UNL1       -0.0874
     18 C           5.2606    1.1155    0.3525 C.3     1  UNL1       -0.0247
     19 C           6.7360    1.1152    0.7318 C.3     1  UNL1        0.0482
     20 C           7.5990    1.2623   -0.4558 C.2     1  UNL1        0.3050
     21 O           8.8405    1.1231   -0.2894 O.2     1  UNL1       -0.2510
     22 O           7.0502    1.5427   -1.6876 O.3     1  UNL1       -0.4806
     23 C           1.0813   -0.0731    0.3907 C.3     1  UNL1        0.0933
     24 C           1.7181    1.1727   -0.0779 C.ar    1  UNL1       -0.0003
     25 C           1.9511    2.2500    0.7667 C.ar    1  UNL1       -0.0532
     26 C           2.5050    3.4339    0.3054 C.ar    1  UNL1       -0.0433
     27 C           2.8398    3.5626   -1.0252 C.ar    1  UNL1        0.0276
     28 N           2.6193    2.5339   -1.8354 N.ar    1  UNL1       -0.2629
     29 C           2.0861    1.3843   -1.4080 C.ar    1  UNL1        0.0332
     30 O           0.1693   -0.4256   -0.6054 O.3     1  UNL1       -0.3393
     31 C          -4.9344   -0.9114   -1.5230 C.ar    1  UNL1        0.3177
     32 N          -4.4932   -1.8801   -2.4874 N.pl3   1  UNL1        0.0835
     33 O          -3.3935   -1.7286   -3.0585 O.2     1  UNL1        0.0416
     34 O          -5.2692   -2.9570   -2.8020 O.co2   1  UNL1       -0.5759
     35 C          -6.3063   -0.6751   -1.4499 C.ar    1  UNL1        0.0610
     36 H          -8.1673    1.1941    1.4983 H       1  UNL1        0.0660
     37 H          -8.1737    2.5277    0.2437 H       1  UNL1        0.0660
     38 H          -9.6085    1.5202    0.5079 H       1  UNL1        0.0660
     39 H          -6.2064    1.6752    0.9404 H       1  UNL1        0.0655
     40 H          -3.7461    1.2334    0.7913 H       1  UNL1        0.0657
     41 H          -1.9284   -0.0355    1.6638 H       1  UNL1        0.0270
     42 H          -3.1378   -1.3341    1.7301 H       1  UNL1        0.0270
     43 H          -1.4490   -1.7816    2.0035 H       1  UNL1        0.0270
     44 H          -2.1953   -3.4117    0.7161 H       1  UNL1        0.0270
     45 H          -3.6675   -2.7120    0.0385 H       1  UNL1        0.0270
     46 H          -2.3373   -3.3303   -1.1070 H       1  UNL1        0.0270
     47 H          -0.5520   -2.0815   -1.4602 H       1  UNL1        0.0951
     48 H           2.0517   -3.2654    0.5819 H       1  UNL1        0.0564
     49 H           1.7219   -2.3100   -0.9326 H       1  UNL1        0.0564
     50 H           1.5452   -1.4581    1.9702 H       1  UNL1        0.0354
     51 H           3.6826   -2.0362    1.5426 H       1  UNL1        0.0312
     52 H           3.6077   -0.2991    1.7963 H       1  UNL1        0.0312
     53 H           4.0469   -1.8148   -0.9245 H       1  UNL1        0.0569
     54 H           5.5368   -0.1295   -1.4958 H       1  UNL1        0.0569
     55 H           5.1103    2.0372   -0.2777 H       1  UNL1        0.0312
     56 H           4.6106    1.2379    1.2080 H       1  UNL1        0.0312
     57 H           7.0117    0.1145    1.1813 H       1  UNL1        0.0380
     58 H           6.9676    1.9119    1.4798 H       1  UNL1        0.0380
     59 H           7.5887    2.0531   -2.3645 H       1  UNL1        0.2951
     60 H           0.3995    0.2900    1.2459 H       1  UNL1        0.0651
     61 H           1.7079    2.2023    1.8176 H       1  UNL1        0.0622
     62 H           2.6937    4.2824    0.9466 H       1  UNL1        0.0633
     63 H           3.2684    4.4976   -1.3529 H       1  UNL1        0.0829
     64 H           1.9347    0.5866   -2.1256 H       1  UNL1        0.0833
     65 H          -7.0034   -1.2229   -2.0879 H       1  UNL1        0.0724
@<TRIPOS>UNITY_ATOM_ATTR
32 1
charge 1
34 1
charge -1
@<TRIPOS>BOND
     1     1     2    1
     2     2     3    1
     3     3     4   ar
     4     4     5   ar
     5     5     6   ar
     6     6     7    1
     7     7     8    1
     8     8     9    1
     9     8    10    1
    10     8    11    1
    11    11    12    1
    12    12    13    1
    13    13    14    1
    14    14    15    1
    15    15    16    1
    16    16    17    2
    17    17    18    1
    18    18    19    1
    19    19    20    1
    20    20    21    2
    21    20    22    1
    22    14    23    1
    23    23    24    1
    24    24    25   ar
    25    25    26   ar
    26    26    27   ar
    27    27    28   ar
    28    28    29   ar
    29    23    30    1
    30     6    31   ar
    31    31    32    1
    32    32    33    2
    33    32    34    1
    34    31    35   ar
    35    35     3   ar
    36    30    11    1
    37    29    24   ar
    38     1    36    1
    39     1    37    1
    40     1    38    1
    41     4    39    1
    42     5    40    1
    43     9    41    1
    44     9    42    1
    45     9    43    1
    46    10    44    1
    47    10    45    1
    48    10    46    1
    49    11    47    1
    50    13    48    1
    51    13    49    1
    52    14    50    1
    53    15    51    1
    54    15    52    1
    55    16    53    1
    56    17    54    1
    57    18    55    1
    58    18    56    1
    59    19    57    1
    60    19    58    1
    61    22    59    1
    62    23    60    1
    63    25    61    1
    64    26    62    1
    65    27    63    1
    66    29    64    1
    67    35    65    1
