@<TRIPOS>MOLECULE
*****
 57 60 0 0 0
SMALL
GASTEIGER

@<TRIPOS>ATOM
      1 C          -6.6494    1.1480    1.6474 C.3     1  UNL1       -0.0613
      2 C          -6.0123    1.3279    0.2695 C.3     1  UNL1       -0.0303
      3 C          -4.6838    0.6375    0.2863 C.ar    1  UNL1       -0.0442
      4 C          -4.5908   -0.7332    0.1757 C.ar    1  UNL1       -0.0442
      5 C          -5.7708   -1.5950    0.0028 C.3     1  UNL1       -0.0303
      6 C          -6.3388   -1.5249   -1.4108 C.3     1  UNL1       -0.0613
      7 C          -3.2990   -1.2348    0.2338 C.ar    1  UNL1       -0.0548
      8 C          -2.1557   -0.4738    0.3876 C.ar    1  UNL1       -0.0424
      9 C          -0.7682   -0.9487    0.4813 C.3     1  UNL1       -0.0116
     10 C           0.0505    0.2973    0.3453 C.3     1  UNL1        0.0157
     11 C          -0.8963    1.4163    0.6368 C.3     1  UNL1       -0.0116
     12 C          -2.2596    0.8912    0.4947 C.ar    1  UNL1       -0.0424
     13 C          -3.5339    1.4060    0.4401 C.ar    1  UNL1       -0.0548
     14 N           1.1125    0.2221    1.3306 N.3     1  UNL1       -0.3099
     15 C           2.0363    1.2902    1.3556 C.3     1  UNL1        0.0264
     16 C           2.9998    1.3885    0.2078 C.3     1  UNL1        0.0932
     17 O           2.2861    1.5363   -0.9755 O.3     1  UNL1       -0.3859
     18 C           3.9404    0.2403    0.1846 C.ar    1  UNL1       -0.0086
     19 C           4.9773    0.0301   -0.7236 C.ar    1  UNL1        0.0078
     20 C           5.0624    1.0675   -1.6680 C.ar    1  UNL1       -0.0471
     21 C           6.0650    0.9445   -2.6023 C.ar    1  UNL1        0.0034
     22 C           6.9449   -0.0992   -2.6487 C.ar    1  UNL1        0.2493
     23 O           7.9070   -0.4428   -3.3602 O.2     1  UNL1       -0.2679
     24 N           6.7930   -1.0706   -1.6893 N.ar    1  UNL1       -0.3192
     25 C           5.8346   -1.0494   -0.7177 C.ar    1  UNL1        0.0915
     26 C           5.6806   -2.0121    0.2489 C.ar    1  UNL1        0.1407
     27 O           6.5608   -3.0795    0.2268 O.3     1  UNL1       -0.5047
     28 C           4.6717   -1.8808    1.1922 C.ar    1  UNL1       -0.0178
     29 C           3.8453   -0.7839    1.1387 C.ar    1  UNL1       -0.0519
     30 H          -6.2002    0.3442    2.2351 H       1  UNL1        0.0233
     31 H          -7.7153    0.9609    1.5173 H       1  UNL1        0.0233
     32 H          -6.4556    2.0993    2.2273 H       1  UNL1        0.0233
     33 H          -5.8513    2.3839    0.0854 H       1  UNL1        0.0311
     34 H          -6.6899    0.9431   -0.5116 H       1  UNL1        0.0311
     35 H          -5.4008   -2.6600    0.1261 H       1  UNL1        0.0311
     36 H          -6.5475   -1.4926    0.7721 H       1  UNL1        0.0311
     37 H          -6.3077   -2.5082   -1.9200 H       1  UNL1        0.0233
     38 H          -5.8224   -0.7573   -2.0262 H       1  UNL1        0.0233
     39 H          -7.4363   -1.2934   -1.2833 H       1  UNL1        0.0233
     40 H          -3.2367   -2.3289    0.1449 H       1  UNL1        0.0623
     41 H          -0.5227   -1.7196   -0.2757 H       1  UNL1        0.0328
     42 H          -0.6525   -1.3525    1.5232 H       1  UNL1        0.0328
     43 H           0.4100    0.3433   -0.6923 H       1  UNL1        0.0467
     44 H          -0.7200    1.9053    1.6211 H       1  UNL1        0.0328
     45 H          -0.6988    2.2156   -0.1396 H       1  UNL1        0.0328
     46 H          -3.6818    2.4912    0.5207 H       1  UNL1        0.0623
     47 H           0.7000   -0.0339    2.2407 H       1  UNL1        0.1223
     48 H           1.4208    2.2453    1.2942 H       1  UNL1        0.0453
     49 H           2.5576    1.4120    2.3420 H       1  UNL1        0.0453
     50 H           3.5801    2.3519    0.4101 H       1  UNL1        0.0656
     51 H           2.1823    2.5111   -1.1427 H       1  UNL1        0.2103
     52 H           4.4383    1.9407   -1.7469 H       1  UNL1        0.0626
     53 H           6.3022    1.6335   -3.4206 H       1  UNL1        0.0672
     54 H           7.3849   -1.9457   -1.5767 H       1  UNL1        0.1690
     55 H           7.3985   -3.1192    0.8190 H       1  UNL1        0.2922
     56 H           4.6324   -2.6836    1.9007 H       1  UNL1        0.0655
     57 H           3.1230   -0.8014    1.9119 H       1  UNL1        0.0622
@<TRIPOS>BOND
     1     1     2    1
     2     2     3    1
     3     3     4   ar
     4     4     5    1
     5     5     6    1
     6     4     7   ar
     7     7     8   ar
     8     8     9    1
     9     9    10    1
    10    10    11    1
    11    11    12    1
    12    12    13   ar
    13    10    14    1
    14    14    15    1
    15    15    16    1
    16    16    17    1
    17    16    18    1
    18    18    19   ar
    19    19    20   ar
    20    20    21   ar
    21    21    22   ar
    22    22    23    2
    23    22    24   ar
    24    24    25   ar
    25    25    26   ar
    26    26    27    1
    27    26    28   ar
    28    28    29   ar
    29    13     3   ar
    30    29    18   ar
    31    12     8   ar
    32    25    19   ar
    33     1    30    1
    34     1    31    1
    35     1    32    1
    36     2    33    1
    37     2    34    1
    38     5    35    1
    39     5    36    1
    40     6    37    1
    41     6    38    1
    42     6    39    1
    43     7    40    1
    44     9    41    1
    45     9    42    1
    46    10    43    1
    47    11    44    1
    48    11    45    1
    49    13    46    1
    50    14    47    1
    51    15    48    1
    52    15    49    1
    53    16    50    1
    54    17    51    1
    55    20    52    1
    56    21    53    1
    57    24    54    1
    58    27    55    1
    59    28    56    1
    60    29    57    1
