@<TRIPOS>MOLECULE
*****
 62 65 0 0 0
SMALL
GASTEIGER

@<TRIPOS>ATOM
      1 C          -6.9655   -1.4758    1.6734 C.3     1  UNL1        0.0365
      2 O          -6.2843   -0.3557    1.1761 O.3     1  UNL1       -0.3814
      3 C          -4.9408   -0.6619    1.0413 C.3     1  UNL1        0.0645
      4 C          -4.1630    0.5083    0.5108 C.3     1  UNL1        0.0552
      5 C          -4.5633    1.7100    1.3815 C.3     1  UNL1       -0.0323
      6 C          -4.1500    2.8591    0.5005 C.3     1  UNL1       -0.0370
      7 C          -4.0398    2.2940   -0.9226 C.3     1  UNL1        0.0209
      8 N          -4.5957    0.9623   -0.7683 N.3     1  UNL1       -0.1713
      9 S          -4.2677   -0.0566   -2.0839 S.O2    1  UNL1        0.0612
     10 O          -4.8825    0.6040   -3.3135 O.2     1  UNL1       -0.1528
     11 O          -5.0304   -1.3382   -1.9079 O.2     1  UNL1       -0.1528
     12 C          -2.5571   -0.3431   -2.3507 C.ar    1  UNL1        0.1063
     13 C          -1.9200   -1.4035   -1.7393 C.ar    1  UNL1       -0.0335
     14 C          -0.5712   -1.6524   -1.9356 C.ar    1  UNL1       -0.0377
     15 C           0.1979   -0.8398   -2.7605 C.ar    1  UNL1        0.0481
     16 C          -0.4365    0.2185   -3.3710 C.ar    1  UNL1        0.0502
     17 C          -1.7988    0.4622   -3.1669 C.ar    1  UNL1       -0.0226
     18 C           0.5792    0.9003   -4.1691 C.2     1  UNL1        0.2496
     19 O           0.3679    1.9208   -4.8713 O.2     1  UNL1       -0.2817
     20 C           1.8252    0.1699   -3.9776 C.2     1  UNL1        0.2915
     21 O           2.9479    0.4440   -4.5017 O.2     1  UNL1       -0.2661
     22 N           1.5732   -0.9064   -3.1019 N.am    1  UNL1       -0.2598
     23 C           2.5782   -1.8695   -2.6701 C.3     1  UNL1        0.0452
     24 C           3.2539   -1.4192   -1.4435 C.ar    1  UNL1       -0.0295
     25 C           2.8495   -1.7068   -0.1767 C.ar    1  UNL1       -0.0536
     26 C           3.5708   -1.2242    0.8941 C.ar    1  UNL1       -0.0196
     27 C           4.7063   -0.4476    0.7618 C.ar    1  UNL1        0.1206
     28 O           5.4284    0.0353    1.8526 O.3     1  UNL1       -0.4893
     29 C           5.0347   -0.2476    3.1754 C.3     1  UNL1        0.1178
     30 C           6.0500    0.4412    4.0792 C.3     1  UNL1        0.1171
     31 O           7.3434   -0.0280    3.8565 O.3     1  UNL1       -0.3858
     32 C           6.0411    1.9188    3.7263 C.3     1  UNL1        0.1192
     33 F           4.7744    2.4210    3.9401 F       1  UNL1       -0.2463
     34 C           5.1133   -0.1580   -0.5245 C.ar    1  UNL1       -0.0196
     35 C           4.3976   -0.6369   -1.6012 C.ar    1  UNL1       -0.0536
     36 H          -8.0343   -1.2900    1.8000 H       1  UNL1        0.0523
     37 H          -6.7392   -2.3957    1.0913 H       1  UNL1        0.0523
     38 H          -6.5469   -1.6774    2.6992 H       1  UNL1        0.0523
     39 H          -4.7366   -1.5341    0.3899 H       1  UNL1        0.0576
     40 H          -4.5539   -0.9806    2.0534 H       1  UNL1        0.0576
     41 H          -3.0827    0.4016    0.6307 H       1  UNL1        0.0502
     42 H          -5.6899    1.7192    1.4154 H       1  UNL1        0.0282
     43 H          -4.0958    1.6904    2.3623 H       1  UNL1        0.0282
     44 H          -4.9450    3.6583    0.4756 H       1  UNL1        0.0279
     45 H          -3.2031    3.3154    0.7964 H       1  UNL1        0.0279
     46 H          -4.6858    2.8488   -1.6229 H       1  UNL1        0.0444
     47 H          -3.0046    2.3007   -1.2771 H       1  UNL1        0.0444
     48 H          -2.4883   -2.0627   -1.0861 H       1  UNL1        0.0638
     49 H          -0.0633   -2.4819   -1.4597 H       1  UNL1        0.0637
     50 H          -2.2611    1.2992   -3.6608 H       1  UNL1        0.0645
     51 H           3.3224   -1.9640   -3.4887 H       1  UNL1        0.0518
     52 H           2.1223   -2.8762   -2.5648 H       1  UNL1        0.0518
     53 H           1.9592   -2.3163   -0.0483 H       1  UNL1        0.0622
     54 H           3.2270   -1.4678    1.8748 H       1  UNL1        0.0654
     55 H           4.0480    0.1618    3.4154 H       1  UNL1        0.0723
     56 H           5.0521   -1.3485    3.3273 H       1  UNL1        0.0723
     57 H           5.7246    0.3064    5.1358 H       1  UNL1        0.0653
     58 H           7.2716   -0.9811    3.6067 H       1  UNL1        0.2100
     59 H           6.7856    2.4490    4.3589 H       1  UNL1        0.0642
     60 H           6.3627    2.0394    2.6766 H       1  UNL1        0.0642
     61 H           6.0084    0.4542   -0.6656 H       1  UNL1        0.0654
     62 H           4.7804   -0.3666   -2.5833 H       1  UNL1        0.0622
@<TRIPOS>BOND
     1     1     2    1
     2     2     3    1
     3     3     4    1
     4     4     5    1
     5     5     6    1
     6     6     7    1
     7     7     8    1
     8     8     9    1
     9     9    10    2
    10     9    11    2
    11     9    12    1
    12    12    13   ar
    13    13    14   ar
    14    14    15   ar
    15    15    16   ar
    16    16    17   ar
    17    16    18    1
    18    18    19    2
    19    18    20    1
    20    20    21    2
    21    20    22   am
    22    22    23    1
    23    23    24    1
    24    24    25   ar
    25    25    26   ar
    26    26    27   ar
    27    27    28    1
    28    28    29    1
    29    29    30    1
    30    30    31    1
    31    30    32    1
    32    32    33    1
    33    27    34   ar
    34    34    35   ar
    35     8     4    1
    36    17    12   ar
    37    35    24   ar
    38    22    15    1
    39     1    36    1
    40     1    37    1
    41     1    38    1
    42     3    39    1
    43     3    40    1
    44     4    41    1
    45     5    42    1
    46     5    43    1
    47     6    44    1
    48     6    45    1
    49     7    46    1
    50     7    47    1
    51    13    48    1
    52    14    49    1
    53    17    50    1
    54    23    51    1
    55    23    52    1
    56    25    53    1
    57    26    54    1
    58    29    55    1
    59    29    56    1
    60    30    57    1
    61    31    58    1
    62    32    59    1
    63    32    60    1
    64    34    61    1
    65    35    62    1
