
     RDKit          3D

 47 50  0  0  0  0  0  0  0  0999 V2000
   -3.9689   -1.4333   -2.4714 N   0  0  0  0  0  0  0  0  0  0  0  0
   -3.8320   -0.6603   -1.2711 C   0  0  0  0  0  0  0  0  0  0  0  0
   -2.9786    0.2883   -1.2999 N   0  0  0  0  0  0  0  0  0  0  0  0
   -2.6910    1.1824   -0.1958 C   0  0  2  0  0  0  0  0  0  0  0  0
   -2.6261    2.5917   -0.7692 C   0  0  0  0  0  0  0  0  0  0  0  0
   -3.8495    2.9328   -1.3651 F   0  0  0  0  0  0  0  0  0  0  0  0
   -1.3584    0.8530    0.3323 C   0  0  0  0  0  0  0  0  0  0  0  0
   -0.9769    1.0495    1.6425 C   0  0  0  0  0  0  0  0  0  0  0  0
    0.3016    0.7005    2.0250 C   0  0  0  0  0  0  0  0  0  0  0  0
    1.1999    0.1609    1.1205 C   0  0  0  0  0  0  0  0  0  0  0  0
    0.8406   -0.0465   -0.2051 C   0  0  0  0  0  0  0  0  0  0  0  0
    1.7220   -0.5939   -1.1684 N   0  0  0  0  0  0  0  0  0  0  0  0
    2.9250   -1.2822   -0.8812 C   0  0  0  0  0  0  0  0  0  0  0  0
    2.9683   -2.6480   -0.9230 N   0  0  0  0  0  0  0  0  0  0  0  0
    4.0990   -3.2938   -0.6491 C   0  0  0  0  0  0  0  0  0  0  0  0
    5.2502   -2.6170   -0.3181 C   0  0  0  0  0  0  0  0  0  0  0  0
    5.2722   -1.2272   -0.2576 C   0  0  0  0  0  0  0  0  0  0  0  0
    6.4179   -0.5457    0.0766 C   0  0  0  0  0  0  0  0  0  0  0  0
    6.3543    0.8235    0.1180 C   0  0  0  0  0  0  0  0  0  0  0  0
    7.7647    1.7475    0.5331 Cl  0  0  0  0  0  0  0  0  0  0  0  0
    5.1812    1.4880   -0.1656 C   0  0  0  0  0  0  0  0  0  0  0  0
    4.0969    0.7802   -0.4844 N   0  0  0  0  0  0  0  0  0  0  0  0
    4.0699   -0.5841   -0.5501 C   0  0  0  0  0  0  0  0  0  0  0  0
   -0.4426    0.3139   -0.5483 C   0  0  0  0  0  0  0  0  0  0  0  0
   -3.7961    1.1312    0.8338 C   0  0  0  0  0  0  0  0  0  0  0  0
   -4.2639   -0.2860    1.0789 C   0  0  1  0  0  0  0  0  0  0  0  0
   -5.6099   -0.1942    1.8185 C   0  0  0  0  0  0  0  0  0  0  0  0
   -5.4861    0.4620    3.0113 F   0  0  0  0  0  0  0  0  0  0  0  0
   -6.0872   -1.4648    2.0885 F   0  0  0  0  0  0  0  0  0  0  0  0
   -6.5121    0.4497    0.9835 F   0  0  0  0  0  0  0  0  0  0  0  0
   -4.5620   -0.9053   -0.1467 O   0  0  0  0  0  0  0  0  0  0  0  0
   -4.3336   -2.4086   -2.4686 H   0  0  0  0  0  0  0  0  0  0  0  0
   -3.6989   -1.0188   -3.3848 H   0  0  0  0  0  0  0  0  0  0  0  0
   -2.4287    3.3583    0.0023 H   0  0  0  0  0  0  0  0  0  0  0  0
   -1.7864    2.6597   -1.5238 H   0  0  0  0  0  0  0  0  0  0  0  0
   -1.6733    1.4707    2.3473 H   0  0  0  0  0  0  0  0  0  0  0  0
    0.6535    0.8344    3.0472 H   0  0  0  0  0  0  0  0  0  0  0  0
    2.2041   -0.1180    1.4081 H   0  0  0  0  0  0  0  0  0  0  0  0
    1.4767   -0.4888   -2.1871 H   0  0  0  0  0  0  0  0  0  0  0  0
    4.0949   -4.3940   -0.6938 H   0  0  0  0  0  0  0  0  0  0  0  0
    6.1506   -3.1793   -0.1053 H   0  0  0  0  0  0  0  0  0  0  0  0
    7.3345   -1.0613    0.2951 H   0  0  0  0  0  0  0  0  0  0  0  0
    5.1206    2.5650   -0.1337 H   0  0  0  0  0  0  0  0  0  0  0  0
   -0.7131    0.1410   -1.6052 H   0  0  0  0  0  0  0  0  0  0  0  0
   -3.5993    1.7019    1.7380 H   0  0  0  0  0  0  0  0  0  0  0  0
   -4.6815    1.6476    0.3517 H   0  0  0  0  0  0  0  0  0  0  0  0
   -3.5425   -0.8825    1.6751 H   0  0  0  0  0  0  0  0  0  0  0  0
  1  2  1  0
  2  3  2  0
  3  4  1  0
  4  5  1  6
  5  6  1  0
  4  7  1  0
  7  8  2  0
  8  9  1  0
  9 10  2  0
 10 11  1  0
 11 12  1  0
 12 13  1  0
 13 14  2  0
 14 15  1  0
 15 16  2  0
 16 17  1  0
 17 18  2  0
 18 19  1  0
 19 20  1  0
 19 21  2  0
 21 22  1  0
 22 23  2  0
 11 24  2  0
  4 25  1  0
 25 26  1  0
 26 27  1  0
 27 28  1  0
 27 29  1  0
 27 30  1  0
 26 31  1  0
 31  2  1  0
 24  7  1  0
 23 13  1  0
 23 17  1  0
  1 32  1  0
  1 33  1  0
  5 34  1  0
  5 35  1  0
  8 36  1  0
  9 37  1  0
 10 38  1  0
 12 39  1  0
 15 40  1  0
 16 41  1  0
 18 42  1  0
 21 43  1  0
 24 44  1  0
 25 45  1  0
 25 46  1  0
 26 47  1  1
M  END
$$$$
